MODEL 1
REMARK VINA RESULT:      -6.2      0.000      0.000
REMARK  Name = 5697
REMARK  11 active torsions:
REMARK  status: ('A' for Active; 'I' for Inactive)
REMARK    1  A    between atoms: N_3  and  C_32
REMARK    2  A    between atoms: N_4  and  C_35
REMARK    3  A    between atoms: C_11  and  C_14
REMARK    4  A    between atoms: C_19  and  O_20
REMARK    5  A    between atoms: O_20  and  C_21
REMARK    6  A    between atoms: C_21  and  C_24
REMARK    7  A    between atoms: N_23  and  C_26
REMARK    8  A    between atoms: C_26  and  C_27
REMARK    9  A    between atoms: C_27  and  N_28
REMARK   10  A    between atoms: C_32  and  C_33
REMARK   11  A    between atoms: C_35  and  C_36
REMARK                            x       y       z     vdW  Elec       q    Type
REMARK                         _______ _______ _______ _____ _____    ______ ____
ROOT
ATOM      1  O   UNL     1     -37.790  24.443   4.029  0.00  0.00    -0.246 OA
ATOM      2  O   UNL     1     -39.302  21.315   0.871  0.00  0.00    -0.265 OA
ATOM      3  N   UNL     1     -36.287  22.843   3.259  0.00  0.00    -0.269 N 
ATOM      4  N   UNL     1     -38.570  22.896   2.454  0.00  0.00    -0.248 N 
ATOM      5  N   UNL     1     -36.536  20.201   0.973  0.00  0.00    -0.310 N 
ATOM      6  N   UNL     1     -34.930  21.044   2.270  0.00  0.00    -0.301 N 
ATOM      7  C   UNL     1     -36.092  21.751   2.425  0.00  0.00    +0.132 A 
ATOM      8  C   UNL     1     -37.096  21.253   1.639  0.00  0.00    +0.133 A 
ATOM      9  C   UNL     1     -37.557  23.468   3.305  0.00  0.00    +0.335 A 
ATOM     10  C   UNL     1     -38.419  21.782   1.586  0.00  0.00    +0.280 A 
ATOM     11  C   UNL     1     -35.232  20.114   1.387  0.00  0.00    +0.169 C 
ATOM     12  H   UNL     1     -36.983  19.615   0.321  0.00  0.00    +0.149 HD
ATOM     13  H   UNL     1     -34.066  21.195   2.718  0.00  0.00    +0.150 HD
ENDROOT
BRANCH  11  14
ATOM     14  C   UNL     1     -34.334  19.102   0.880  0.00  0.00    +0.015 C 
ATOM     15  C   UNL     1     -34.707  18.326  -0.216  0.00  0.00    +0.002 C 
ATOM     16  C   UNL     1     -33.095  18.903   1.489  0.00  0.00    +0.002 C 
ATOM     17  C   UNL     1     -33.839  17.350  -0.706  0.00  0.00    +0.037 C 
ATOM     18  C   UNL     1     -32.227  17.926   0.999  0.00  0.00    +0.037 C 
ATOM     19  C   UNL     1     -32.600  17.150  -0.098  0.00  0.00    +0.139 C 
BRANCH  19  20
ATOM     20  O   UNL     1     -31.753  16.197  -0.576  0.00  0.00    -0.466 OA
BRANCH  20  21
ATOM     21  C   UNL     1     -32.119  14.835  -0.359  0.00  0.00    +0.289 C 
BRANCH  21  24
ATOM     22  O   UNL     1     -29.838  14.540   0.364  0.00  0.00    -0.271 OA
ATOM     23  N   UNL     1     -31.231  12.682   0.221  0.00  0.00    -0.304 N 
ATOM     24  C   UNL     1     -30.928  14.030   0.115  0.00  0.00    +0.267 C 
ATOM     25  H   UNL     1     -32.141  12.386  -0.007  0.00  0.00    +0.149 HD
BRANCH  23  26
ATOM     26  C   UNL     1     -30.272  11.690   0.651  0.00  0.00    +0.066 C 
BRANCH  26  27
ATOM     27  C   UNL     1     -30.255  11.561   2.167  0.00  0.00    -0.065 C 
BRANCH  27  28
ATOM     28  N   UNL     1     -31.557  11.123   2.653  0.00  0.00    +0.382 N 
ATOM     29  H   UNL     1     -31.566  10.106   2.729  0.00  0.00    -0.089 HD
ATOM     30  H   UNL     1     -32.282  11.422   2.000  0.00  0.00    -0.089 HD
ATOM     31  H   UNL     1     -31.733  11.535   3.569  0.00  0.00    -0.089 HD
ENDBRANCH  27  28
ENDBRANCH  26  27
ENDBRANCH  23  26
ENDBRANCH  21  24
ENDBRANCH  20  21
ENDBRANCH  19  20
ENDBRANCH  11  14
BRANCH   3  32
ATOM     32  C   UNL     1     -35.187  23.337   4.078  0.00  0.00    +0.112 C 
BRANCH  32  33
ATOM     33  C   UNL     1     -35.413  23.091   5.565  0.00  0.00    +0.025 C 
ATOM     34  C   UNL     1     -35.194  21.638   5.961  0.00  0.00    +0.002 C 
ENDBRANCH  32  33
ENDBRANCH   3  32
BRANCH   4  35
ATOM     35  C   UNL     1     -39.885  23.526   2.486  0.00  0.00    +0.114 C 
BRANCH  35  36
ATOM     36  C   UNL     1     -39.997  24.686   1.503  0.00  0.00    +0.025 C 
ATOM     37  C   UNL     1     -40.489  25.969   2.160  0.00  0.00    +0.002 C 
ENDBRANCH  35  36
ENDBRANCH   4  35
TORSDOF 11
ENDMDL
MODEL 2
REMARK VINA RESULT:      -6.2      6.222     13.866
REMARK  Name = 5697
REMARK  11 active torsions:
REMARK  status: ('A' for Active; 'I' for Inactive)
REMARK    1  A    between atoms: N_3  and  C_32
REMARK    2  A    between atoms: N_4  and  C_35
REMARK    3  A    between atoms: C_11  and  C_14
REMARK    4  A    between atoms: C_19  and  O_20
REMARK    5  A    between atoms: O_20  and  C_21
REMARK    6  A    between atoms: C_21  and  C_24
REMARK    7  A    between atoms: N_23  and  C_26
REMARK    8  A    between atoms: C_26  and  C_27
REMARK    9  A    between atoms: C_27  and  N_28
REMARK   10  A    between atoms: C_32  and  C_33
REMARK   11  A    between atoms: C_35  and  C_36
REMARK                            x       y       z     vdW  Elec       q    Type
REMARK                         _______ _______ _______ _____ _____    ______ ____
ROOT
ATOM      1  O   UNL     1     -36.399  21.502   2.871  0.00  0.00    -0.246 OA
ATOM      2  O   UNL     1     -36.400  25.857   4.625  0.00  0.00    -0.265 OA
ATOM      3  N   UNL     1     -38.305  22.804   2.582  0.00  0.00    -0.269 N 
ATOM      4  N   UNL     1     -36.372  23.670   3.755  0.00  0.00    -0.248 N 
ATOM      5  N   UNL     1     -39.167  26.064   3.528  0.00  0.00    -0.310 N 
ATOM      6  N   UNL     1     -40.170  24.403   2.431  0.00  0.00    -0.301 N 
ATOM      7  C   UNL     1     -38.910  24.031   2.818  0.00  0.00    +0.132 A 
ATOM      8  C   UNL     1     -38.273  25.034   3.495  0.00  0.00    +0.133 A 
ATOM      9  C   UNL     1     -36.988  22.574   3.050  0.00  0.00    +0.335 A 
ATOM     10  C   UNL     1     -36.950  24.940   4.021  0.00  0.00    +0.280 A 
ATOM     11  C   UNL     1     -40.294  25.637   2.875  0.00  0.00    +0.169 C 
ATOM     12  H   UNL     1     -39.030  26.946   3.942  0.00  0.00    +0.149 HD
ATOM     13  H   UNL     1     -40.832  23.870   1.934  0.00  0.00    +0.150 HD
ENDROOT
BRANCH  11  14
ATOM     14  C   UNL     1     -41.455  26.482   2.720  0.00  0.00    +0.015 C 
ATOM     15  C   UNL     1     -42.091  26.573   1.483  0.00  0.00    +0.002 C 
ATOM     16  C   UNL     1     -41.938  27.207   3.810  0.00  0.00    +0.002 C 
ATOM     17  C   UNL     1     -43.213  27.388   1.335  0.00  0.00    +0.037 C 
ATOM     18  C   UNL     1     -43.060  28.023   3.661  0.00  0.00    +0.037 C 
ATOM     19  C   UNL     1     -43.697  28.113   2.424  0.00  0.00    +0.139 C 
BRANCH  19  20
ATOM     20  O   UNL     1     -44.792  28.909   2.279  0.00  0.00    -0.466 OA
BRANCH  20  21
ATOM     21  C   UNL     1     -45.154  29.725   3.392  0.00  0.00    +0.289 C 
BRANCH  21  24
ATOM     22  O   UNL     1     -44.369  31.565   2.047  0.00  0.00    -0.271 OA
ATOM     23  N   UNL     1     -45.219  31.994   4.170  0.00  0.00    -0.304 N 
ATOM     24  C   UNL     1     -44.863  31.182   3.105  0.00  0.00    +0.267 C 
ATOM     25  H   UNL     1     -45.608  31.575   4.970  0.00  0.00    +0.149 HD
BRANCH  23  26
ATOM     26  C   UNL     1     -45.046  33.429   4.159  0.00  0.00    +0.066 C 
BRANCH  26  27
ATOM     27  C   UNL     1     -43.710  33.827   4.769  0.00  0.00    -0.065 C 
BRANCH  27  28
ATOM     28  N   UNL     1     -42.915  34.576   3.803  0.00  0.00    +0.382 N 
ATOM     29  H   UNL     1     -42.118  35.002   4.276  0.00  0.00    -0.089 HD
ATOM     30  H   UNL     1     -43.491  35.306   3.382  0.00  0.00    -0.089 HD
ATOM     31  H   UNL     1     -42.582  33.944   3.076  0.00  0.00    -0.089 HD
ENDBRANCH  27  28
ENDBRANCH  26  27
ENDBRANCH  23  26
ENDBRANCH  21  24
ENDBRANCH  20  21
ENDBRANCH  19  20
ENDBRANCH  11  14
BRANCH   3  32
ATOM     32  C   UNL     1     -39.026  21.766   1.856  0.00  0.00    +0.112 C 
BRANCH  32  33
ATOM     33  C   UNL     1     -38.702  21.767   0.366  0.00  0.00    +0.025 C 
ATOM     34  C   UNL     1     -38.317  20.388  -0.153  0.00  0.00    +0.002 C 
ENDBRANCH  32  33
ENDBRANCH   3  32
BRANCH   4  35
ATOM     35  C   UNL     1     -35.015  23.454   4.245  0.00  0.00    +0.114 C 
BRANCH  35  36
ATOM     36  C   UNL     1     -34.971  23.224   5.750  0.00  0.00    +0.025 C 
ATOM     37  C   UNL     1     -35.260  21.779   6.134  0.00  0.00    +0.002 C 
ENDBRANCH  35  36
ENDBRANCH   4  35
TORSDOF 11
ENDMDL
MODEL 3
REMARK VINA RESULT:      -6.2      6.356     13.951
REMARK  Name = 5697
REMARK  11 active torsions:
REMARK  status: ('A' for Active; 'I' for Inactive)
REMARK    1  A    between atoms: N_3  and  C_32
REMARK    2  A    between atoms: N_4  and  C_35
REMARK    3  A    between atoms: C_11  and  C_14
REMARK    4  A    between atoms: C_19  and  O_20
REMARK    5  A    between atoms: O_20  and  C_21
REMARK    6  A    between atoms: C_21  and  C_24
REMARK    7  A    between atoms: N_23  and  C_26
REMARK    8  A    between atoms: C_26  and  C_27
REMARK    9  A    between atoms: C_27  and  N_28
REMARK   10  A    between atoms: C_32  and  C_33
REMARK   11  A    between atoms: C_35  and  C_36
REMARK                            x       y       z     vdW  Elec       q    Type
REMARK                         _______ _______ _______ _____ _____    ______ ____
ROOT
ATOM      1  O   UNL     1     -36.527  21.484   2.823  0.00  0.00    -0.246 OA
ATOM      2  O   UNL     1     -36.358  25.830   4.592  0.00  0.00    -0.265 OA
ATOM      3  N   UNL     1     -38.392  22.850   2.563  0.00  0.00    -0.269 N 
ATOM      4  N   UNL     1     -36.416  23.647   3.714  0.00  0.00    -0.248 N 
ATOM      5  N   UNL     1     -39.131  26.135   3.532  0.00  0.00    -0.310 N 
ATOM      6  N   UNL     1     -40.204  24.512   2.442  0.00  0.00    -0.301 N 
ATOM      7  C   UNL     1     -38.953  24.096   2.812  0.00  0.00    +0.132 A 
ATOM      8  C   UNL     1     -38.272  25.075   3.483  0.00  0.00    +0.133 A 
ATOM      9  C   UNL     1     -37.078  22.574   3.014  0.00  0.00    +0.335 A 
ATOM     10  C   UNL     1     -36.947  24.934   3.992  0.00  0.00    +0.280 A 
ATOM     11  C   UNL     1     -40.280  25.747   2.892  0.00  0.00    +0.169 C 
ATOM     12  H   UNL     1     -38.959  27.010   3.947  0.00  0.00    +0.149 HD
ATOM     13  H   UNL     1     -40.890  24.003   1.953  0.00  0.00    +0.150 HD
ENDROOT
BRANCH  11  14
ATOM     14  C   UNL     1     -41.414  26.632   2.755  0.00  0.00    +0.015 C 
ATOM     15  C   UNL     1     -42.039  27.146   3.891  0.00  0.00    +0.002 C 
ATOM     16  C   UNL     1     -41.882  26.971   1.486  0.00  0.00    +0.002 C 
ATOM     17  C   UNL     1     -43.132  28.002   3.758  0.00  0.00    +0.037 C 
ATOM     18  C   UNL     1     -42.977  27.826   1.353  0.00  0.00    +0.037 C 
ATOM     19  C   UNL     1     -43.601  28.341   2.489  0.00  0.00    +0.139 C 
BRANCH  19  20
ATOM     20  O   UNL     1     -44.669  29.175   2.359  0.00  0.00    -0.466 OA
BRANCH  20  21
ATOM     21  C   UNL     1     -45.207  29.734   3.556  0.00  0.00    +0.289 C 
BRANCH  21  24
ATOM     22  O   UNL     1     -44.126  31.708   4.421  0.00  0.00    -0.271 OA
ATOM     23  N   UNL     1     -45.676  31.927   2.700  0.00  0.00    -0.304 N 
ATOM     24  C   UNL     1     -44.926  31.220   3.626  0.00  0.00    +0.267 C 
ATOM     25  H   UNL     1     -46.287  31.428   2.112  0.00  0.00    +0.149 HD
BRANCH  23  26
ATOM     26  C   UNL     1     -45.601  33.363   2.555  0.00  0.00    +0.066 C 
BRANCH  26  27
ATOM     27  C   UNL     1     -44.417  33.769   1.690  0.00  0.00    -0.065 C 
BRANCH  27  28
ATOM     28  N   UNL     1     -43.305  34.204   2.525  0.00  0.00    +0.382 N 
ATOM     29  H   UNL     1     -42.466  34.295   1.952  0.00  0.00    -0.089 HD
ATOM     30  H   UNL     1     -43.142  33.515   3.260  0.00  0.00    -0.089 HD
ATOM     31  H   UNL     1     -43.529  35.105   2.946  0.00  0.00    -0.089 HD
ENDBRANCH  27  28
ENDBRANCH  26  27
ENDBRANCH  23  26
ENDBRANCH  21  24
ENDBRANCH  20  21
ENDBRANCH  19  20
ENDBRANCH  11  14
BRANCH   3  32
ATOM     32  C   UNL     1     -39.157  21.840   1.843  0.00  0.00    +0.112 C 
BRANCH  32  33
ATOM     33  C   UNL     1     -38.911  21.886   0.340  0.00  0.00    +0.025 C 
ATOM     34  C   UNL     1     -38.814  20.501  -0.283  0.00  0.00    +0.002 C 
ENDBRANCH  32  33
ENDBRANCH   3  32
BRANCH   4  35
ATOM     35  C   UNL     1     -35.060  23.383   4.185  0.00  0.00    +0.114 C 
BRANCH  35  36
ATOM     36  C   UNL     1     -35.003  23.164   5.692  0.00  0.00    +0.025 C 
ATOM     37  C   UNL     1     -35.218  21.708   6.084  0.00  0.00    +0.002 C 
ENDBRANCH  35  36
ENDBRANCH   4  35
TORSDOF 11
ENDMDL
MODEL 4
REMARK VINA RESULT:      -6.1      5.077     12.930
REMARK  Name = 5697
REMARK  11 active torsions:
REMARK  status: ('A' for Active; 'I' for Inactive)
REMARK    1  A    between atoms: N_3  and  C_32
REMARK    2  A    between atoms: N_4  and  C_35
REMARK    3  A    between atoms: C_11  and  C_14
REMARK    4  A    between atoms: C_19  and  O_20
REMARK    5  A    between atoms: O_20  and  C_21
REMARK    6  A    between atoms: C_21  and  C_24
REMARK    7  A    between atoms: N_23  and  C_26
REMARK    8  A    between atoms: C_26  and  C_27
REMARK    9  A    between atoms: C_27  and  N_28
REMARK   10  A    between atoms: C_32  and  C_33
REMARK   11  A    between atoms: C_35  and  C_36
REMARK                            x       y       z     vdW  Elec       q    Type
REMARK                         _______ _______ _______ _____ _____    ______ ____
ROOT
ATOM      1  O   UNL     1     -34.745  23.014   4.708  0.00  0.00    -0.246 OA
ATOM      2  O   UNL     1     -38.107  21.627   1.738  0.00  0.00    -0.265 OA
ATOM      3  N   UNL     1     -36.549  24.438   4.346  0.00  0.00    -0.269 N 
ATOM      4  N   UNL     1     -36.408  22.297   3.223  0.00  0.00    -0.248 N 
ATOM      5  N   UNL     1     -39.426  24.230   2.359  0.00  0.00    -0.310 N 
ATOM      6  N   UNL     1     -38.564  25.727   3.769  0.00  0.00    -0.301 N 
ATOM      7  C   UNL     1     -37.749  24.631   3.676  0.00  0.00    +0.132 A 
ATOM      8  C   UNL     1     -38.256  23.696   2.815  0.00  0.00    +0.133 A 
ATOM      9  C   UNL     1     -35.820  23.241   4.141  0.00  0.00    +0.335 A 
ATOM     10  C   UNL     1     -37.630  22.449   2.515  0.00  0.00    +0.280 A 
ATOM     11  C   UNL     1     -39.568  25.454   2.961  0.00  0.00    +0.169 C 
ATOM     12  H   UNL     1     -40.049  23.817   1.720  0.00  0.00    +0.149 HD
ATOM     13  H   UNL     1     -38.430  26.536   4.314  0.00  0.00    +0.150 HD
ENDROOT
BRANCH  11  14
ATOM     14  C   UNL     1     -40.707  26.304   2.705  0.00  0.00    +0.015 C 
ATOM     15  C   UNL     1     -41.563  26.657   3.747  0.00  0.00    +0.002 C 
ATOM     16  C   UNL     1     -40.949  26.772   1.413  0.00  0.00    +0.002 C 
ATOM     17  C   UNL     1     -42.661  27.479   3.499  0.00  0.00    +0.037 C 
ATOM     18  C   UNL     1     -42.049  27.595   1.165  0.00  0.00    +0.037 C 
ATOM     19  C   UNL     1     -42.904  27.948   2.208  0.00  0.00    +0.139 C 
BRANCH  19  20
ATOM     20  O   UNL     1     -43.977  28.750   1.965  0.00  0.00    -0.466 OA
BRANCH  20  21
ATOM     21  C   UNL     1     -45.003  28.781   2.956  0.00  0.00    +0.289 C 
BRANCH  21  24
ATOM     22  O   UNL     1     -44.187  30.949   3.623  0.00  0.00    -0.271 OA
ATOM     23  N   UNL     1     -45.284  29.622   5.187  0.00  0.00    -0.304 N 
ATOM     24  C   UNL     1     -44.769  29.913   3.934  0.00  0.00    +0.267 C 
ATOM     25  H   UNL     1     -45.732  28.756   5.321  0.00  0.00    +0.149 HD
BRANCH  23  26
ATOM     26  C   UNL     1     -45.196  30.531   6.307  0.00  0.00    +0.066 C 
BRANCH  26  27
ATOM     27  C   UNL     1     -44.661  29.828   7.546  0.00  0.00    -0.065 C 
BRANCH  27  28
ATOM     28  N   UNL     1     -43.474  30.512   8.044  0.00  0.00    +0.382 N 
ATOM     29  H   UNL     1     -43.676  30.923   8.955  0.00  0.00    -0.089 HD
ATOM     30  H   UNL     1     -43.207  31.249   7.391  0.00  0.00    -0.089 HD
ATOM     31  H   UNL     1     -42.709  29.843   8.133  0.00  0.00    -0.089 HD
ENDBRANCH  27  28
ENDBRANCH  26  27
ENDBRANCH  23  26
ENDBRANCH  21  24
ENDBRANCH  20  21
ENDBRANCH  19  20
ENDBRANCH  11  14
BRANCH   3  32
ATOM     32  C   UNL     1     -36.050  25.465   5.252  0.00  0.00    +0.112 C 
BRANCH  32  33
ATOM     33  C   UNL     1     -34.937  26.300   4.629  0.00  0.00    +0.025 C 
ATOM     34  C   UNL     1     -33.708  26.401   5.520  0.00  0.00    +0.002 C 
ENDBRANCH  32  33
ENDBRANCH   3  32
BRANCH   4  35
ATOM     35  C   UNL     1     -35.673  21.057   2.999  0.00  0.00    +0.114 C 
BRANCH  35  36
ATOM     36  C   UNL     1     -34.893  21.073   1.690  0.00  0.00    +0.025 C 
ATOM     37  C   UNL     1     -34.093  19.797   1.465  0.00  0.00    +0.002 C 
ENDBRANCH  35  36
ENDBRANCH   4  35
TORSDOF 11
ENDMDL
MODEL 5
REMARK VINA RESULT:      -6.0      5.207     13.635
REMARK  Name = 5697
REMARK  11 active torsions:
REMARK  status: ('A' for Active; 'I' for Inactive)
REMARK    1  A    between atoms: N_3  and  C_32
REMARK    2  A    between atoms: N_4  and  C_35
REMARK    3  A    between atoms: C_11  and  C_14
REMARK    4  A    between atoms: C_19  and  O_20
REMARK    5  A    between atoms: O_20  and  C_21
REMARK    6  A    between atoms: C_21  and  C_24
REMARK    7  A    between atoms: N_23  and  C_26
REMARK    8  A    between atoms: C_26  and  C_27
REMARK    9  A    between atoms: C_27  and  N_28
REMARK   10  A    between atoms: C_32  and  C_33
REMARK   11  A    between atoms: C_35  and  C_36
REMARK                            x       y       z     vdW  Elec       q    Type
REMARK                         _______ _______ _______ _____ _____    ______ ____
ROOT
ATOM      1  O   UNL     1     -34.815  23.420   3.554  0.00  0.00    -0.246 OA
ATOM      2  O   UNL     1     -38.858  21.539   2.082  0.00  0.00    -0.265 OA
ATOM      3  N   UNL     1     -36.703  24.778   3.494  0.00  0.00    -0.269 N 
ATOM      4  N   UNL     1     -36.818  22.457   2.817  0.00  0.00    -0.248 N 
ATOM      5  N   UNL     1     -40.037  24.238   2.564  0.00  0.00    -0.310 N 
ATOM      6  N   UNL     1     -38.852  25.966   3.326  0.00  0.00    -0.301 N 
ATOM      7  C   UNL     1     -38.057  24.858   3.200  0.00  0.00    +0.132 A 
ATOM      8  C   UNL     1     -38.761  23.782   2.733  0.00  0.00    +0.133 A 
ATOM      9  C   UNL     1     -36.020  23.551   3.310  0.00  0.00    +0.335 A 
ATOM     10  C   UNL     1     -38.203  22.490   2.502  0.00  0.00    +0.280 A 
ATOM     11  C   UNL     1     -40.041  25.558   2.933  0.00  0.00    +0.169 C 
ATOM     12  H   UNL     1     -40.806  23.719   2.239  0.00  0.00    +0.149 HD
ATOM     13  H   UNL     1     -38.593  26.864   3.637  0.00  0.00    +0.150 HD
ENDROOT
BRANCH  11  14
ATOM     14  C   UNL     1     -41.239  26.363   2.880  0.00  0.00    +0.015 C 
ATOM     15  C   UNL     1     -41.614  27.131   3.981  0.00  0.00    +0.002 C 
ATOM     16  C   UNL     1     -42.021  26.370   1.724  0.00  0.00    +0.002 C 
ATOM     17  C   UNL     1     -42.770  27.909   3.928  0.00  0.00    +0.037 C 
ATOM     18  C   UNL     1     -43.179  27.148   1.672  0.00  0.00    +0.037 C 
ATOM     19  C   UNL     1     -43.553  27.917   2.773  0.00  0.00    +0.139 C 
BRANCH  19  20
ATOM     20  O   UNL     1     -44.682  28.675   2.722  0.00  0.00    -0.466 OA
BRANCH  20  21
ATOM     21  C   UNL     1     -44.947  29.523   3.838  0.00  0.00    +0.289 C 
BRANCH  21  24
ATOM     22  O   UNL     1     -44.592  31.341   2.296  0.00  0.00    -0.271 OA
ATOM     23  N   UNL     1     -45.288  31.814   4.465  0.00  0.00    -0.304 N 
ATOM     24  C   UNL     1     -44.915  30.979   3.425  0.00  0.00    +0.267 C 
ATOM     25  H   UNL     1     -45.528  31.410   5.329  0.00  0.00    +0.149 HD
BRANCH  23  26
ATOM     26  C   UNL     1     -45.342  33.253   4.340  0.00  0.00    +0.066 C 
BRANCH  26  27
ATOM     27  C   UNL     1     -43.960  33.872   4.495  0.00  0.00    -0.065 C 
BRANCH  27  28
ATOM     28  N   UNL     1     -43.425  34.248   3.192  0.00  0.00    +0.382 N 
ATOM     29  H   UNL     1     -44.112  34.812   2.693  0.00  0.00    -0.089 HD
ATOM     30  H   UNL     1     -43.219  33.407   2.654  0.00  0.00    -0.089 HD
ATOM     31  H   UNL     1     -42.569  34.788   3.321  0.00  0.00    -0.089 HD
ENDBRANCH  27  28
ENDBRANCH  26  27
ENDBRANCH  23  26
ENDBRANCH  21  24
ENDBRANCH  20  21
ENDBRANCH  19  20
ENDBRANCH  11  14
BRANCH   3  32
ATOM     32  C   UNL     1     -35.996  25.953   3.989  0.00  0.00    +0.112 C 
BRANCH  32  33
ATOM     33  C   UNL     1     -35.838  25.940   5.505  0.00  0.00    +0.025 C 
ATOM     34  C   UNL     1     -34.382  26.000   5.945  0.00  0.00    +0.002 C 
ENDBRANCH  32  33
ENDBRANCH   3  32
BRANCH   4  35
ATOM     35  C   UNL     1     -36.134  21.183   2.621  0.00  0.00    +0.114 C 
BRANCH  35  36
ATOM     36  C   UNL     1     -35.488  21.077   1.245  0.00  0.00    +0.025 C 
ATOM     37  C   UNL     1     -34.949  19.683   0.953  0.00  0.00    +0.002 C 
ENDBRANCH  35  36
ENDBRANCH   4  35
TORSDOF 11
ENDMDL
MODEL 6
REMARK VINA RESULT:      -6.0      3.325      9.961
REMARK  Name = 5697
REMARK  11 active torsions:
REMARK  status: ('A' for Active; 'I' for Inactive)
REMARK    1  A    between atoms: N_3  and  C_32
REMARK    2  A    between atoms: N_4  and  C_35
REMARK    3  A    between atoms: C_11  and  C_14
REMARK    4  A    between atoms: C_19  and  O_20
REMARK    5  A    between atoms: O_20  and  C_21
REMARK    6  A    between atoms: C_21  and  C_24
REMARK    7  A    between atoms: N_23  and  C_26
REMARK    8  A    between atoms: C_26  and  C_27
REMARK    9  A    between atoms: C_27  and  N_28
REMARK   10  A    between atoms: C_32  and  C_33
REMARK   11  A    between atoms: C_35  and  C_36
REMARK                            x       y       z     vdW  Elec       q    Type
REMARK                         _______ _______ _______ _____ _____    ______ ____
ROOT
ATOM      1  O   UNL     1     -33.422  16.240  -0.820  0.00  0.00    -0.246 OA
ATOM      2  O   UNL     1     -37.549  18.462  -1.088  0.00  0.00    -0.265 OA
ATOM      3  N   UNL     1     -33.765  18.092   0.546  0.00  0.00    -0.269 N 
ATOM      4  N   UNL     1     -35.490  17.329  -0.973  0.00  0.00    -0.248 N 
ATOM      5  N   UNL     1     -36.453  20.293   0.998  0.00  0.00    -0.310 N 
ATOM      6  N   UNL     1     -34.409  20.070   1.861  0.00  0.00    -0.301 N 
ATOM      7  C   UNL     1     -34.645  19.095   0.929  0.00  0.00    +0.132 A 
ATOM      8  C   UNL     1     -35.894  19.209   0.383  0.00  0.00    +0.133 A 
ATOM      9  C   UNL     1     -34.162  17.153  -0.438  0.00  0.00    +0.335 A 
ATOM     10  C   UNL     1     -36.424  18.337  -0.614  0.00  0.00    +0.280 A 
ATOM     11  C   UNL     1     -35.521  20.777   1.879  0.00  0.00    +0.169 C 
ATOM     12  H   UNL     1     -37.353  20.657   0.839  0.00  0.00    +0.149 HD
ATOM     13  H   UNL     1     -33.594  20.211   2.396  0.00  0.00    +0.150 HD
ENDROOT
BRANCH  11  14
ATOM     14  C   UNL     1     -35.779  21.931   2.707  0.00  0.00    +0.015 C 
ATOM     15  C   UNL     1     -36.369  23.068   2.155  0.00  0.00    +0.002 C 
ATOM     16  C   UNL     1     -35.439  21.908   4.059  0.00  0.00    +0.002 C 
ATOM     17  C   UNL     1     -36.620  24.181   2.956  0.00  0.00    +0.037 C 
ATOM     18  C   UNL     1     -35.689  23.022   4.861  0.00  0.00    +0.037 C 
ATOM     19  C   UNL     1     -36.279  24.159   4.309  0.00  0.00    +0.139 C 
BRANCH  19  20
ATOM     20  O   UNL     1     -36.523  25.246   5.090  0.00  0.00    -0.466 OA
BRANCH  20  21
ATOM     21  C   UNL     1     -35.394  25.896   5.671  0.00  0.00    +0.289 C 
BRANCH  21  24
ATOM     22  O   UNL     1     -33.348  26.101   4.413  0.00  0.00    -0.271 OA
ATOM     23  N   UNL     1     -35.149  27.472   3.877  0.00  0.00    -0.304 N 
ATOM     24  C   UNL     1     -34.502  26.481   4.597  0.00  0.00    +0.267 C 
ATOM     25  H   UNL     1     -36.078  27.694   4.115  0.00  0.00    +0.149 HD
BRANCH  23  26
ATOM     26  C   UNL     1     -34.524  28.197   2.794  0.00  0.00    +0.066 C 
BRANCH  26  27
ATOM     27  C   UNL     1     -35.298  29.463   2.459  0.00  0.00    -0.065 C 
BRANCH  27  28
ATOM     28  N   UNL     1     -35.269  30.387   3.586  0.00  0.00    +0.382 N 
ATOM     29  H   UNL     1     -36.200  30.779   3.728  0.00  0.00    -0.089 HD
ATOM     30  H   UNL     1     -34.609  31.141   3.391  0.00  0.00    -0.089 HD
ATOM     31  H   UNL     1     -34.977  29.888   4.426  0.00  0.00    -0.089 HD
ENDBRANCH  27  28
ENDBRANCH  26  27
ENDBRANCH  23  26
ENDBRANCH  21  24
ENDBRANCH  20  21
ENDBRANCH  19  20
ENDBRANCH  11  14
BRANCH   3  32
ATOM     32  C   UNL     1     -32.444  18.012   1.157  0.00  0.00    +0.112 C 
BRANCH  32  33
ATOM     33  C   UNL     1     -31.411  18.858   0.421  0.00  0.00    +0.025 C 
ATOM     34  C   UNL     1     -30.030  18.218   0.407  0.00  0.00    +0.002 C 
ENDBRANCH  32  33
ENDBRANCH   3  32
BRANCH   4  35
ATOM     35  C   UNL     1     -35.919  16.371  -1.987  0.00  0.00    +0.114 C 
BRANCH  35  36
ATOM     36  C   UNL     1     -36.556  15.128  -1.378  0.00  0.00    +0.025 C 
ATOM     37  C   UNL     1     -35.908  13.838  -1.861  0.00  0.00    +0.002 C 
ENDBRANCH  35  36
ENDBRANCH   4  35
TORSDOF 11
ENDMDL
MODEL 7
REMARK VINA RESULT:      -6.0      6.969     13.870
REMARK  Name = 5697
REMARK  11 active torsions:
REMARK  status: ('A' for Active; 'I' for Inactive)
REMARK    1  A    between atoms: N_3  and  C_32
REMARK    2  A    between atoms: N_4  and  C_35
REMARK    3  A    between atoms: C_11  and  C_14
REMARK    4  A    between atoms: C_19  and  O_20
REMARK    5  A    between atoms: O_20  and  C_21
REMARK    6  A    between atoms: C_21  and  C_24
REMARK    7  A    between atoms: N_23  and  C_26
REMARK    8  A    between atoms: C_26  and  C_27
REMARK    9  A    between atoms: C_27  and  N_28
REMARK   10  A    between atoms: C_32  and  C_33
REMARK   11  A    between atoms: C_35  and  C_36
REMARK                            x       y       z     vdW  Elec       q    Type
REMARK                         _______ _______ _______ _____ _____    ______ ____
ROOT
ATOM      1  O   UNL     1     -37.322  22.970   3.420  0.00  0.00    -0.246 OA
ATOM      2  O   UNL     1     -33.543  25.692   4.018  0.00  0.00    -0.265 OA
ATOM      3  N   UNL     1     -37.389  25.143   2.590  0.00  0.00    -0.269 N 
ATOM      4  N   UNL     1     -35.424  24.306   3.731  0.00  0.00    -0.248 N 
ATOM      5  N   UNL     1     -35.100  27.794   2.583  0.00  0.00    -0.310 N 
ATOM      6  N   UNL     1     -37.171  27.471   1.824  0.00  0.00    -0.301 N 
ATOM      7  C   UNL     1     -36.704  26.341   2.439  0.00  0.00    +0.132 A 
ATOM      8  C   UNL     1     -35.433  26.513   2.915  0.00  0.00    +0.133 A 
ATOM      9  C   UNL     1     -36.762  24.060   3.255  0.00  0.00    +0.335 A 
ATOM     10  C   UNL     1     -34.684  25.511   3.601  0.00  0.00    +0.280 A 
ATOM     11  C   UNL     1     -36.178  28.331   1.928  0.00  0.00    +0.169 C 
ATOM     12  H   UNL     1     -34.248  28.247   2.777  0.00  0.00    +0.149 HD
ATOM     13  H   UNL     1     -38.049  27.611   1.401  0.00  0.00    +0.150 HD
ENDROOT
BRANCH  11  14
ATOM     14  C   UNL     1     -36.173  29.686   1.430  0.00  0.00    +0.015 C 
ATOM     15  C   UNL     1     -36.588  29.952   0.126  0.00  0.00    +0.002 C 
ATOM     16  C   UNL     1     -35.753  30.729   2.255  0.00  0.00    +0.002 C 
ATOM     17  C   UNL     1     -36.584  31.261  -0.354  0.00  0.00    +0.037 C 
ATOM     18  C   UNL     1     -35.749  32.039   1.775  0.00  0.00    +0.037 C 
ATOM     19  C   UNL     1     -36.164  32.305   0.470  0.00  0.00    +0.139 C 
BRANCH  19  20
ATOM     20  O   UNL     1     -36.160  33.583   0.002  0.00  0.00    -0.466 OA
BRANCH  20  21
ATOM     21  C   UNL     1     -36.493  34.616   0.928  0.00  0.00    +0.289 C 
BRANCH  21  24
ATOM     22  O   UNL     1     -38.384  35.670  -0.132  0.00  0.00    -0.271 OA
ATOM     23  N   UNL     1     -38.704  34.501   1.853  0.00  0.00    -0.304 N 
ATOM     24  C   UNL     1     -37.952  34.998   0.801  0.00  0.00    +0.267 C 
ATOM     25  H   UNL     1     -38.249  33.973   2.547  0.00  0.00    +0.149 HD
BRANCH  23  26
ATOM     26  C   UNL     1     -40.127  34.721   1.979  0.00  0.00    +0.066 C 
BRANCH  26  27
ATOM     27  C   UNL     1     -40.423  35.914   2.876  0.00  0.00    -0.065 C 
BRANCH  27  28
ATOM     28  N   UNL     1     -41.547  35.619   3.756  0.00  0.00    +0.382 N 
ATOM     29  H   UNL     1     -42.251  35.091   3.242  0.00  0.00    -0.089 HD
ATOM     30  H   UNL     1     -41.954  36.493   4.091  0.00  0.00    -0.089 HD
ATOM     31  H   UNL     1     -41.220  35.069   4.550  0.00  0.00    -0.089 HD
ENDBRANCH  27  28
ENDBRANCH  26  27
ENDBRANCH  23  26
ENDBRANCH  21  24
ENDBRANCH  20  21
ENDBRANCH  19  20
ENDBRANCH  11  14
BRANCH   3  32
ATOM     32  C   UNL     1     -38.742  25.008   2.066  0.00  0.00    +0.112 C 
BRANCH  32  33
ATOM     33  C   UNL     1     -39.805  25.286   3.123  0.00  0.00    +0.025 C 
ATOM     34  C   UNL     1     -40.870  26.262   2.644  0.00  0.00    +0.002 C 
ENDBRANCH  32  33
ENDBRANCH   3  32
BRANCH   4  35
ATOM     35  C   UNL     1     -34.760  23.202   4.418  0.00  0.00    +0.114 C 
BRANCH  35  36
ATOM     36  C   UNL     1     -35.071  23.176   5.909  0.00  0.00    +0.025 C 
ATOM     37  C   UNL     1     -35.474  21.793   6.402  0.00  0.00    +0.002 C 
ENDBRANCH  35  36
ENDBRANCH   4  35
TORSDOF 11
ENDMDL
MODEL 8
REMARK VINA RESULT:      -5.9      3.090     10.398
REMARK  Name = 5697
REMARK  11 active torsions:
REMARK  status: ('A' for Active; 'I' for Inactive)
REMARK    1  A    between atoms: N_3  and  C_32
REMARK    2  A    between atoms: N_4  and  C_35
REMARK    3  A    between atoms: C_11  and  C_14
REMARK    4  A    between atoms: C_19  and  O_20
REMARK    5  A    between atoms: O_20  and  C_21
REMARK    6  A    between atoms: C_21  and  C_24
REMARK    7  A    between atoms: N_23  and  C_26
REMARK    8  A    between atoms: C_26  and  C_27
REMARK    9  A    between atoms: C_27  and  N_28
REMARK   10  A    between atoms: C_32  and  C_33
REMARK   11  A    between atoms: C_35  and  C_36
REMARK                            x       y       z     vdW  Elec       q    Type
REMARK                         _______ _______ _______ _____ _____    ______ ____
ROOT
ATOM      1  O   UNL     1     -34.791  15.814  -1.524  0.00  0.00    -0.246 OA
ATOM      2  O   UNL     1     -31.865  17.806   1.561  0.00  0.00    -0.265 OA
ATOM      3  N   UNL     1     -35.491  17.746  -0.433  0.00  0.00    -0.269 N 
ATOM      4  N   UNL     1     -33.312  16.787   0.009  0.00  0.00    -0.248 N 
ATOM      5  N   UNL     1     -34.012  19.841   1.954  0.00  0.00    -0.310 N 
ATOM      6  N   UNL     1     -35.957  19.784   0.866  0.00  0.00    -0.301 N 
ATOM      7  C   UNL     1     -35.167  18.731   0.490  0.00  0.00    +0.132 A 
ATOM      8  C   UNL     1     -33.966  18.742   1.145  0.00  0.00    +0.133 A 
ATOM      9  C   UNL     1     -34.558  16.718  -0.713  0.00  0.00    +0.335 A 
ATOM     10  C   UNL     1     -32.936  17.772   0.960  0.00  0.00    +0.280 A 
ATOM     11  C   UNL     1     -35.231  20.435   1.751  0.00  0.00    +0.169 C 
ATOM     12  H   UNL     1     -33.306  20.147   2.566  0.00  0.00    +0.149 HD
ATOM     13  H   UNL     1     -36.863  20.004   0.548  0.00  0.00    +0.150 HD
ENDROOT
BRANCH  11  14
ATOM     14  C   UNL     1     -35.622  21.635   2.453  0.00  0.00    +0.015 C 
ATOM     15  C   UNL     1     -35.520  21.696   3.842  0.00  0.00    +0.002 C 
ATOM     16  C   UNL     1     -36.101  22.733   1.739  0.00  0.00    +0.002 C 
ATOM     17  C   UNL     1     -35.896  22.856   4.518  0.00  0.00    +0.037 C 
ATOM     18  C   UNL     1     -36.479  23.894   2.416  0.00  0.00    +0.037 C 
ATOM     19  C   UNL     1     -36.376  23.955   3.805  0.00  0.00    +0.139 C 
BRANCH  19  20
ATOM     20  O   UNL     1     -36.744  25.086   4.466  0.00  0.00    -0.466 OA
BRANCH  20  21
ATOM     21  C   UNL     1     -35.808  25.631   5.394  0.00  0.00    +0.289 C 
BRANCH  21  24
ATOM     22  O   UNL     1     -33.514  25.874   4.696  0.00  0.00    -0.271 OA
ATOM     23  N   UNL     1     -35.084  27.438   3.990  0.00  0.00    -0.304 N 
ATOM     24  C   UNL     1     -34.664  26.305   4.667  0.00  0.00    +0.267 C 
ATOM     25  H   UNL     1     -36.034  27.688   4.038  0.00  0.00    +0.149 HD
BRANCH  23  26
ATOM     26  C   UNL     1     -34.192  28.270   3.215  0.00  0.00    +0.066 C 
BRANCH  26  27
ATOM     27  C   UNL     1     -34.951  29.383   2.508  0.00  0.00    -0.065 C 
BRANCH  27  28
ATOM     28  N   UNL     1     -35.409  30.376   3.473  0.00  0.00    +0.382 N 
ATOM     29  H   UNL     1     -36.403  30.554   3.332  0.00  0.00    -0.089 HD
ATOM     30  H   UNL     1     -34.886  31.243   3.343  0.00  0.00    -0.089 HD
ATOM     31  H   UNL     1     -35.255  30.026   4.418  0.00  0.00    -0.089 HD
ENDBRANCH  27  28
ENDBRANCH  26  27
ENDBRANCH  23  26
ENDBRANCH  21  24
ENDBRANCH  20  21
ENDBRANCH  19  20
ENDBRANCH  11  14
BRANCH   3  32
ATOM     32  C   UNL     1     -36.785  17.777  -1.104  0.00  0.00    +0.112 C 
BRANCH  32  33
ATOM     33  C   UNL     1     -37.862  17.034  -0.324  0.00  0.00    +0.025 C 
ATOM     34  C   UNL     1     -39.002  16.549  -1.209  0.00  0.00    +0.002 C 
ENDBRANCH  32  33
ENDBRANCH   3  32
BRANCH   4  35
ATOM     35  C   UNL     1     -32.336  15.738  -0.267  0.00  0.00    +0.114 C 
BRANCH  35  36
ATOM     36  C   UNL     1     -31.379  16.117  -1.390  0.00  0.00    +0.025 C 
ATOM     37  C   UNL     1     -31.366  15.098  -2.521  0.00  0.00    +0.002 C 
ENDBRANCH  35  36
ENDBRANCH   4  35
TORSDOF 11
ENDMDL
MODEL 9
REMARK VINA RESULT:      -5.9      3.613      9.673
REMARK  Name = 5697
REMARK  11 active torsions:
REMARK  status: ('A' for Active; 'I' for Inactive)
REMARK    1  A    between atoms: N_3  and  C_32
REMARK    2  A    between atoms: N_4  and  C_35
REMARK    3  A    between atoms: C_11  and  C_14
REMARK    4  A    between atoms: C_19  and  O_20
REMARK    5  A    between atoms: O_20  and  C_21
REMARK    6  A    between atoms: C_21  and  C_24
REMARK    7  A    between atoms: N_23  and  C_26
REMARK    8  A    between atoms: C_26  and  C_27
REMARK    9  A    between atoms: C_27  and  N_28
REMARK   10  A    between atoms: C_32  and  C_33
REMARK   11  A    between atoms: C_35  and  C_36
REMARK                            x       y       z     vdW  Elec       q    Type
REMARK                         _______ _______ _______ _____ _____    ______ ____
ROOT
ATOM      1  O   UNL     1     -34.842  16.720  -2.011  0.00  0.00    -0.246 OA
ATOM      2  O   UNL     1     -38.737  18.684  -0.277  0.00  0.00    -0.265 OA
ATOM      3  N   UNL     1     -34.611  18.386  -0.405  0.00  0.00    -0.269 N 
ATOM      4  N   UNL     1     -36.800  17.682  -1.162  0.00  0.00    -0.248 N 
ATOM      5  N   UNL     1     -36.898  20.345   1.386  0.00  0.00    -0.310 N 
ATOM      6  N   UNL     1     -34.677  20.163   1.297  0.00  0.00    -0.301 N 
ATOM      7  C   UNL     1     -35.266  19.282   0.430  0.00  0.00    +0.132 A 
ATOM      8  C   UNL     1     -36.631  19.374   0.465  0.00  0.00    +0.133 A 
ATOM      9  C   UNL     1     -35.368  17.536  -1.247  0.00  0.00    +0.335 A 
ATOM     10  C   UNL     1     -37.514  18.582  -0.328  0.00  0.00    +0.280 A 
ATOM     11  C   UNL     1     -35.690  20.790   1.859  0.00  0.00    +0.169 C 
ATOM     12  H   UNL     1     -37.787  20.665   1.659  0.00  0.00    +0.149 HD
ATOM     13  H   UNL     1     -33.716  20.299   1.462  0.00  0.00    +0.150 HD
ENDROOT
BRANCH  11  14
ATOM     14  C   UNL     1     -35.597  21.829   2.858  0.00  0.00    +0.015 C 
ATOM     15  C   UNL     1     -35.417  21.492   4.199  0.00  0.00    +0.002 C 
ATOM     16  C   UNL     1     -35.688  23.168   2.480  0.00  0.00    +0.002 C 
ATOM     17  C   UNL     1     -35.325  22.495   5.163  0.00  0.00    +0.037 C 
ATOM     18  C   UNL     1     -35.597  24.172   3.445  0.00  0.00    +0.037 C 
ATOM     19  C   UNL     1     -35.415  23.835   4.786  0.00  0.00    +0.139 C 
BRANCH  19  20
ATOM     20  O   UNL     1     -35.327  24.815   5.727  0.00  0.00    -0.466 OA
BRANCH  20  21
ATOM     21  C   UNL     1     -35.119  26.147   5.262  0.00  0.00    +0.289 C 
BRANCH  21  24
ATOM     22  O   UNL     1     -33.136  26.240   6.629  0.00  0.00    -0.271 OA
ATOM     23  N   UNL     1     -33.255  27.556   4.715  0.00  0.00    -0.304 N 
ATOM     24  C   UNL     1     -33.734  26.634   5.631  0.00  0.00    +0.267 C 
ATOM     25  H   UNL     1     -33.825  27.798   3.950  0.00  0.00    +0.149 HD
BRANCH  23  26
ATOM     26  C   UNL     1     -31.957  28.181   4.830  0.00  0.00    +0.066 C 
BRANCH  26  27
ATOM     27  C   UNL     1     -32.009  29.394   5.748  0.00  0.00    -0.065 C 
BRANCH  27  28
ATOM     28  N   UNL     1     -31.614  29.022   7.101  0.00  0.00    +0.382 N 
ATOM     29  H   UNL     1     -32.380  29.217   7.745  0.00  0.00    -0.089 HD
ATOM     30  H   UNL     1     -30.793  29.562   7.376  0.00  0.00    -0.089 HD
ATOM     31  H   UNL     1     -31.390  28.027   7.128  0.00  0.00    -0.089 HD
ENDBRANCH  27  28
ENDBRANCH  26  27
ENDBRANCH  23  26
ENDBRANCH  21  24
ENDBRANCH  20  21
ENDBRANCH  19  20
ENDBRANCH  11  14
BRANCH   3  32
ATOM     32  C   UNL     1     -33.155  18.326  -0.406  0.00  0.00    +0.112 C 
BRANCH  32  33
ATOM     33  C   UNL     1     -32.605  17.524   0.767  0.00  0.00    +0.025 C 
ATOM     34  C   UNL     1     -31.166  17.889   1.107  0.00  0.00    +0.002 C 
ENDBRANCH  32  33
ENDBRANCH   3  32
BRANCH   4  35
ATOM     35  C   UNL     1     -37.599  16.814  -2.022  0.00  0.00    +0.114 C 
BRANCH  35  36
ATOM     36  C   UNL     1     -37.882  15.462  -1.379  0.00  0.00    +0.025 C 
ATOM     37  C   UNL     1     -39.314  15.337  -0.877  0.00  0.00    +0.002 C 
ENDBRANCH  35  36
ENDBRANCH   4  35
TORSDOF 11
ENDMDL
