MODEL 1
REMARK VINA RESULT:      -5.8      0.000      0.000
REMARK  Name = 53720324
REMARK  13 active torsions:
REMARK  status: ('A' for Active; 'I' for Inactive)
REMARK    1  A    between atoms: C_2  and  O_7
REMARK    2  A    between atoms: C_3  and  O_9
REMARK    3  A    between atoms: C_4  and  O_11
REMARK    4  A    between atoms: C_5  and  C_22
REMARK    5  A    between atoms: C_6  and  S_13
REMARK    6  A    between atoms: S_13  and  C_14
REMARK    7  A    between atoms: C_14  and  C_15
REMARK    8  A    between atoms: C_15  and  C_16
REMARK    9  A    between atoms: C_16  and  C_17
REMARK   10  A    between atoms: C_17  and  C_18
REMARK   11  A    between atoms: C_18  and  C_19
REMARK   12  A    between atoms: C_19  and  C_20
REMARK   13  A    between atoms: C_22  and  O_23
REMARK                            x       y       z     vdW  Elec       q    Type
REMARK                         _______ _______ _______ _____ _____    ______ ____
ROOT
ATOM      1  O   UNL     1     -36.559  22.708   4.347  0.00  0.00    -0.340 OA
ATOM      2  C   UNL     1     -35.871  25.489   4.171  0.00  0.00    +0.170 C 
ATOM      3  C   UNL     1     -35.523  24.653   5.407  0.00  0.00    +0.169 C 
ATOM      4  C   UNL     1     -37.074  24.895   3.429  0.00  0.00    +0.177 C 
ATOM      5  C   UNL     1     -35.389  23.171   5.028  0.00  0.00    +0.175 C 
ATOM      6  C   UNL     1     -36.804  23.417   3.128  0.00  0.00    +0.192 C 
ENDROOT
BRANCH   2   7
ATOM      7  O   UNL     1     -36.179  26.828   4.548  0.00  0.00    -0.379 OA
ATOM      8  H   UNL     1     -35.418  27.399   4.364  0.00  0.00    +0.211 HD
ENDBRANCH   2   7
BRANCH   3   9
ATOM      9  O   UNL     1     -34.287  25.102   5.955  0.00  0.00    -0.379 OA
ATOM     10  H   UNL     1     -34.012  24.501   6.666  0.00  0.00    +0.211 HD
ENDBRANCH   3   9
BRANCH   4  11
ATOM     11  O   UNL     1     -38.233  25.001   4.261  0.00  0.00    -0.379 OA
ATOM     12  H   UNL     1     -38.249  24.263   4.889  0.00  0.00    +0.211 HD
ENDBRANCH   4  11
BRANCH   6  13
ATOM     13  S   UNL     1     -38.198  22.667   2.220  0.00  0.00    -0.110 S 
BRANCH  13  14
ATOM     14  C   UNL     1     -37.385  21.123   1.719  0.00  0.00    +0.060 C 
BRANCH  14  15
ATOM     15  C   UNL     1     -35.897  21.356   1.476  0.00  0.00    +0.012 C 
BRANCH  15  16
ATOM     16  C   UNL     1     -35.051  20.340   2.249  0.00  0.00    +0.001 C 
BRANCH  16  17
ATOM     17  C   UNL     1     -34.216  19.477   1.299  0.00  0.00    +0.000 C 
BRANCH  17  18
ATOM     18  C   UNL     1     -33.256  20.288   0.425  0.00  0.00    +0.000 C 
BRANCH  18  19
ATOM     19  C   UNL     1     -31.827  19.741   0.421  0.00  0.00    +0.000 C 
BRANCH  19  20
ATOM     20  C   UNL     1     -31.770  18.337   1.021  0.00  0.00    +0.000 C 
ATOM     21  C   UNL     1     -30.405  17.696   0.815  0.00  0.00    +0.000 C 
ENDBRANCH  19  20
ENDBRANCH  18  19
ENDBRANCH  17  18
ENDBRANCH  16  17
ENDBRANCH  15  16
ENDBRANCH  14  15
ENDBRANCH  13  14
ENDBRANCH   6  13
BRANCH   5  22
ATOM     22  C   UNL     1     -35.200  22.292   6.261  0.00  0.00    +0.169 C 
BRANCH  22  23
ATOM     23  O   UNL     1     -35.446  20.946   5.897  0.00  0.00    -0.379 OA
ATOM     24  H   UNL     1     -35.023  20.760   5.045  0.00  0.00    +0.211 HD
ENDBRANCH  22  23
ENDBRANCH   5  22
TORSDOF 13
ENDMDL
MODEL 2
REMARK VINA RESULT:      -5.6      0.677      1.138
REMARK  Name = 53720324
REMARK  13 active torsions:
REMARK  status: ('A' for Active; 'I' for Inactive)
REMARK    1  A    between atoms: C_2  and  O_7
REMARK    2  A    between atoms: C_3  and  O_9
REMARK    3  A    between atoms: C_4  and  O_11
REMARK    4  A    between atoms: C_5  and  C_22
REMARK    5  A    between atoms: C_6  and  S_13
REMARK    6  A    between atoms: S_13  and  C_14
REMARK    7  A    between atoms: C_14  and  C_15
REMARK    8  A    between atoms: C_15  and  C_16
REMARK    9  A    between atoms: C_16  and  C_17
REMARK   10  A    between atoms: C_17  and  C_18
REMARK   11  A    between atoms: C_18  and  C_19
REMARK   12  A    between atoms: C_19  and  C_20
REMARK   13  A    between atoms: C_22  and  O_23
REMARK                            x       y       z     vdW  Elec       q    Type
REMARK                         _______ _______ _______ _____ _____    ______ ____
ROOT
ATOM      1  O   UNL     1     -36.683  22.660   4.204  0.00  0.00    -0.340 OA
ATOM      2  C   UNL     1     -36.028  25.454   4.259  0.00  0.00    +0.170 C 
ATOM      3  C   UNL     1     -35.684  24.526   5.429  0.00  0.00    +0.169 C 
ATOM      4  C   UNL     1     -37.215  24.908   3.458  0.00  0.00    +0.177 C 
ATOM      5  C   UNL     1     -35.527  23.081   4.934  0.00  0.00    +0.175 C 
ATOM      6  C   UNL     1     -36.924  23.461   3.043  0.00  0.00    +0.192 C 
ENDROOT
BRANCH   2   7
ATOM      7  O   UNL     1     -36.357  26.755   4.738  0.00  0.00    -0.379 OA
ATOM      8  H   UNL     1     -36.980  27.177   4.126  0.00  0.00    +0.211 HD
ENDBRANCH   2   7
BRANCH   3   9
ATOM      9  O   UNL     1     -34.459  24.944   6.025  0.00  0.00    -0.379 OA
ATOM     10  H   UNL     1     -34.193  24.301   6.702  0.00  0.00    +0.211 HD
ENDBRANCH   3   9
BRANCH   4  11
ATOM     11  O   UNL     1     -38.385  24.934   4.282  0.00  0.00    -0.379 OA
ATOM     12  H   UNL     1     -38.690  25.849   4.381  0.00  0.00    +0.211 HD
ENDBRANCH   4  11
BRANCH   6  13
ATOM     13  S   UNL     1     -38.298  22.770   2.062  0.00  0.00    -0.110 S 
BRANCH  13  14
ATOM     14  C   UNL     1     -37.322  22.043   0.716  0.00  0.00    +0.060 C 
BRANCH  14  15
ATOM     15  C   UNL     1     -37.699  20.579   0.511  0.00  0.00    +0.012 C 
BRANCH  15  16
ATOM     16  C   UNL     1     -36.495  19.664   0.758  0.00  0.00    +0.001 C 
BRANCH  16  17
ATOM     17  C   UNL     1     -35.650  20.164   1.932  0.00  0.00    +0.000 C 
BRANCH  17  18
ATOM     18  C   UNL     1     -34.185  19.727   1.858  0.00  0.00    +0.000 C 
BRANCH  18  19
ATOM     19  C   UNL     1     -33.487  20.150   0.563  0.00  0.00    +0.000 C 
BRANCH  19  20
ATOM     20  C   UNL     1     -32.059  19.608   0.501  0.00  0.00    +0.000 C 
ATOM     21  C   UNL     1     -31.960  18.224   1.125  0.00  0.00    +0.000 C 
ENDBRANCH  19  20
ENDBRANCH  18  19
ENDBRANCH  17  18
ENDBRANCH  16  17
ENDBRANCH  15  16
ENDBRANCH  14  15
ENDBRANCH  13  14
ENDBRANCH   6  13
BRANCH   5  22
ATOM     22  C   UNL     1     -35.340  22.108   6.096  0.00  0.00    +0.169 C 
BRANCH  22  23
ATOM     23  O   UNL     1     -35.277  20.793   5.576  0.00  0.00    -0.379 OA
ATOM     24  H   UNL     1     -35.259  20.158   6.308  0.00  0.00    +0.211 HD
ENDBRANCH  22  23
ENDBRANCH   5  22
TORSDOF 13
ENDMDL
MODEL 3
REMARK VINA RESULT:      -5.3      1.225      1.889
REMARK  Name = 53720324
REMARK  13 active torsions:
REMARK  status: ('A' for Active; 'I' for Inactive)
REMARK    1  A    between atoms: C_2  and  O_7
REMARK    2  A    between atoms: C_3  and  O_9
REMARK    3  A    between atoms: C_4  and  O_11
REMARK    4  A    between atoms: C_5  and  C_22
REMARK    5  A    between atoms: C_6  and  S_13
REMARK    6  A    between atoms: S_13  and  C_14
REMARK    7  A    between atoms: C_14  and  C_15
REMARK    8  A    between atoms: C_15  and  C_16
REMARK    9  A    between atoms: C_16  and  C_17
REMARK   10  A    between atoms: C_17  and  C_18
REMARK   11  A    between atoms: C_18  and  C_19
REMARK   12  A    between atoms: C_19  and  C_20
REMARK   13  A    between atoms: C_22  and  O_23
REMARK                            x       y       z     vdW  Elec       q    Type
REMARK                         _______ _______ _______ _____ _____    ______ ____
ROOT
ATOM      1  O   UNL     1     -36.532  22.649   4.327  0.00  0.00    -0.340 OA
ATOM      2  C   UNL     1     -35.916  25.449   4.198  0.00  0.00    +0.170 C 
ATOM      3  C   UNL     1     -35.561  24.606   5.427  0.00  0.00    +0.169 C 
ATOM      4  C   UNL     1     -37.093  24.835   3.433  0.00  0.00    +0.177 C 
ATOM      5  C   UNL     1     -35.383  23.134   5.029  0.00  0.00    +0.175 C 
ATOM      6  C   UNL     1     -36.782  23.368   3.115  0.00  0.00    +0.192 C 
ENDROOT
BRANCH   2   7
ATOM      7  O   UNL     1     -36.264  26.774   4.589  0.00  0.00    -0.379 OA
ATOM      8  H   UNL     1     -36.361  27.330   3.801  0.00  0.00    +0.211 HD
ENDBRANCH   2   7
BRANCH   3   9
ATOM      9  O   UNL     1     -34.343  25.079   5.996  0.00  0.00    -0.379 OA
ATOM     10  H   UNL     1     -33.812  25.511   5.309  0.00  0.00    +0.211 HD
ENDBRANCH   3   9
BRANCH   4  11
ATOM     11  O   UNL     1     -38.265  24.899   4.252  0.00  0.00    -0.379 OA
ATOM     12  H   UNL     1     -38.030  25.248   5.126  0.00  0.00    +0.211 HD
ENDBRANCH   4  11
BRANCH   6  13
ATOM     13  S   UNL     1     -38.144  22.595   2.180  0.00  0.00    -0.110 S 
BRANCH  13  14
ATOM     14  C   UNL     1     -37.332  21.020   1.786  0.00  0.00    +0.060 C 
BRANCH  14  15
ATOM     15  C   UNL     1     -35.872  21.250   1.409  0.00  0.00    +0.012 C 
BRANCH  15  16
ATOM     16  C   UNL     1     -34.963  20.217   2.082  0.00  0.00    +0.001 C 
BRANCH  16  17
ATOM     17  C   UNL     1     -33.779  19.851   1.184  0.00  0.00    +0.000 C 
BRANCH  17  18
ATOM     18  C   UNL     1     -34.190  19.117  -0.096  0.00  0.00    +0.000 C 
BRANCH  18  19
ATOM     19  C   UNL     1     -34.175  17.593   0.044  0.00  0.00    +0.000 C 
BRANCH  19  20
ATOM     20  C   UNL     1     -35.457  16.975  -0.514  0.00  0.00    +0.000 C 
ATOM     21  C   UNL     1     -36.616  17.958  -0.472  0.00  0.00    +0.000 C 
ENDBRANCH  19  20
ENDBRANCH  18  19
ENDBRANCH  17  18
ENDBRANCH  16  17
ENDBRANCH  15  16
ENDBRANCH  14  15
ENDBRANCH  13  14
ENDBRANCH   6  13
BRANCH   5  22
ATOM     22  C   UNL     1     -35.186  22.242   6.252  0.00  0.00    +0.169 C 
BRANCH  22  23
ATOM     23  O   UNL     1     -35.440  20.901   5.878  0.00  0.00    -0.379 OA
ATOM     24  H   UNL     1     -36.388  20.786   5.713  0.00  0.00    +0.211 HD
ENDBRANCH  22  23
ENDBRANCH   5  22
TORSDOF 13
ENDMDL
MODEL 4
REMARK VINA RESULT:      -5.1      1.687      2.477
REMARK  Name = 53720324
REMARK  13 active torsions:
REMARK  status: ('A' for Active; 'I' for Inactive)
REMARK    1  A    between atoms: C_2  and  O_7
REMARK    2  A    between atoms: C_3  and  O_9
REMARK    3  A    between atoms: C_4  and  O_11
REMARK    4  A    between atoms: C_5  and  C_22
REMARK    5  A    between atoms: C_6  and  S_13
REMARK    6  A    between atoms: S_13  and  C_14
REMARK    7  A    between atoms: C_14  and  C_15
REMARK    8  A    between atoms: C_15  and  C_16
REMARK    9  A    between atoms: C_16  and  C_17
REMARK   10  A    between atoms: C_17  and  C_18
REMARK   11  A    between atoms: C_18  and  C_19
REMARK   12  A    between atoms: C_19  and  C_20
REMARK   13  A    between atoms: C_22  and  O_23
REMARK                            x       y       z     vdW  Elec       q    Type
REMARK                         _______ _______ _______ _____ _____    ______ ____
ROOT
ATOM      1  O   UNL     1     -35.215  23.761   2.940  0.00  0.00    -0.340 OA
ATOM      2  C   UNL     1     -37.719  25.053   3.487  0.00  0.00    +0.170 C 
ATOM      3  C   UNL     1     -36.578  25.048   4.510  0.00  0.00    +0.169 C 
ATOM      4  C   UNL     1     -37.607  23.858   2.536  0.00  0.00    +0.177 C 
ATOM      5  C   UNL     1     -35.225  24.905   3.799  0.00  0.00    +0.175 C 
ATOM      6  C   UNL     1     -36.208  23.836   1.911  0.00  0.00    +0.192 C 
ENDROOT
BRANCH   2   7
ATOM      7  O   UNL     1     -38.979  24.998   4.149  0.00  0.00    -0.379 OA
ATOM      8  H   UNL     1     -39.134  25.830   4.621  0.00  0.00    +0.211 HD
ENDBRANCH   2   7
BRANCH   3   9
ATOM      9  O   UNL     1     -36.586  26.270   5.242  0.00  0.00    -0.379 OA
ATOM     10  H   UNL     1     -37.276  26.234   5.924  0.00  0.00    +0.211 HD
ENDBRANCH   3   9
BRANCH   4  11
ATOM     11  O   UNL     1     -37.809  22.651   3.277  0.00  0.00    -0.379 OA
ATOM     12  H   UNL     1     -38.513  22.130   2.862  0.00  0.00    +0.211 HD
ENDBRANCH   4  11
BRANCH   6  13
ATOM     13  S   UNL     1     -36.029  22.443   0.746  0.00  0.00    -0.110 S 
BRANCH  13  14
ATOM     14  C   UNL     1     -34.653  21.589   1.564  0.00  0.00    +0.060 C 
BRANCH  14  15
ATOM     15  C   UNL     1     -34.994  20.119   1.789  0.00  0.00    +0.012 C 
BRANCH  15  16
ATOM     16  C   UNL     1     -33.796  19.223   1.457  0.00  0.00    +0.001 C 
BRANCH  16  17
ATOM     17  C   UNL     1     -32.967  19.808   0.312  0.00  0.00    +0.000 C 
BRANCH  17  18
ATOM     18  C   UNL     1     -31.490  19.406   0.362  0.00  0.00    +0.000 C 
BRANCH  18  19
ATOM     19  C   UNL     1     -31.252  18.041   1.010  0.00  0.00    +0.000 C 
BRANCH  19  20
ATOM     20  C   UNL     1     -29.781  17.636   0.923  0.00  0.00    +0.000 C 
ATOM     21  C   UNL     1     -28.980  18.621   0.084  0.00  0.00    +0.000 C 
ENDBRANCH  19  20
ENDBRANCH  18  19
ENDBRANCH  17  18
ENDBRANCH  16  17
ENDBRANCH  15  16
ENDBRANCH  14  15
ENDBRANCH  13  14
ENDBRANCH   6  13
BRANCH   5  22
ATOM     22  C   UNL     1     -34.082  24.737   4.797  0.00  0.00    +0.169 C 
BRANCH  22  23
ATOM     23  O   UNL     1     -33.550  26.015   5.091  0.00  0.00    -0.379 OA
ATOM     24  H   UNL     1     -33.678  26.601   4.330  0.00  0.00    +0.211 HD
ENDBRANCH  22  23
ENDBRANCH   5  22
TORSDOF 13
ENDMDL
MODEL 5
REMARK VINA RESULT:      -5.1      3.510      6.964
REMARK  Name = 53720324
REMARK  13 active torsions:
REMARK  status: ('A' for Active; 'I' for Inactive)
REMARK    1  A    between atoms: C_2  and  O_7
REMARK    2  A    between atoms: C_3  and  O_9
REMARK    3  A    between atoms: C_4  and  O_11
REMARK    4  A    between atoms: C_5  and  C_22
REMARK    5  A    between atoms: C_6  and  S_13
REMARK    6  A    between atoms: S_13  and  C_14
REMARK    7  A    between atoms: C_14  and  C_15
REMARK    8  A    between atoms: C_15  and  C_16
REMARK    9  A    between atoms: C_16  and  C_17
REMARK   10  A    between atoms: C_17  and  C_18
REMARK   11  A    between atoms: C_18  and  C_19
REMARK   12  A    between atoms: C_19  and  C_20
REMARK   13  A    between atoms: C_22  and  O_23
REMARK                            x       y       z     vdW  Elec       q    Type
REMARK                         _______ _______ _______ _____ _____    ______ ____
ROOT
ATOM      1  O   UNL     1     -36.801  23.327   2.550  0.00  0.00    -0.340 OA
ATOM      2  C   UNL     1     -39.663  23.251   2.350  0.00  0.00    +0.170 C 
ATOM      3  C   UNL     1     -38.795  22.081   1.878  0.00  0.00    +0.169 C 
ATOM      4  C   UNL     1     -38.876  24.566   2.318  0.00  0.00    +0.177 C 
ATOM      5  C   UNL     1     -37.463  22.062   2.642  0.00  0.00    +0.175 C 
ATOM      6  C   UNL     1     -37.573  24.396   3.107  0.00  0.00    +0.192 C 
ENDROOT
BRANCH   2   7
ATOM      7  O   UNL     1     -40.813  23.384   1.519  0.00  0.00    -0.379 OA
ATOM      8  H   UNL     1     -41.538  23.776   2.029  0.00  0.00    +0.211 HD
ENDBRANCH   2   7
BRANCH   3   9
ATOM      9  O   UNL     1     -39.478  20.853   2.114  0.00  0.00    -0.379 OA
ATOM     10  H   UNL     1     -39.032  20.367   2.825  0.00  0.00    +0.211 HD
ENDBRANCH   3   9
BRANCH   4  11
ATOM     11  O   UNL     1     -38.563  24.888   0.959  0.00  0.00    -0.379 OA
ATOM     12  H   UNL     1     -39.272  24.570   0.380  0.00  0.00    +0.211 HD
ENDBRANCH   4  11
BRANCH   6  13
ATOM     13  S   UNL     1     -36.607  25.944   3.122  0.00  0.00    -0.110 S 
BRANCH  13  14
ATOM     14  C   UNL     1     -35.104  25.309   3.916  0.00  0.00    +0.060 C 
BRANCH  14  15
ATOM     15  C   UNL     1     -35.119  25.614   5.412  0.00  0.00    +0.012 C 
BRANCH  15  16
ATOM     16  C   UNL     1     -33.855  26.372   5.829  0.00  0.00    +0.001 C 
BRANCH  16  17
ATOM     17  C   UNL     1     -33.202  27.062   4.629  0.00  0.00    +0.000 C 
BRANCH  17  18
ATOM     18  C   UNL     1     -32.215  28.165   5.024  0.00  0.00    +0.000 C 
BRANCH  18  19
ATOM     19  C   UNL     1     -31.906  28.198   6.522  0.00  0.00    +0.000 C 
BRANCH  19  20
ATOM     20  C   UNL     1     -31.646  29.626   7.001  0.00  0.00    +0.000 C 
ATOM     21  C   UNL     1     -31.975  30.646   5.922  0.00  0.00    +0.000 C 
ENDBRANCH  19  20
ENDBRANCH  18  19
ENDBRANCH  17  18
ENDBRANCH  16  17
ENDBRANCH  15  16
ENDBRANCH  14  15
ENDBRANCH  13  14
ENDBRANCH   6  13
BRANCH   5  22
ATOM     22  C   UNL     1     -36.512  21.006   2.086  0.00  0.00    +0.169 C 
BRANCH  22  23
ATOM     23  O   UNL     1     -36.818  19.762   2.687  0.00  0.00    -0.379 OA
ATOM     24  H   UNL     1     -36.069  19.473   3.230  0.00  0.00    +0.211 HD
ENDBRANCH  22  23
ENDBRANCH   5  22
TORSDOF 13
ENDMDL
MODEL 6
REMARK VINA RESULT:      -5.0      3.371      6.120
REMARK  Name = 53720324
REMARK  13 active torsions:
REMARK  status: ('A' for Active; 'I' for Inactive)
REMARK    1  A    between atoms: C_2  and  O_7
REMARK    2  A    between atoms: C_3  and  O_9
REMARK    3  A    between atoms: C_4  and  O_11
REMARK    4  A    between atoms: C_5  and  C_22
REMARK    5  A    between atoms: C_6  and  S_13
REMARK    6  A    between atoms: S_13  and  C_14
REMARK    7  A    between atoms: C_14  and  C_15
REMARK    8  A    between atoms: C_15  and  C_16
REMARK    9  A    between atoms: C_16  and  C_17
REMARK   10  A    between atoms: C_17  and  C_18
REMARK   11  A    between atoms: C_18  and  C_19
REMARK   12  A    between atoms: C_19  and  C_20
REMARK   13  A    between atoms: C_22  and  O_23
REMARK                            x       y       z     vdW  Elec       q    Type
REMARK                         _______ _______ _______ _____ _____    ______ ____
ROOT
ATOM      1  O   UNL     1     -37.483  23.398   1.816  0.00  0.00    -0.340 OA
ATOM      2  C   UNL     1     -39.792  22.012   0.822  0.00  0.00    +0.170 C 
ATOM      3  C   UNL     1     -39.919  23.185   1.800  0.00  0.00    +0.169 C 
ATOM      4  C   UNL     1     -38.426  21.332   0.959  0.00  0.00    +0.177 C 
ATOM      5  C   UNL     1     -38.709  24.121   1.670  0.00  0.00    +0.175 C 
ATOM      6  C   UNL     1     -37.319  22.383   0.820  0.00  0.00    +0.192 C 
ENDROOT
BRANCH   2   7
ATOM      7  O   UNL     1     -40.812  21.048   1.068  0.00  0.00    -0.379 OA
ATOM      8  H   UNL     1     -40.524  20.445   1.771  0.00  0.00    +0.211 HD
ENDBRANCH   2   7
BRANCH   3   9
ATOM      9  O   UNL     1     -41.104  23.923   1.510  0.00  0.00    -0.379 OA
ATOM     10  H   UNL     1     -41.030  24.318   0.627  0.00  0.00    +0.211 HD
ENDBRANCH   3   9
BRANCH   4  11
ATOM     11  O   UNL     1     -38.335  20.722   2.250  0.00  0.00    -0.379 OA
ATOM     12  H   UNL     1     -39.094  20.133   2.383  0.00  0.00    +0.211 HD
ENDBRANCH   4  11
BRANCH   6  13
ATOM     13  S   UNL     1     -35.667  21.620   0.948  0.00  0.00    -0.110 S 
BRANCH  13  14
ATOM     14  C   UNL     1     -35.149  22.375   2.515  0.00  0.00    +0.060 C 
BRANCH  14  15
ATOM     15  C   UNL     1     -35.367  21.406   3.674  0.00  0.00    +0.012 C 
BRANCH  15  16
ATOM     16  C   UNL     1     -35.377  22.149   5.014  0.00  0.00    +0.001 C 
BRANCH  16  17
ATOM     17  C   UNL     1     -35.036  23.629   4.829  0.00  0.00    +0.000 C 
BRANCH  17  18
ATOM     18  C   UNL     1     -36.115  24.574   5.366  0.00  0.00    +0.000 C 
BRANCH  18  19
ATOM     19  C   UNL     1     -35.631  26.014   5.544  0.00  0.00    +0.000 C 
BRANCH  19  20
ATOM     20  C   UNL     1     -34.131  26.061   5.838  0.00  0.00    +0.000 C 
ATOM     21  C   UNL     1     -33.391  26.923   4.827  0.00  0.00    +0.000 C 
ENDBRANCH  19  20
ENDBRANCH  18  19
ENDBRANCH  17  18
ENDBRANCH  16  17
ENDBRANCH  15  16
ENDBRANCH  14  15
ENDBRANCH  13  14
ENDBRANCH   6  13
BRANCH   5  22
ATOM     22  C   UNL     1     -38.726  25.212   2.737  0.00  0.00    +0.169 C 
BRANCH  22  23
ATOM     23  O   UNL     1     -39.477  24.747   3.844  0.00  0.00    -0.379 OA
ATOM     24  H   UNL     1     -38.877  24.541   4.577  0.00  0.00    +0.211 HD
ENDBRANCH  22  23
ENDBRANCH   5  22
TORSDOF 13
ENDMDL
MODEL 7
REMARK VINA RESULT:      -5.0      3.946      7.520
REMARK  Name = 53720324
REMARK  13 active torsions:
REMARK  status: ('A' for Active; 'I' for Inactive)
REMARK    1  A    between atoms: C_2  and  O_7
REMARK    2  A    between atoms: C_3  and  O_9
REMARK    3  A    between atoms: C_4  and  O_11
REMARK    4  A    between atoms: C_5  and  C_22
REMARK    5  A    between atoms: C_6  and  S_13
REMARK    6  A    between atoms: S_13  and  C_14
REMARK    7  A    between atoms: C_14  and  C_15
REMARK    8  A    between atoms: C_15  and  C_16
REMARK    9  A    between atoms: C_16  and  C_17
REMARK   10  A    between atoms: C_17  and  C_18
REMARK   11  A    between atoms: C_18  and  C_19
REMARK   12  A    between atoms: C_19  and  C_20
REMARK   13  A    between atoms: C_22  and  O_23
REMARK                            x       y       z     vdW  Elec       q    Type
REMARK                         _______ _______ _______ _____ _____    ______ ____
ROOT
ATOM      1  O   UNL     1     -37.504  24.548   4.056  0.00  0.00    -0.340 OA
ATOM      2  C   UNL     1     -36.019  22.227   3.253  0.00  0.00    +0.170 C 
ATOM      3  C   UNL     1     -37.512  22.371   2.941  0.00  0.00    +0.169 C 
ATOM      4  C   UNL     1     -35.633  23.061   4.479  0.00  0.00    +0.177 C 
ATOM      5  C   UNL     1     -37.900  23.855   2.868  0.00  0.00    +0.175 C 
ATOM      6  C   UNL     1     -36.090  24.509   4.271  0.00  0.00    +0.192 C 
ENDROOT
BRANCH   2   7
ATOM      7  O   UNL     1     -35.695  20.862   3.505  0.00  0.00    -0.379 OA
ATOM      8  H   UNL     1     -36.350  20.480   4.109  0.00  0.00    +0.211 HD
ENDBRANCH   2   7
BRANCH   3   9
ATOM      9  O   UNL     1     -37.800  21.759   1.687  0.00  0.00    -0.379 OA
ATOM     10  H   UNL     1     -37.868  20.798   1.804  0.00  0.00    +0.211 HD
ENDBRANCH   3   9
BRANCH   4  11
ATOM     11  O   UNL     1     -36.285  22.523   5.633  0.00  0.00    -0.379 OA
ATOM     12  H   UNL     1     -37.147  22.953   5.747  0.00  0.00    +0.211 HD
ENDBRANCH   4  11
BRANCH   6  13
ATOM     13  S   UNL     1     -35.629  25.554   5.695  0.00  0.00    -0.110 S 
BRANCH  13  14
ATOM     14  C   UNL     1     -33.873  25.778   5.299  0.00  0.00    +0.060 C 
BRANCH  14  15
ATOM     15  C   UNL     1     -33.707  26.728   4.116  0.00  0.00    +0.012 C 
BRANCH  15  16
ATOM     16  C   UNL     1     -32.703  27.838   4.440  0.00  0.00    +0.001 C 
BRANCH  16  17
ATOM     17  C   UNL     1     -32.392  27.883   5.938  0.00  0.00    +0.000 C 
BRANCH  17  18
ATOM     18  C   UNL     1     -31.316  28.909   6.306  0.00  0.00    +0.000 C 
BRANCH  18  19
ATOM     19  C   UNL     1     -31.837  30.346   6.361  0.00  0.00    +0.000 C 
BRANCH  19  20
ATOM     20  C   UNL     1     -31.277  31.182   5.210  0.00  0.00    +0.000 C 
ATOM     21  C   UNL     1     -29.766  31.044   5.104  0.00  0.00    +0.000 C 
ENDBRANCH  19  20
ENDBRANCH  18  19
ENDBRANCH  17  18
ENDBRANCH  16  17
ENDBRANCH  15  16
ENDBRANCH  14  15
ENDBRANCH  13  14
ENDBRANCH   6  13
BRANCH   5  22
ATOM     22  C   UNL     1     -39.408  24.034   2.716  0.00  0.00    +0.169 C 
BRANCH  22  23
ATOM     23  O   UNL     1     -39.893  24.745   3.840  0.00  0.00    -0.379 OA
ATOM     24  H   UNL     1     -39.806  25.697   3.681  0.00  0.00    +0.211 HD
ENDBRANCH  22  23
ENDBRANCH   5  22
TORSDOF 13
ENDMDL
MODEL 8
REMARK VINA RESULT:      -4.9      1.724      2.529
REMARK  Name = 53720324
REMARK  13 active torsions:
REMARK  status: ('A' for Active; 'I' for Inactive)
REMARK    1  A    between atoms: C_2  and  O_7
REMARK    2  A    between atoms: C_3  and  O_9
REMARK    3  A    between atoms: C_4  and  O_11
REMARK    4  A    between atoms: C_5  and  C_22
REMARK    5  A    between atoms: C_6  and  S_13
REMARK    6  A    between atoms: S_13  and  C_14
REMARK    7  A    between atoms: C_14  and  C_15
REMARK    8  A    between atoms: C_15  and  C_16
REMARK    9  A    between atoms: C_16  and  C_17
REMARK   10  A    between atoms: C_17  and  C_18
REMARK   11  A    between atoms: C_18  and  C_19
REMARK   12  A    between atoms: C_19  and  C_20
REMARK   13  A    between atoms: C_22  and  O_23
REMARK                            x       y       z     vdW  Elec       q    Type
REMARK                         _______ _______ _______ _____ _____    ______ ____
ROOT
ATOM      1  O   UNL     1     -34.909  24.463   4.835  0.00  0.00    -0.340 OA
ATOM      2  C   UNL     1     -36.374  26.109   2.996  0.00  0.00    +0.170 C 
ATOM      3  C   UNL     1     -35.629  26.710   4.193  0.00  0.00    +0.169 C 
ATOM      4  C   UNL     1     -36.748  24.647   3.262  0.00  0.00    +0.177 C 
ATOM      5  C   UNL     1     -34.461  25.802   4.604  0.00  0.00    +0.175 C 
ATOM      6  C   UNL     1     -35.493  23.869   3.671  0.00  0.00    +0.192 C 
ENDROOT
BRANCH   2   7
ATOM      7  O   UNL     1     -37.563  26.848   2.731  0.00  0.00    -0.379 OA
ATOM      8  H   UNL     1     -38.273  26.237   2.479  0.00  0.00    +0.211 HD
ENDBRANCH   2   7
BRANCH   3   9
ATOM      9  O   UNL     1     -35.114  27.991   3.842  0.00  0.00    -0.379 OA
ATOM     10  H   UNL     1     -34.228  28.099   4.223  0.00  0.00    +0.211 HD
ENDBRANCH   3   9
BRANCH   4  11
ATOM     11  O   UNL     1     -37.701  24.596   4.328  0.00  0.00    -0.379 OA
ATOM     12  H   UNL     1     -37.540  25.330   4.940  0.00  0.00    +0.211 HD
ENDBRANCH   4  11
BRANCH   6  13
ATOM     13  S   UNL     1     -35.879  22.111   3.974  0.00  0.00    -0.110 S 
BRANCH  13  14
ATOM     14  C   UNL     1     -36.679  21.740   2.388  0.00  0.00    +0.060 C 
BRANCH  14  15
ATOM     15  C   UNL     1     -36.278  20.352   1.897  0.00  0.00    +0.012 C 
BRANCH  15  16
ATOM     16  C   UNL     1     -34.774  20.121   2.078  0.00  0.00    +0.001 C 
BRANCH  16  17
ATOM     17  C   UNL     1     -34.241  19.116   1.054  0.00  0.00    +0.000 C 
BRANCH  17  18
ATOM     18  C   UNL     1     -32.762  18.772   1.252  0.00  0.00    +0.000 C 
BRANCH  18  19
ATOM     19  C   UNL     1     -31.972  18.704  -0.056  0.00  0.00    +0.000 C 
BRANCH  19  20
ATOM     20  C   UNL     1     -30.473  18.875   0.194  0.00  0.00    +0.000 C 
ATOM     21  C   UNL     1     -29.886  17.669   0.912  0.00  0.00    +0.000 C 
ENDBRANCH  19  20
ENDBRANCH  18  19
ENDBRANCH  17  18
ENDBRANCH  16  17
ENDBRANCH  15  16
ENDBRANCH  14  15
ENDBRANCH  13  14
ENDBRANCH   6  13
BRANCH   5  22
ATOM     22  C   UNL     1     -33.797  26.290   5.889  0.00  0.00    +0.169 C 
BRANCH  22  23
ATOM     23  O   UNL     1     -32.871  27.308   5.560  0.00  0.00    -0.379 OA
ATOM     24  H   UNL     1     -33.351  28.097   5.263  0.00  0.00    +0.211 HD
ENDBRANCH  22  23
ENDBRANCH   5  22
TORSDOF 13
ENDMDL
MODEL 9
REMARK VINA RESULT:      -4.9      3.765      7.240
REMARK  Name = 53720324
REMARK  13 active torsions:
REMARK  status: ('A' for Active; 'I' for Inactive)
REMARK    1  A    between atoms: C_2  and  O_7
REMARK    2  A    between atoms: C_3  and  O_9
REMARK    3  A    between atoms: C_4  and  O_11
REMARK    4  A    between atoms: C_5  and  C_22
REMARK    5  A    between atoms: C_6  and  S_13
REMARK    6  A    between atoms: S_13  and  C_14
REMARK    7  A    between atoms: C_14  and  C_15
REMARK    8  A    between atoms: C_15  and  C_16
REMARK    9  A    between atoms: C_16  and  C_17
REMARK   10  A    between atoms: C_17  and  C_18
REMARK   11  A    between atoms: C_18  and  C_19
REMARK   12  A    between atoms: C_19  and  C_20
REMARK   13  A    between atoms: C_22  and  O_23
REMARK                            x       y       z     vdW  Elec       q    Type
REMARK                         _______ _______ _______ _____ _____    ______ ____
ROOT
ATOM      1  O   UNL     1     -37.584  24.869   2.550  0.00  0.00    -0.340 OA
ATOM      2  C   UNL     1     -38.312  22.179   1.863  0.00  0.00    +0.170 C 
ATOM      3  C   UNL     1     -39.364  23.214   2.278  0.00  0.00    +0.169 C 
ATOM      4  C   UNL     1     -36.939  22.532   2.443  0.00  0.00    +0.177 C 
ATOM      5  C   UNL     1     -38.868  24.633   1.964  0.00  0.00    +0.175 C 
ATOM      6  C   UNL     1     -36.582  23.973   2.062  0.00  0.00    +0.192 C 
ENDROOT
BRANCH   2   7
ATOM      7  O   UNL     1     -38.685  20.883   2.321  0.00  0.00    -0.379 OA
ATOM      8  H   UNL     1     -38.130  20.634   3.076  0.00  0.00    +0.211 HD
ENDBRANCH   2   7
BRANCH   3   9
ATOM      9  O   UNL     1     -40.573  22.980   1.561  0.00  0.00    -0.379 OA
ATOM     10  H   UNL     1     -41.238  22.610   2.163  0.00  0.00    +0.211 HD
ENDBRANCH   3   9
BRANCH   4  11
ATOM     11  O   UNL     1     -36.993  22.423   3.869  0.00  0.00    -0.379 OA
ATOM     12  H   UNL     1     -37.123  23.303   4.255  0.00  0.00    +0.211 HD
ENDBRANCH   4  11
BRANCH   6  13
ATOM     13  S   UNL     1     -34.939  24.435   2.707  0.00  0.00    -0.110 S 
BRANCH  13  14
ATOM     14  C   UNL     1     -35.459  25.770   3.820  0.00  0.00    +0.060 C 
BRANCH  14  15
ATOM     15  C   UNL     1     -35.208  25.383   5.275  0.00  0.00    +0.012 C 
BRANCH  15  16
ATOM     16  C   UNL     1     -34.016  26.154   5.849  0.00  0.00    +0.001 C 
BRANCH  16  17
ATOM     17  C   UNL     1     -33.486  27.181   4.846  0.00  0.00    +0.000 C 
BRANCH  17  18
ATOM     18  C   UNL     1     -32.232  27.914   5.331  0.00  0.00    +0.000 C 
BRANCH  18  19
ATOM     19  C   UNL     1     -32.088  29.324   4.753  0.00  0.00    +0.000 C 
BRANCH  19  20
ATOM     20  C   UNL     1     -31.967  30.367   5.864  0.00  0.00    +0.000 C 
ATOM     21  C   UNL     1     -31.439  29.753   7.151  0.00  0.00    +0.000 C 
ENDBRANCH  19  20
ENDBRANCH  18  19
ENDBRANCH  17  18
ENDBRANCH  16  17
ENDBRANCH  15  16
ENDBRANCH  14  15
ENDBRANCH  13  14
ENDBRANCH   6  13
BRANCH   5  22
ATOM     22  C   UNL     1     -39.821  25.693   2.508  0.00  0.00    +0.169 C 
BRANCH  22  23
ATOM     23  O   UNL     1     -39.142  26.446   3.496  0.00  0.00    -0.379 OA
ATOM     24  H   UNL     1     -39.055  25.915   4.303  0.00  0.00    +0.211 HD
ENDBRANCH  22  23
ENDBRANCH   5  22
TORSDOF 13
ENDMDL
