MODEL 1
REMARK VINA RESULT:      -5.7      0.000      0.000
REMARK  Name = 197611
REMARK  5 active torsions:
REMARK  status: ('A' for Active; 'I' for Inactive)
REMARK    1  A    between atoms: N_2  and  C_13
REMARK    2  A    between atoms: C_9  and  O_22
REMARK    3  A    between atoms: C_14  and  O_17
REMARK    4  A    between atoms: C_16  and  C_19
REMARK    5  A    between atoms: C_19  and  O_20
REMARK                            x       y       z     vdW  Elec       q    Type
REMARK                         _______ _______ _______ _____ _____    ______ ____
ROOT
ATOM      1  I   UNL     1     -35.472  29.389   0.478  0.00  0.00    +0.072 I 
ATOM      2  N   UNL     1     -34.823  26.040   4.646  0.00  0.00    -0.236 N 
ATOM      3  N   UNL     1     -33.047  27.025   5.571  0.00  0.00    -0.239 NA
ATOM      4  N   UNL     1     -35.170  27.513   2.745  0.00  0.00    -0.318 NA
ATOM      5  N   UNL     1     -33.516  29.308   2.699  0.00  0.00    -0.297 NA
ATOM      6  C   UNL     1     -34.530  27.116   3.855  0.00  0.00    +0.223 C 
ATOM      7  C   UNL     1     -33.904  26.029   5.663  0.00  0.00    +0.224 C 
ATOM      8  C   UNL     1     -33.427  27.713   4.445  0.00  0.00    +0.190 C 
ATOM      9  C   UNL     1     -32.919  28.849   3.824  0.00  0.00    +0.310 C 
ATOM     10  C   UNL     1     -34.589  28.621   2.235  0.00  0.00    +0.172 C 
ENDROOT
BRANCH   2  13
ATOM     11  F   UNL     1     -36.949  23.963   2.690  0.00  0.00    -0.230 F 
ATOM     12  O   UNL     1     -36.016  24.230   5.615  0.00  0.00    -0.333 OA
ATOM     13  C   UNL     1     -35.907  25.079   4.453  0.00  0.00    +0.231 C 
ATOM     14  C   UNL     1     -35.238  22.879   3.862  0.00  0.00    +0.177 C 
ATOM     15  C   UNL     1     -35.720  24.170   3.245  0.00  0.00    +0.236 C 
ATOM     16  C   UNL     1     -36.011  22.862   5.168  0.00  0.00    +0.176 C 
BRANCH  14  17
ATOM     17  O   UNL     1     -35.524  21.753   3.060  0.00  0.00    -0.379 OA
ATOM     18  H   UNL     1     -36.325  21.922   2.539  0.00  0.00    +0.211 HD
ENDBRANCH  14  17
BRANCH  16  19
ATOM     19  C   UNL     1     -35.389  21.974   6.231  0.00  0.00    +0.169 C 
BRANCH  19  20
ATOM     20  O   UNL     1     -35.370  20.637   5.756  0.00  0.00    -0.379 OA
ATOM     21  H   UNL     1     -35.324  20.639   4.788  0.00  0.00    +0.211 HD
ENDBRANCH  19  20
ENDBRANCH  16  19
ENDBRANCH   2  13
BRANCH   9  22
ATOM     22  O   UNL     1     -31.831  29.530   4.310  0.00  0.00    -0.446 OA
ATOM     23  C   UNL     1     -32.086  30.525   5.292  0.00  0.00    +0.255 C 
ENDBRANCH   9  22
TORSDOF 5
ENDMDL
MODEL 2
REMARK VINA RESULT:      -5.6      4.856      7.422
REMARK  Name = 197611
REMARK  5 active torsions:
REMARK  status: ('A' for Active; 'I' for Inactive)
REMARK    1  A    between atoms: N_2  and  C_13
REMARK    2  A    between atoms: C_9  and  O_22
REMARK    3  A    between atoms: C_14  and  O_17
REMARK    4  A    between atoms: C_16  and  C_19
REMARK    5  A    between atoms: C_19  and  O_20
REMARK                            x       y       z     vdW  Elec       q    Type
REMARK                         _______ _______ _______ _____ _____    ______ ____
ROOT
ATOM      1  I   UNL     1     -36.310  18.566  -0.519  0.00  0.00    +0.072 I 
ATOM      2  N   UNL     1     -37.356  22.949   2.431  0.00  0.00    -0.236 N 
ATOM      3  N   UNL     1     -39.564  23.023   2.120  0.00  0.00    -0.239 NA
ATOM      4  N   UNL     1     -36.817  20.979   1.116  0.00  0.00    -0.318 NA
ATOM      5  N   UNL     1     -38.816  20.016   0.100  0.00  0.00    -0.297 NA
ATOM      6  C   UNL     1     -37.661  21.888   1.625  0.00  0.00    +0.223 C 
ATOM      7  C   UNL     1     -38.532  23.599   2.701  0.00  0.00    +0.224 C 
ATOM      8  C   UNL     1     -39.034  21.952   1.444  0.00  0.00    +0.190 C 
ATOM      9  C   UNL     1     -39.609  20.968   0.647  0.00  0.00    +0.310 C 
ATOM     10  C   UNL     1     -37.489  20.079   0.364  0.00  0.00    +0.172 C 
ENDROOT
BRANCH   2  13
ATOM     11  F   UNL     1     -34.804  25.277   3.284  0.00  0.00    -0.230 F 
ATOM     12  O   UNL     1     -35.568  22.351   3.875  0.00  0.00    -0.333 OA
ATOM     13  C   UNL     1     -36.031  23.328   2.919  0.00  0.00    +0.231 C 
ATOM     14  C   UNL     1     -35.975  24.326   5.073  0.00  0.00    +0.177 C 
ATOM     15  C   UNL     1     -35.990  24.686   3.607  0.00  0.00    +0.236 C 
ATOM     16  C   UNL     1     -35.152  23.052   5.061  0.00  0.00    +0.176 C 
BRANCH  14  17
ATOM     17  O   UNL     1     -35.389  25.331   5.873  0.00  0.00    -0.379 OA
ATOM     18  H   UNL     1     -35.950  26.122   5.863  0.00  0.00    +0.211 HD
ENDBRANCH  14  17
BRANCH  16  19
ATOM     19  C   UNL     1     -35.371  22.176   6.282  0.00  0.00    +0.169 C 
BRANCH  19  20
ATOM     20  O   UNL     1     -35.482  20.825   5.863  0.00  0.00    -0.379 OA
ATOM     21  H   UNL     1     -34.666  20.350   6.085  0.00  0.00    +0.211 HD
ENDBRANCH  19  20
ENDBRANCH  16  19
ENDBRANCH   2  13
BRANCH   9  22
ATOM     22  O   UNL     1     -40.956  20.921   0.391  0.00  0.00    -0.446 OA
ATOM     23  C   UNL     1     -41.392  21.477  -0.843  0.00  0.00    +0.255 C 
ENDBRANCH   9  22
TORSDOF 5
ENDMDL
MODEL 3
REMARK VINA RESULT:      -5.5      2.852      3.871
REMARK  Name = 197611
REMARK  5 active torsions:
REMARK  status: ('A' for Active; 'I' for Inactive)
REMARK    1  A    between atoms: N_2  and  C_13
REMARK    2  A    between atoms: C_9  and  O_22
REMARK    3  A    between atoms: C_14  and  O_17
REMARK    4  A    between atoms: C_16  and  C_19
REMARK    5  A    between atoms: C_19  and  O_20
REMARK                            x       y       z     vdW  Elec       q    Type
REMARK                         _______ _______ _______ _____ _____    ______ ____
ROOT
ATOM      1  I   UNL     1     -31.631  27.178   1.613  0.00  0.00    +0.072 I 
ATOM      2  N   UNL     1     -35.187  23.409   3.080  0.00  0.00    -0.236 N 
ATOM      3  N   UNL     1     -35.494  24.066   5.190  0.00  0.00    -0.239 NA
ATOM      4  N   UNL     1     -33.580  25.081   2.355  0.00  0.00    -0.318 NA
ATOM      5  N   UNL     1     -33.050  26.642   4.155  0.00  0.00    -0.297 NA
ATOM      6  C   UNL     1     -34.389  24.505   3.257  0.00  0.00    +0.223 C 
ATOM      7  C   UNL     1     -35.830  23.186   4.269  0.00  0.00    +0.224 C 
ATOM      8  C   UNL     1     -34.594  24.896   4.570  0.00  0.00    +0.190 C 
ATOM      9  C   UNL     1     -33.886  26.009   5.012  0.00  0.00    +0.310 C 
ATOM     10  C   UNL     1     -32.950  26.146   2.898  0.00  0.00    +0.172 C 
ENDROOT
BRANCH   2  13
ATOM     11  F   UNL     1     -34.555  20.599   0.991  0.00  0.00    -0.230 F 
ATOM     12  O   UNL     1     -36.636  22.852   1.282  0.00  0.00    -0.333 OA
ATOM     13  C   UNL     1     -35.334  22.618   1.859  0.00  0.00    +0.231 C 
ATOM     14  C   UNL     1     -36.633  20.641   2.065  0.00  0.00    +0.177 C 
ATOM     15  C   UNL     1     -35.200  21.116   2.076  0.00  0.00    +0.236 C 
ATOM     16  C   UNL     1     -37.252  21.575   1.042  0.00  0.00    +0.176 C 
BRANCH  14  17
ATOM     17  O   UNL     1     -36.753  19.286   1.690  0.00  0.00    -0.379 OA
ATOM     18  H   UNL     1     -37.375  19.208   0.949  0.00  0.00    +0.211 HD
ENDBRANCH  14  17
BRANCH  16  19
ATOM     19  C   UNL     1     -38.761  21.697   1.165  0.00  0.00    +0.169 C 
BRANCH  19  20
ATOM     20  O   UNL     1     -39.184  20.991   2.320  0.00  0.00    -0.379 OA
ATOM     21  H   UNL     1     -40.147  21.062   2.407  0.00  0.00    +0.211 HD
ENDBRANCH  19  20
ENDBRANCH  16  19
ENDBRANCH   2  13
BRANCH   9  22
ATOM     22  O   UNL     1     -34.001  26.495   6.290  0.00  0.00    -0.446 OA
ATOM     23  C   UNL     1     -32.832  27.067   6.864  0.00  0.00    +0.255 C 
ENDBRANCH   9  22
TORSDOF 5
ENDMDL
MODEL 4
REMARK VINA RESULT:      -5.3      3.458      6.480
REMARK  Name = 197611
REMARK  5 active torsions:
REMARK  status: ('A' for Active; 'I' for Inactive)
REMARK    1  A    between atoms: N_2  and  C_13
REMARK    2  A    between atoms: C_9  and  O_22
REMARK    3  A    between atoms: C_14  and  O_17
REMARK    4  A    between atoms: C_16  and  C_19
REMARK    5  A    between atoms: C_19  and  O_20
REMARK                            x       y       z     vdW  Elec       q    Type
REMARK                         _______ _______ _______ _____ _____    ______ ____
ROOT
ATOM      1  I   UNL     1     -35.187  22.125   6.000  0.00  0.00    +0.072 I 
ATOM      2  N   UNL     1     -34.280  26.648   3.221  0.00  0.00    -0.236 N 
ATOM      3  N   UNL     1     -36.379  27.056   2.583  0.00  0.00    -0.239 NA
ATOM      4  N   UNL     1     -34.622  24.604   4.488  0.00  0.00    -0.318 NA
ATOM      5  N   UNL     1     -36.972  23.947   4.497  0.00  0.00    -0.297 NA
ATOM      6  C   UNL     1     -35.039  25.637   3.743  0.00  0.00    +0.223 C 
ATOM      7  C   UNL     1     -35.131  27.474   2.534  0.00  0.00    +0.224 C 
ATOM      8  C   UNL     1     -36.336  25.909   3.336  0.00  0.00    +0.190 C 
ATOM      9  C   UNL     1     -37.321  25.015   3.741  0.00  0.00    +0.310 C 
ATOM     10  C   UNL     1     -35.663  23.809   4.820  0.00  0.00    +0.172 C 
ENDROOT
BRANCH   2  13
ATOM     11  F   UNL     1     -31.031  27.508   2.055  0.00  0.00    -0.230 F 
ATOM     12  O   UNL     1     -32.520  27.162   4.730  0.00  0.00    -0.333 OA
ATOM     13  C   UNL     1     -32.836  26.824   3.363  0.00  0.00    +0.231 C 
ATOM     14  C   UNL     1     -32.078  29.073   3.444  0.00  0.00    +0.177 C 
ATOM     15  C   UNL     1     -32.258  27.924   2.481  0.00  0.00    +0.236 C 
ATOM     16  C   UNL     1     -31.697  28.341   4.718  0.00  0.00    +0.176 C 
BRANCH  14  17
ATOM     17  O   UNL     1     -31.076  29.977   3.030  0.00  0.00    -0.379 OA
ATOM     18  H   UNL     1     -31.461  30.636   2.431  0.00  0.00    +0.211 HD
ENDBRANCH  14  17
BRANCH  16  19
ATOM     19  C   UNL     1     -31.937  29.152   5.979  0.00  0.00    +0.169 C 
BRANCH  19  20
ATOM     20  O   UNL     1     -32.563  30.375   5.625  0.00  0.00    -0.379 OA
ATOM     21  H   UNL     1     -33.054  30.719   6.387  0.00  0.00    +0.211 HD
ENDBRANCH  19  20
ENDBRANCH  16  19
ENDBRANCH   2  13
BRANCH   9  22
ATOM     22  O   UNL     1     -38.642  25.172   3.403  0.00  0.00    -0.446 OA
ATOM     23  C   UNL     1     -39.230  24.138   2.625  0.00  0.00    +0.255 C 
ENDBRANCH   9  22
TORSDOF 5
ENDMDL
MODEL 5
REMARK VINA RESULT:      -5.3      4.142      6.830
REMARK  Name = 197611
REMARK  5 active torsions:
REMARK  status: ('A' for Active; 'I' for Inactive)
REMARK    1  A    between atoms: N_2  and  C_13
REMARK    2  A    between atoms: C_9  and  O_22
REMARK    3  A    between atoms: C_14  and  O_17
REMARK    4  A    between atoms: C_16  and  C_19
REMARK    5  A    between atoms: C_19  and  O_20
REMARK                            x       y       z     vdW  Elec       q    Type
REMARK                         _______ _______ _______ _____ _____    ______ ____
ROOT
ATOM      1  I   UNL     1     -42.127  26.066   1.590  0.00  0.00    +0.072 I 
ATOM      2  N   UNL     1     -37.375  24.236   3.342  0.00  0.00    -0.236 N 
ATOM      3  N   UNL     1     -37.584  22.118   2.672  0.00  0.00    -0.239 NA
ATOM      4  N   UNL     1     -39.503  25.124   2.577  0.00  0.00    -0.318 NA
ATOM      5  N   UNL     1     -40.841  23.402   1.481  0.00  0.00    -0.297 NA
ATOM      6  C   UNL     1     -38.599  24.147   2.740  0.00  0.00    +0.223 C 
ATOM      7  C   UNL     1     -36.804  22.991   3.275  0.00  0.00    +0.224 C 
ATOM      8  C   UNL     1     -38.709  22.826   2.332  0.00  0.00    +0.190 C 
ATOM      9  C   UNL     1     -39.884  22.465   1.681  0.00  0.00    +0.310 C 
ATOM     10  C   UNL     1     -40.595  24.655   1.935  0.00  0.00    +0.172 C 
ENDROOT
BRANCH   2  13
ATOM     11  F   UNL     1     -36.072  26.142   6.049  0.00  0.00    -0.230 F 
ATOM     12  O   UNL     1     -35.960  26.106   2.970  0.00  0.00    -0.333 OA
ATOM     13  C   UNL     1     -36.778  25.426   3.945  0.00  0.00    +0.231 C 
ATOM     14  C   UNL     1     -34.498  25.225   4.579  0.00  0.00    +0.177 C 
ATOM     15  C   UNL     1     -35.894  25.132   5.150  0.00  0.00    +0.236 C 
ATOM     16  C   UNL     1     -34.666  26.333   3.556  0.00  0.00    +0.176 C 
BRANCH  14  17
ATOM     17  O   UNL     1     -33.532  25.545   5.557  0.00  0.00    -0.379 OA
ATOM     18  H   UNL     1     -33.282  24.742   6.040  0.00  0.00    +0.211 HD
ENDBRANCH  14  17
BRANCH  16  19
ATOM     19  C   UNL     1     -33.600  26.325   2.473  0.00  0.00    +0.169 C 
BRANCH  19  20
ATOM     20  O   UNL     1     -32.330  26.159   3.082  0.00  0.00    -0.379 OA
ATOM     21  H   UNL     1     -32.078  26.981   3.531  0.00  0.00    +0.211 HD
ENDBRANCH  19  20
ENDBRANCH  16  19
ENDBRANCH   2  13
BRANCH   9  22
ATOM     22  O   UNL     1     -40.114  21.191   1.230  0.00  0.00    -0.446 OA
ATOM     23  C   UNL     1     -39.768  20.919  -0.122  0.00  0.00    +0.255 C 
ENDBRANCH   9  22
TORSDOF 5
ENDMDL
MODEL 6
REMARK VINA RESULT:      -5.2      3.708      6.311
REMARK  Name = 197611
REMARK  5 active torsions:
REMARK  status: ('A' for Active; 'I' for Inactive)
REMARK    1  A    between atoms: N_2  and  C_13
REMARK    2  A    between atoms: C_9  and  O_22
REMARK    3  A    between atoms: C_14  and  O_17
REMARK    4  A    between atoms: C_16  and  C_19
REMARK    5  A    between atoms: C_19  and  O_20
REMARK                            x       y       z     vdW  Elec       q    Type
REMARK                         _______ _______ _______ _____ _____    ______ ____
ROOT
ATOM      1  I   UNL     1     -36.220  23.792  -0.981  0.00  0.00    +0.072 I 
ATOM      2  N   UNL     1     -35.869  22.794   4.300  0.00  0.00    -0.236 N 
ATOM      3  N   UNL     1     -35.070  20.714   4.178  0.00  0.00    -0.239 NA
ATOM      4  N   UNL     1     -36.052  23.307   1.932  0.00  0.00    -0.318 NA
ATOM      5  N   UNL     1     -35.323  21.427   0.557  0.00  0.00    -0.297 NA
ATOM      6  C   UNL     1     -35.752  22.510   2.967  0.00  0.00    +0.223 C 
ATOM      7  C   UNL     1     -35.447  21.684   4.984  0.00  0.00    +0.224 C 
ATOM      8  C   UNL     1     -35.256  21.217   2.913  0.00  0.00    +0.190 C 
ATOM      9  C   UNL     1     -35.043  20.677   1.649  0.00  0.00    +0.310 C 
ATOM     10  C   UNL     1     -35.804  22.678   0.763  0.00  0.00    +0.172 C 
ENDROOT
BRANCH   2  13
ATOM     11  F   UNL     1     -35.477  25.866   6.051  0.00  0.00    -0.230 F 
ATOM     12  O   UNL     1     -37.499  24.516   4.158  0.00  0.00    -0.333 OA
ATOM     13  C   UNL     1     -36.350  24.041   4.892  0.00  0.00    +0.231 C 
ATOM     14  C   UNL     1     -35.755  26.026   3.733  0.00  0.00    +0.177 C 
ATOM     15  C   UNL     1     -35.320  25.163   4.893  0.00  0.00    +0.236 C 
ATOM     16  C   UNL     1     -37.265  25.891   3.808  0.00  0.00    +0.176 C 
BRANCH  14  17
ATOM     17  O   UNL     1     -35.334  27.367   3.866  0.00  0.00    -0.379 OA
ATOM     18  H   UNL     1     -36.110  27.944   3.943  0.00  0.00    +0.211 HD
ENDBRANCH  14  17
BRANCH  16  19
ATOM     19  C   UNL     1     -37.969  26.219   2.502  0.00  0.00    +0.169 C 
BRANCH  19  20
ATOM     20  O   UNL     1     -37.423  27.418   1.976  0.00  0.00    -0.379 OA
ATOM     21  H   UNL     1     -37.161  28.001   2.706  0.00  0.00    +0.211 HD
ENDBRANCH  19  20
ENDBRANCH  16  19
ENDBRANCH   2  13
BRANCH   9  22
ATOM     22  O   UNL     1     -34.555  19.409   1.462  0.00  0.00    -0.446 OA
ATOM     23  C   UNL     1     -33.184  19.297   1.104  0.00  0.00    +0.255 C 
ENDBRANCH   9  22
TORSDOF 5
ENDMDL
MODEL 7
REMARK VINA RESULT:      -5.2      4.387      6.875
REMARK  Name = 197611
REMARK  5 active torsions:
REMARK  status: ('A' for Active; 'I' for Inactive)
REMARK    1  A    between atoms: N_2  and  C_13
REMARK    2  A    between atoms: C_9  and  O_22
REMARK    3  A    between atoms: C_14  and  O_17
REMARK    4  A    between atoms: C_16  and  C_19
REMARK    5  A    between atoms: C_19  and  O_20
REMARK                            x       y       z     vdW  Elec       q    Type
REMARK                         _______ _______ _______ _____ _____    ______ ____
ROOT
ATOM      1  I   UNL     1     -31.614  22.577  -1.520  0.00  0.00    +0.072 I 
ATOM      2  N   UNL     1     -35.782  22.332   1.881  0.00  0.00    -0.236 N 
ATOM      3  N   UNL     1     -35.515  20.224   2.560  0.00  0.00    -0.239 NA
ATOM      4  N   UNL     1     -33.919  22.508   0.332  0.00  0.00    -0.318 NA
ATOM      5  N   UNL     1     -32.660  20.420   0.217  0.00  0.00    -0.297 NA
ATOM      6  C   UNL     1     -34.687  21.855   1.216  0.00  0.00    +0.223 C 
ATOM      7  C   UNL     1     -36.243  21.315   2.676  0.00  0.00    +0.224 C 
ATOM      8  C   UNL     1     -34.539  20.547   1.651  0.00  0.00    +0.190 C 
ATOM      9  C   UNL     1     -33.479  19.823   1.115  0.00  0.00    +0.310 C 
ATOM     10  C   UNL     1     -32.927  21.707  -0.115  0.00  0.00    +0.172 C 
ENDROOT
BRANCH   2  13
ATOM     11  F   UNL     1     -38.459  24.640   1.468  0.00  0.00    -0.230 F 
ATOM     12  O   UNL     1     -35.570  24.604   2.542  0.00  0.00    -0.333 OA
ATOM     13  C   UNL     1     -36.359  23.671   1.774  0.00  0.00    +0.231 C 
ATOM     14  C   UNL     1     -37.631  24.396   3.644  0.00  0.00    +0.177 C 
ATOM     15  C   UNL     1     -37.793  23.768   2.280  0.00  0.00    +0.236 C 
ATOM     16  C   UNL     1     -36.460  25.332   3.407  0.00  0.00    +0.176 C 
BRANCH  14  17
ATOM     17  O   UNL     1     -38.788  25.087   4.065  0.00  0.00    -0.379 OA
ATOM     18  H   UNL     1     -38.682  26.035   3.887  0.00  0.00    +0.211 HD
ENDBRANCH  14  17
BRANCH  16  19
ATOM     19  C   UNL     1     -35.733  25.729   4.679  0.00  0.00    +0.169 C 
BRANCH  19  20
ATOM     20  O   UNL     1     -36.543  26.641   5.403  0.00  0.00    -0.379 OA
ATOM     21  H   UNL     1     -37.334  26.854   4.884  0.00  0.00    +0.211 HD
ENDBRANCH  19  20
ENDBRANCH  16  19
ENDBRANCH   2  13
BRANCH   9  22
ATOM     22  O   UNL     1     -33.226  18.521   1.464  0.00  0.00    -0.446 OA
ATOM     23  C   UNL     1     -33.521  17.530   0.489  0.00  0.00    +0.255 C 
ENDBRANCH   9  22
TORSDOF 5
ENDMDL
MODEL 8
REMARK VINA RESULT:      -5.2      2.014      2.600
REMARK  Name = 197611
REMARK  5 active torsions:
REMARK  status: ('A' for Active; 'I' for Inactive)
REMARK    1  A    between atoms: N_2  and  C_13
REMARK    2  A    between atoms: C_9  and  O_22
REMARK    3  A    between atoms: C_14  and  O_17
REMARK    4  A    between atoms: C_16  and  C_19
REMARK    5  A    between atoms: C_19  and  O_20
REMARK                            x       y       z     vdW  Elec       q    Type
REMARK                         _______ _______ _______ _____ _____    ______ ____
ROOT
ATOM      1  I   UNL     1     -31.826  29.546   0.780  0.00  0.00    +0.072 I 
ATOM      2  N   UNL     1     -34.095  25.792   3.906  0.00  0.00    -0.236 N 
ATOM      3  N   UNL     1     -33.545  26.654   5.889  0.00  0.00    -0.239 NA
ATOM      4  N   UNL     1     -33.093  27.451   2.440  0.00  0.00    -0.318 NA
ATOM      5  N   UNL     1     -31.995  29.217   3.718  0.00  0.00    -0.297 NA
ATOM      6  C   UNL     1     -33.396  26.937   3.641  0.00  0.00    +0.223 C 
ATOM      7  C   UNL     1     -34.158  25.667   5.269  0.00  0.00    +0.224 C 
ATOM      8  C   UNL     1     -33.064  27.456   4.883  0.00  0.00    +0.190 C 
ATOM      9  C   UNL     1     -32.336  28.640   4.895  0.00  0.00    +0.310 C 
ATOM     10  C   UNL     1     -32.389  28.595   2.579  0.00  0.00    +0.172 C 
ENDROOT
BRANCH   2  13
ATOM     11  F   UNL     1     -34.756  22.571   2.546  0.00  0.00    -0.230 F 
ATOM     12  O   UNL     1     -35.882  25.435   2.383  0.00  0.00    -0.333 OA
ATOM     13  C   UNL     1     -34.672  24.870   2.928  0.00  0.00    +0.231 C 
ATOM     14  C   UNL     1     -36.525  23.594   3.687  0.00  0.00    +0.177 C 
ATOM     15  C   UNL     1     -35.029  23.505   3.502  0.00  0.00    +0.236 C 
ATOM     16  C   UNL     1     -36.924  24.450   2.499  0.00  0.00    +0.176 C 
BRANCH  14  17
ATOM     17  O   UNL     1     -37.151  22.329   3.666  0.00  0.00    -0.379 OA
ATOM     18  H   UNL     1     -37.653  22.202   4.486  0.00  0.00    +0.211 HD
ENDBRANCH  14  17
BRANCH  16  19
ATOM     19  C   UNL     1     -38.268  25.137   2.669  0.00  0.00    +0.169 C 
BRANCH  19  20
ATOM     20  O   UNL     1     -38.729  24.919   3.993  0.00  0.00    -0.379 OA
ATOM     21  H   UNL     1     -39.176  25.717   4.314  0.00  0.00    +0.211 HD
ENDBRANCH  19  20
ENDBRANCH  16  19
ENDBRANCH   2  13
BRANCH   9  22
ATOM     22  O   UNL     1     -31.946  29.254   6.058  0.00  0.00    -0.446 OA
ATOM     23  C   UNL     1     -30.559  29.527   6.203  0.00  0.00    +0.255 C 
ENDBRANCH   9  22
TORSDOF 5
ENDMDL
MODEL 9
REMARK VINA RESULT:      -5.1      5.110      7.871
REMARK  Name = 197611
REMARK  5 active torsions:
REMARK  status: ('A' for Active; 'I' for Inactive)
REMARK    1  A    between atoms: N_2  and  C_13
REMARK    2  A    between atoms: C_9  and  O_22
REMARK    3  A    between atoms: C_14  and  O_17
REMARK    4  A    between atoms: C_16  and  C_19
REMARK    5  A    between atoms: C_19  and  O_20
REMARK                            x       y       z     vdW  Elec       q    Type
REMARK                         _______ _______ _______ _____ _____    ______ ____
ROOT
ATOM      1  I   UNL     1     -32.109  18.354   0.634  0.00  0.00    +0.072 I 
ATOM      2  N   UNL     1     -36.126  21.731   1.845  0.00  0.00    -0.236 N 
ATOM      3  N   UNL     1     -37.793  20.597   0.889  0.00  0.00    -0.239 NA
ATOM      4  N   UNL     1     -34.270  20.250   1.330  0.00  0.00    -0.318 NA
ATOM      5  N   UNL     1     -35.015  18.297   0.071  0.00  0.00    -0.297 NA
ATOM      6  C   UNL     1     -35.561  20.610   1.303  0.00  0.00    +0.223 C 
ATOM      7  C   UNL     1     -37.468  21.676   1.570  0.00  0.00    +0.224 C 
ATOM      8  C   UNL     1     -36.611  19.921   0.715  0.00  0.00    +0.190 C 
ATOM      9  C   UNL     1     -36.300  18.723   0.081  0.00  0.00    +0.310 C 
ATOM     10  C   UNL     1     -34.092  19.076   0.687  0.00  0.00    +0.172 C 
ENDROOT
BRANCH   2  13
ATOM     11  F   UNL     1     -35.569  25.107   2.817  0.00  0.00    -0.230 F 
ATOM     12  O   UNL     1     -34.926  22.267   3.823  0.00  0.00    -0.333 OA
ATOM     13  C   UNL     1     -35.440  22.791   2.580  0.00  0.00    +0.231 C 
ATOM     14  C   UNL     1     -36.657  23.748   4.380  0.00  0.00    +0.177 C 
ATOM     15  C   UNL     1     -36.328  23.979   2.925  0.00  0.00    +0.236 C 
ATOM     16  C   UNL     1     -35.367  23.130   4.886  0.00  0.00    +0.176 C 
BRANCH  14  17
ATOM     17  O   UNL     1     -36.978  24.943   5.061  0.00  0.00    -0.379 OA
ATOM     18  H   UNL     1     -36.175  25.476   5.174  0.00  0.00    +0.211 HD
ENDBRANCH  14  17
BRANCH  16  19
ATOM     19  C   UNL     1     -35.537  22.330   6.165  0.00  0.00    +0.169 C 
BRANCH  19  20
ATOM     20  O   UNL     1     -35.471  20.948   5.852  0.00  0.00    -0.379 OA
ATOM     21  H   UNL     1     -34.582  20.614   6.049  0.00  0.00    +0.211 HD
ENDBRANCH  19  20
ENDBRANCH  16  19
ENDBRANCH   2  13
BRANCH   9  22
ATOM     22  O   UNL     1     -37.249  17.949  -0.538  0.00  0.00    -0.446 OA
ATOM     23  C   UNL     1     -37.361  18.082  -1.949  0.00  0.00    +0.255 C 
ENDBRANCH   9  22
TORSDOF 5
ENDMDL
