MODEL 1
REMARK VINA RESULT:      -5.3      0.000      0.000
REMARK  Name = 5233914
REMARK  8 active torsions:
REMARK  status: ('A' for Active; 'I' for Inactive)
REMARK    1  A    between atoms: C_1  and  S_14
REMARK    2  A    between atoms: C_2  and  N_8
REMARK    3  A    between atoms: C_4  and  O_12
REMARK    4  A    between atoms: S_14  and  C_15
REMARK    5  A    between atoms: C_15  and  C_16
REMARK    6  A    between atoms: C_16  and  N_17
REMARK    7  A    between atoms: C_16  and  C_22
REMARK    8  A    between atoms: C_22  and  O_23
REMARK                            x       y       z     vdW  Elec       q    Type
REMARK                         _______ _______ _______ _____ _____    ______ ____
ROOT
ATOM      1  C   UNK     1     -35.978  22.755   4.131  0.00  0.00    +0.060 C 
ATOM      2  C   UNK     1     -35.612  20.911   2.583  0.00  0.00    +0.051 C 
ATOM      3  C   UNK     1     -35.243  21.629   3.721  0.00  0.00    +0.024 C 
ATOM      4  C   UNK     1     -37.093  23.142   3.367  0.00  0.00    +0.139 C 
ATOM      5  C   UNK     1     -36.722  21.309   1.837  0.00  0.00    +0.018 C 
ATOM      6  C   UNK     1     -37.463  22.424   2.230  0.00  0.00    +0.038 C 
ENDROOT
BRANCH   2   8
ATOM      7  O   UNK     1     -33.367  20.661   0.592  0.00  0.00    -0.275 OA
ATOM      8  N   UNK     1     -34.872  19.797   2.189  0.00  0.00    -0.284 N 
ATOM      9  C   UNK     1     -33.832  19.735   1.250  0.00  0.00    +0.227 C 
ATOM     10  C   UNK     1     -33.289  18.336   1.108  0.00  0.00    +0.095 C 
ATOM     11  H   UNK     1     -35.110  18.947   2.624  0.00  0.00    +0.155 HD
ENDBRANCH   2   8
BRANCH   4  12
ATOM     12  O   UNK     1     -37.839  24.227   3.720  0.00  0.00    -0.505 OA
ATOM     13  H   UNK     1     -37.488  24.865   4.309  0.00  0.00    +0.292 HD
ENDBRANCH   4  12
BRANCH   1  14
ATOM     14  S   UNK     1     -35.479  23.638   5.576  0.00  0.00    -0.112 S 
BRANCH  14  15
ATOM     15  C   UNK     1     -34.431  24.915   4.807  0.00  0.00    +0.051 C 
BRANCH  15  16
ATOM     16  C   UNK     1     -35.087  26.295   4.850  0.00  0.00    +0.047 C 
BRANCH  16  17
ATOM     17  N   UNK     1     -36.365  26.220   5.563  0.00  0.00    +0.389 N 
ATOM     18  H   UNK     1     -36.624  25.242   5.694  0.00  0.00    -0.088 HD
ATOM     19  H   UNK     1     -37.086  26.693   5.020  0.00  0.00    -0.088 HD
ATOM     20  H   UNK     1     -36.274  26.673   6.473  0.00  0.00    -0.088 HD
ENDBRANCH  16  17
BRANCH  16  22
ATOM     21  O   UNK     1     -35.623  26.130   2.498  0.00  0.00    -0.253 OA
ATOM     22  C   UNK     1     -35.371  26.841   3.463  0.00  0.00    +0.294 C 
BRANCH  22  23
ATOM     23  O   UNK     1     -35.286  28.193   3.379  0.00  0.00    -0.482 OA
ATOM     24  H   UNK     1     -36.020  28.724   3.615  0.00  0.00    +0.295 HD
ENDBRANCH  22  23
ENDBRANCH  16  22
ENDBRANCH  15  16
ENDBRANCH  14  15
ENDBRANCH   1  14
TORSDOF 8
ENDMDL
MODEL 2
REMARK VINA RESULT:      -5.2      2.423      6.242
REMARK  Name = 5233914
REMARK  8 active torsions:
REMARK  status: ('A' for Active; 'I' for Inactive)
REMARK    1  A    between atoms: C_1  and  S_14
REMARK    2  A    between atoms: C_2  and  N_8
REMARK    3  A    between atoms: C_4  and  O_12
REMARK    4  A    between atoms: S_14  and  C_15
REMARK    5  A    between atoms: C_15  and  C_16
REMARK    6  A    between atoms: C_16  and  N_17
REMARK    7  A    between atoms: C_16  and  C_22
REMARK    8  A    between atoms: C_22  and  O_23
REMARK                            x       y       z     vdW  Elec       q    Type
REMARK                         _______ _______ _______ _____ _____    ______ ____
ROOT
ATOM      1  C   UNK     1     -36.329  24.359   3.595  0.00  0.00    +0.060 C 
ATOM      2  C   UNK     1     -34.827  26.099   4.401  0.00  0.00    +0.051 C 
ATOM      3  C   UNK     1     -35.757  25.637   3.468  0.00  0.00    +0.024 C 
ATOM      4  C   UNK     1     -35.942  23.557   4.683  0.00  0.00    +0.139 C 
ATOM      5  C   UNK     1     -34.456  25.289   5.474  0.00  0.00    +0.018 C 
ATOM      6  C   UNK     1     -35.014  24.018   5.616  0.00  0.00    +0.038 C 
ENDROOT
BRANCH   2   8
ATOM      7  O   UNK     1     -32.069  26.934   3.530  0.00  0.00    -0.275 OA
ATOM      8  N   UNK     1     -34.268  27.368   4.260  0.00  0.00    -0.284 N 
ATOM      9  C   UNK     1     -32.970  27.703   3.851  0.00  0.00    +0.227 C 
ATOM     10  C   UNK     1     -32.757  29.195   3.830  0.00  0.00    +0.095 C 
ATOM     11  H   UNK     1     -34.859  28.125   4.476  0.00  0.00    +0.155 HD
ENDBRANCH   2   8
BRANCH   4  12
ATOM     12  O   UNK     1     -36.465  22.309   4.852  0.00  0.00    -0.505 OA
ATOM     13  H   UNK     1     -35.996  21.667   5.348  0.00  0.00    +0.292 HD
ENDBRANCH   4  12
BRANCH   1  14
ATOM     14  S   UNK     1     -37.500  23.809   2.394  0.00  0.00    -0.112 S 
BRANCH  14  15
ATOM     15  C   UNK     1     -36.450  22.660   1.447  0.00  0.00    +0.051 C 
BRANCH  15  16
ATOM     16  C   UNK     1     -36.975  21.224   1.508  0.00  0.00    +0.047 C 
BRANCH  16  17
ATOM     17  N   UNK     1     -38.132  21.152   2.403  0.00  0.00    +0.389 N 
ATOM     18  H   UNK     1     -38.583  22.066   2.449  0.00  0.00    -0.088 HD
ATOM     19  H   UNK     1     -37.825  20.876   3.334  0.00  0.00    -0.088 HD
ATOM     20  H   UNK     1     -38.795  20.463   2.046  0.00  0.00    -0.088 HD
ENDBRANCH  16  17
BRANCH  16  22
ATOM     21  O   UNK     1     -35.311  20.427   3.070  0.00  0.00    -0.253 OA
ATOM     22  C   UNK     1     -35.933  20.253   2.030  0.00  0.00    +0.294 C 
BRANCH  22  23
ATOM     23  O   UNK     1     -35.726  19.184   1.219  0.00  0.00    -0.482 OA
ATOM     24  H   UNK     1     -34.855  18.877   1.061  0.00  0.00    +0.295 HD
ENDBRANCH  22  23
ENDBRANCH  16  22
ENDBRANCH  15  16
ENDBRANCH  14  15
ENDBRANCH   1  14
TORSDOF 8
ENDMDL
MODEL 3
REMARK VINA RESULT:      -5.1      2.814      5.912
REMARK  Name = 5233914
REMARK  8 active torsions:
REMARK  status: ('A' for Active; 'I' for Inactive)
REMARK    1  A    between atoms: C_1  and  S_14
REMARK    2  A    between atoms: C_2  and  N_8
REMARK    3  A    between atoms: C_4  and  O_12
REMARK    4  A    between atoms: S_14  and  C_15
REMARK    5  A    between atoms: C_15  and  C_16
REMARK    6  A    between atoms: C_16  and  N_17
REMARK    7  A    between atoms: C_16  and  C_22
REMARK    8  A    between atoms: C_22  and  O_23
REMARK                            x       y       z     vdW  Elec       q    Type
REMARK                         _______ _______ _______ _____ _____    ______ ____
ROOT
ATOM      1  C   UNK     1     -35.454  22.107   3.770  0.00  0.00    +0.060 C 
ATOM      2  C   UNK     1     -35.271  24.497   4.196  0.00  0.00    +0.051 C 
ATOM      3  C   UNK     1     -35.401  23.432   3.305  0.00  0.00    +0.024 C 
ATOM      4  C   UNK     1     -35.372  21.879   5.155  0.00  0.00    +0.139 C 
ATOM      5  C   UNK     1     -35.192  24.253   5.568  0.00  0.00    +0.018 C 
ATOM      6  C   UNK     1     -35.244  22.943   6.047  0.00  0.00    +0.038 C 
ENDROOT
BRANCH   2   8
ATOM      7  O   UNK     1     -32.954  26.407   3.978  0.00  0.00    -0.275 OA
ATOM      8  N   UNK     1     -35.219  25.806   3.719  0.00  0.00    -0.284 N 
ATOM      9  C   UNK     1     -34.107  26.656   3.641  0.00  0.00    +0.227 C 
ATOM     10  C   UNK     1     -34.469  28.000   3.062  0.00  0.00    +0.095 C 
ATOM     11  H   UNK     1     -36.070  26.181   3.396  0.00  0.00    +0.155 HD
ENDBRANCH   2   8
BRANCH   4  12
ATOM     12  O   UNK     1     -35.417  20.613   5.659  0.00  0.00    -0.505 OA
ATOM     13  H   UNK     1     -34.807  20.349   6.319  0.00  0.00    +0.292 HD
ENDBRANCH   4  12
BRANCH   1  14
ATOM     14  S   UNK     1     -35.616  20.785   2.611  0.00  0.00    -0.112 S 
BRANCH  14  15
ATOM     15  C   UNK     1     -36.594  21.625   1.324  0.00  0.00    +0.051 C 
BRANCH  15  16
ATOM     16  C   UNK     1     -37.985  21.008   1.168  0.00  0.00    +0.047 C 
BRANCH  16  17
ATOM     17  N   UNK     1     -38.412  21.082  -0.231  0.00  0.00    +0.389 N 
ATOM     18  H   UNK     1     -37.591  21.131  -0.835  0.00  0.00    -0.088 HD
ATOM     19  H   UNK     1     -38.984  21.914  -0.368  0.00  0.00    -0.088 HD
ATOM     20  H   UNK     1     -38.958  20.253  -0.465  0.00  0.00    -0.088 HD
ENDBRANCH  16  17
BRANCH  16  22
ATOM     21  O   UNK     1     -38.851  22.829   2.503  0.00  0.00    -0.253 OA
ATOM     22  C   UNK     1     -39.029  21.725   2.003  0.00  0.00    +0.294 C 
BRANCH  22  23
ATOM     23  O   UNK     1     -40.174  21.016   2.176  0.00  0.00    -0.482 OA
ATOM     24  H   UNK     1     -40.132  20.114   2.425  0.00  0.00    +0.295 HD
ENDBRANCH  22  23
ENDBRANCH  16  22
ENDBRANCH  15  16
ENDBRANCH  14  15
ENDBRANCH   1  14
TORSDOF 8
ENDMDL
MODEL 4
REMARK VINA RESULT:      -4.9      2.814      6.135
REMARK  Name = 5233914
REMARK  8 active torsions:
REMARK  status: ('A' for Active; 'I' for Inactive)
REMARK    1  A    between atoms: C_1  and  S_14
REMARK    2  A    between atoms: C_2  and  N_8
REMARK    3  A    between atoms: C_4  and  O_12
REMARK    4  A    between atoms: S_14  and  C_15
REMARK    5  A    between atoms: C_15  and  C_16
REMARK    6  A    between atoms: C_16  and  N_17
REMARK    7  A    between atoms: C_16  and  C_22
REMARK    8  A    between atoms: C_22  and  O_23
REMARK                            x       y       z     vdW  Elec       q    Type
REMARK                         _______ _______ _______ _____ _____    ______ ____
ROOT
ATOM      1  C   UNK     1     -35.429  22.112   3.787  0.00  0.00    +0.060 C 
ATOM      2  C   UNK     1     -35.213  24.497   4.226  0.00  0.00    +0.051 C 
ATOM      3  C   UNK     1     -35.362  23.439   3.329  0.00  0.00    +0.024 C 
ATOM      4  C   UNK     1     -35.343  21.875   5.171  0.00  0.00    +0.139 C 
ATOM      5  C   UNK     1     -35.131  24.244   5.595  0.00  0.00    +0.018 C 
ATOM      6  C   UNK     1     -35.196  22.933   6.068  0.00  0.00    +0.038 C 
ENDROOT
BRANCH   2   8
ATOM      7  O   UNK     1     -32.849  26.325   3.861  0.00  0.00    -0.275 OA
ATOM      8  N   UNK     1     -35.147  25.808   3.755  0.00  0.00    -0.284 N 
ATOM      9  C   UNK     1     -34.013  26.619   3.606  0.00  0.00    +0.227 C 
ATOM     10  C   UNK     1     -34.365  27.980   3.064  0.00  0.00    +0.095 C 
ATOM     11  H   UNK     1     -36.004  26.216   3.495  0.00  0.00    +0.155 HD
ENDBRANCH   2   8
BRANCH   4  12
ATOM     12  O   UNK     1     -35.402  20.607   5.668  0.00  0.00    -0.505 OA
ATOM     13  H   UNK     1     -35.148  20.439   6.553  0.00  0.00    +0.292 HD
ENDBRANCH   4  12
BRANCH   1  14
ATOM     14  S   UNK     1     -35.615  20.799   2.622  0.00  0.00    -0.112 S 
BRANCH  14  15
ATOM     15  C   UNK     1     -36.318  21.729   1.222  0.00  0.00    +0.051 C 
BRANCH  15  16
ATOM     16  C   UNK     1     -37.774  21.344   0.954  0.00  0.00    +0.047 C 
BRANCH  16  17
ATOM     17  N   UNK     1     -38.451  21.035   2.216  0.00  0.00    +0.389 N 
ATOM     18  H   UNK     1     -38.862  20.103   2.161  0.00  0.00    -0.088 HD
ATOM     19  H   UNK     1     -39.185  21.721   2.385  0.00  0.00    -0.088 HD
ATOM     20  H   UNK     1     -37.776  21.065   2.980  0.00  0.00    -0.088 HD
ENDBRANCH  16  17
BRANCH  16  22
ATOM     21  O   UNK     1     -36.938  19.619  -0.521  0.00  0.00    -0.253 OA
ATOM     22  C   UNK     1     -37.890  20.122   0.062  0.00  0.00    +0.294 C 
BRANCH  22  23
ATOM     23  O   UNK     1     -39.158  19.653  -0.060  0.00  0.00    -0.482 OA
ATOM     24  H   UNK     1     -39.619  19.345   0.695  0.00  0.00    +0.295 HD
ENDBRANCH  22  23
ENDBRANCH  16  22
ENDBRANCH  15  16
ENDBRANCH  14  15
ENDBRANCH   1  14
TORSDOF 8
ENDMDL
MODEL 5
REMARK VINA RESULT:      -4.7      3.482      7.165
REMARK  Name = 5233914
REMARK  8 active torsions:
REMARK  status: ('A' for Active; 'I' for Inactive)
REMARK    1  A    between atoms: C_1  and  S_14
REMARK    2  A    between atoms: C_2  and  N_8
REMARK    3  A    between atoms: C_4  and  O_12
REMARK    4  A    between atoms: S_14  and  C_15
REMARK    5  A    between atoms: C_15  and  C_16
REMARK    6  A    between atoms: C_16  and  N_17
REMARK    7  A    between atoms: C_16  and  C_22
REMARK    8  A    between atoms: C_22  and  O_23
REMARK                            x       y       z     vdW  Elec       q    Type
REMARK                         _______ _______ _______ _____ _____    ______ ____
ROOT
ATOM      1  C   UNK     1     -34.535  26.750   4.533  0.00  0.00    +0.060 C 
ATOM      2  C   UNK     1     -32.459  28.024   4.544  0.00  0.00    +0.051 C 
ATOM      3  C   UNK     1     -33.282  27.043   5.099  0.00  0.00    +0.024 C 
ATOM      4  C   UNK     1     -34.942  27.471   3.396  0.00  0.00    +0.139 C 
ATOM      5  C   UNK     1     -32.879  28.728   3.415  0.00  0.00    +0.018 C 
ATOM      6  C   UNK     1     -34.120  28.451   2.841  0.00  0.00    +0.038 C 
ENDROOT
BRANCH   2   8
ATOM      7  O   UNK     1     -31.762  29.521   7.061  0.00  0.00    -0.275 OA
ATOM      8  N   UNK     1     -31.219  28.303   5.118  0.00  0.00    -0.284 N 
ATOM      9  C   UNK     1     -30.949  29.010   6.297  0.00  0.00    +0.227 C 
ATOM     10  C   UNK     1     -29.470  29.094   6.574  0.00  0.00    +0.095 C 
ATOM     11  H   UNK     1     -30.434  27.960   4.632  0.00  0.00    +0.155 HD
ENDBRANCH   2   8
BRANCH   4  12
ATOM     12  O   UNK     1     -36.148  27.228   2.810  0.00  0.00    -0.505 OA
ATOM     13  H   UNK     1     -36.254  26.487   2.246  0.00  0.00    +0.292 HD
ENDBRANCH   4  12
BRANCH   1  14
ATOM     14  S   UNK     1     -35.548  25.503   5.265  0.00  0.00    -0.112 S 
BRANCH  14  15
ATOM     15  C   UNK     1     -34.550  24.030   4.875  0.00  0.00    +0.051 C 
BRANCH  15  16
ATOM     16  C   UNK     1     -35.423  22.828   4.511  0.00  0.00    +0.047 C 
BRANCH  16  17
ATOM     17  N   UNK     1     -36.777  23.276   4.178  0.00  0.00    +0.389 N 
ATOM     18  H   UNK     1     -36.768  24.280   3.996  0.00  0.00    -0.088 HD
ATOM     19  H   UNK     1     -37.402  23.077   4.958  0.00  0.00    -0.088 HD
ATOM     20  H   UNK     1     -37.104  22.783   3.346  0.00  0.00    -0.088 HD
ENDBRANCH  16  17
BRANCH  16  22
ATOM     21  O   UNK     1     -36.017  22.115   6.744  0.00  0.00    -0.253 OA
ATOM     22  C   UNK     1     -35.538  21.835   5.651  0.00  0.00    +0.294 C 
BRANCH  22  23
ATOM     23  O   UNK     1     -35.029  20.610   5.364  0.00  0.00    -0.482 OA
ATOM     24  H   UNK     1     -35.448  19.839   5.692  0.00  0.00    +0.295 HD
ENDBRANCH  22  23
ENDBRANCH  16  22
ENDBRANCH  15  16
ENDBRANCH  14  15
ENDBRANCH   1  14
TORSDOF 8
ENDMDL
MODEL 6
REMARK VINA RESULT:      -4.7      2.131      6.257
REMARK  Name = 5233914
REMARK  8 active torsions:
REMARK  status: ('A' for Active; 'I' for Inactive)
REMARK    1  A    between atoms: C_1  and  S_14
REMARK    2  A    between atoms: C_2  and  N_8
REMARK    3  A    between atoms: C_4  and  O_12
REMARK    4  A    between atoms: S_14  and  C_15
REMARK    5  A    between atoms: C_15  and  C_16
REMARK    6  A    between atoms: C_16  and  N_17
REMARK    7  A    between atoms: C_16  and  C_22
REMARK    8  A    between atoms: C_22  and  O_23
REMARK                            x       y       z     vdW  Elec       q    Type
REMARK                         _______ _______ _______ _____ _____    ______ ____
ROOT
ATOM      1  C   UNK     1     -35.814  23.477   4.413  0.00  0.00    +0.060 C 
ATOM      2  C   UNK     1     -35.055  25.576   5.388  0.00  0.00    +0.051 C 
ATOM      3  C   UNK     1     -34.855  24.220   5.124  0.00  0.00    +0.024 C 
ATOM      4  C   UNK     1     -36.979  24.132   3.975  0.00  0.00    +0.139 C 
ATOM      5  C   UNK     1     -36.216  26.209   4.945  0.00  0.00    +0.018 C 
ATOM      6  C   UNK     1     -37.179  25.487   4.238  0.00  0.00    +0.038 C 
ENDROOT
BRANCH   2   8
ATOM      7  O   UNK     1     -32.685  27.155   4.410  0.00  0.00    -0.275 OA
ATOM      8  N   UNK     1     -34.095  26.299   6.095  0.00  0.00    -0.284 N 
ATOM      9  C   UNK     1     -33.004  27.018   5.587  0.00  0.00    +0.227 C 
ATOM     10  C   UNK     1     -32.198  27.663   6.686  0.00  0.00    +0.095 C 
ATOM     11  H   UNK     1     -34.195  26.303   7.074  0.00  0.00    +0.155 HD
ENDBRANCH   2   8
BRANCH   4  12
ATOM     12  O   UNK     1     -37.941  23.458   3.283  0.00  0.00    -0.505 OA
ATOM     13  H   UNK     1     -38.840  23.705   3.369  0.00  0.00    +0.292 HD
ENDBRANCH   4  12
BRANCH   1  14
ATOM     14  S   UNK     1     -35.528  21.764   4.100  0.00  0.00    -0.112 S 
BRANCH  14  15
ATOM     15  C   UNK     1     -35.273  21.821   2.297  0.00  0.00    +0.051 C 
BRANCH  15  16
ATOM     16  C   UNK     1     -36.312  20.987   1.546  0.00  0.00    +0.047 C 
BRANCH  16  17
ATOM     17  N   UNK     1     -37.488  20.771   2.394  0.00  0.00    +0.389 N 
ATOM     18  H   UNK     1     -37.443  19.838   2.805  0.00  0.00    -0.088 HD
ATOM     19  H   UNK     1     -38.333  20.854   1.830  0.00  0.00    -0.088 HD
ATOM     20  H   UNK     1     -37.505  21.470   3.137  0.00  0.00    -0.088 HD
ENDBRANCH  16  17
BRANCH  16  22
ATOM     21  O   UNK     1     -34.589  19.388   0.978  0.00  0.00    -0.253 OA
ATOM     22  C   UNK     1     -35.778  19.622   1.151  0.00  0.00    +0.294 C 
BRANCH  22  23
ATOM     23  O   UNK     1     -36.746  18.687   0.972  0.00  0.00    -0.482 OA
ATOM     24  H   UNK     1     -36.681  17.857   1.401  0.00  0.00    +0.295 HD
ENDBRANCH  22  23
ENDBRANCH  16  22
ENDBRANCH  15  16
ENDBRANCH  14  15
ENDBRANCH   1  14
TORSDOF 8
ENDMDL
MODEL 7
REMARK VINA RESULT:      -4.7      1.735      2.005
REMARK  Name = 5233914
REMARK  8 active torsions:
REMARK  status: ('A' for Active; 'I' for Inactive)
REMARK    1  A    between atoms: C_1  and  S_14
REMARK    2  A    between atoms: C_2  and  N_8
REMARK    3  A    between atoms: C_4  and  O_12
REMARK    4  A    between atoms: S_14  and  C_15
REMARK    5  A    between atoms: C_15  and  C_16
REMARK    6  A    between atoms: C_16  and  N_17
REMARK    7  A    between atoms: C_16  and  C_22
REMARK    8  A    between atoms: C_22  and  O_23
REMARK                            x       y       z     vdW  Elec       q    Type
REMARK                         _______ _______ _______ _____ _____    ______ ____
ROOT
ATOM      1  C   UNK     1     -37.217  22.993   2.789  0.00  0.00    +0.060 C 
ATOM      2  C   UNK     1     -36.174  20.878   2.182  0.00  0.00    +0.051 C 
ATOM      3  C   UNK     1     -36.098  22.142   2.767  0.00  0.00    +0.024 C 
ATOM      4  C   UNK     1     -38.415  22.540   2.207  0.00  0.00    +0.139 C 
ATOM      5  C   UNK     1     -37.371  20.445   1.610  0.00  0.00    +0.018 C 
ATOM      6  C   UNK     1     -38.491  21.276   1.624  0.00  0.00    +0.038 C 
ENDROOT
BRANCH   2   8
ATOM      7  O   UNK     1     -34.410  20.015  -0.101  0.00  0.00    -0.275 OA
ATOM      8  N   UNK     1     -35.055  20.046   2.167  0.00  0.00    -0.284 N 
ATOM      9  C   UNK     1     -34.267  19.673   1.069  0.00  0.00    +0.227 C 
ATOM     10  C   UNK     1     -33.142  18.754   1.474  0.00  0.00    +0.095 C 
ATOM     11  H   UNK     1     -34.784  19.673   3.037  0.00  0.00    +0.155 HD
ENDBRANCH   2   8
BRANCH   4  12
ATOM     12  O   UNK     1     -39.529  23.326   2.201  0.00  0.00    -0.505 OA
ATOM     13  H   UNK     1     -40.317  23.024   2.605  0.00  0.00    +0.292 HD
ENDBRANCH   4  12
BRANCH   1  14
ATOM     14  S   UNK     1     -37.081  24.586   3.536  0.00  0.00    -0.112 S 
BRANCH  14  15
ATOM     15  C   UNK     1     -35.935  24.191   4.896  0.00  0.00    +0.051 C 
BRANCH  15  16
ATOM     16  C   UNK     1     -35.556  25.433   5.703  0.00  0.00    +0.047 C 
BRANCH  16  17
ATOM     17  N   UNK     1     -36.406  26.561   5.315  0.00  0.00    +0.389 N 
ATOM     18  H   UNK     1     -35.876  27.195   4.716  0.00  0.00    -0.088 HD
ATOM     19  H   UNK     1     -36.712  27.059   6.150  0.00  0.00    -0.088 HD
ATOM     20  H   UNK     1     -37.220  26.215   4.808  0.00  0.00    -0.088 HD
ENDBRANCH  16  17
BRANCH  16  22
ATOM     21  O   UNK     1     -33.606  26.833   5.998  0.00  0.00    -0.253 OA
ATOM     22  C   UNK     1     -34.114  25.848   5.476  0.00  0.00    +0.294 C 
BRANCH  22  23
ATOM     23  O   UNK     1     -33.444  25.047   4.609  0.00  0.00    -0.482 OA
ATOM     24  H   UNK     1     -33.418  25.261   3.698  0.00  0.00    +0.295 HD
ENDBRANCH  22  23
ENDBRANCH  16  22
ENDBRANCH  15  16
ENDBRANCH  14  15
ENDBRANCH   1  14
TORSDOF 8
ENDMDL
MODEL 8
REMARK VINA RESULT:      -4.7      2.316      6.186
REMARK  Name = 5233914
REMARK  8 active torsions:
REMARK  status: ('A' for Active; 'I' for Inactive)
REMARK    1  A    between atoms: C_1  and  S_14
REMARK    2  A    between atoms: C_2  and  N_8
REMARK    3  A    between atoms: C_4  and  O_12
REMARK    4  A    between atoms: S_14  and  C_15
REMARK    5  A    between atoms: C_15  and  C_16
REMARK    6  A    between atoms: C_16  and  N_17
REMARK    7  A    between atoms: C_16  and  C_22
REMARK    8  A    between atoms: C_22  and  O_23
REMARK                            x       y       z     vdW  Elec       q    Type
REMARK                         _______ _______ _______ _____ _____    ______ ____
ROOT
ATOM      1  C   UNK     1     -35.506  22.114   3.762  0.00  0.00    +0.060 C 
ATOM      2  C   UNK     1     -35.211  24.495   4.180  0.00  0.00    +0.051 C 
ATOM      3  C   UNK     1     -35.434  23.439   3.296  0.00  0.00    +0.024 C 
ATOM      4  C   UNK     1     -35.348  21.879   5.139  0.00  0.00    +0.139 C 
ATOM      5  C   UNK     1     -35.058  24.243   5.543  0.00  0.00    +0.018 C 
ATOM      6  C   UNK     1     -35.127  22.934   6.023  0.00  0.00    +0.038 C 
ENDROOT
BRANCH   2   8
ATOM      7  O   UNK     1     -32.849  26.332   3.849  0.00  0.00    -0.275 OA
ATOM      8  N   UNK     1     -35.142  25.804   3.702  0.00  0.00    -0.284 N 
ATOM      9  C   UNK     1     -34.009  26.618   3.570  0.00  0.00    +0.227 C 
ATOM     10  C   UNK     1     -34.357  27.975   3.012  0.00  0.00    +0.095 C 
ATOM     11  H   UNK     1     -35.996  26.205   3.423  0.00  0.00    +0.155 HD
ENDBRANCH   2   8
BRANCH   4  12
ATOM     12  O   UNK     1     -35.407  20.613   5.642  0.00  0.00    -0.505 OA
ATOM     13  H   UNK     1     -35.849  19.939   5.165  0.00  0.00    +0.292 HD
ENDBRANCH   4  12
BRANCH   1  14
ATOM     14  S   UNK     1     -35.786  20.804   2.613  0.00  0.00    -0.112 S 
BRANCH  14  15
ATOM     15  C   UNK     1     -34.642  21.308   1.288  0.00  0.00    +0.051 C 
BRANCH  15  16
ATOM     16  C   UNK     1     -33.944  20.108   0.647  0.00  0.00    +0.047 C 
BRANCH  16  17
ATOM     17  N   UNK     1     -33.934  18.978   1.580  0.00  0.00    +0.389 N 
ATOM     18  H   UNK     1     -33.070  18.449   1.462  0.00  0.00    -0.088 HD
ATOM     19  H   UNK     1     -34.732  18.373   1.390  0.00  0.00    -0.088 HD
ATOM     20  H   UNK     1     -33.992  19.327   2.537  0.00  0.00    -0.088 HD
ENDBRANCH  16  17
BRANCH  16  22
ATOM     21  O   UNK     1     -31.575  19.641   0.506  0.00  0.00    -0.253 OA
ATOM     22  C   UNK     1     -32.503  20.408   0.279  0.00  0.00    +0.294 C 
BRANCH  22  23
ATOM     23  O   UNK     1     -32.327  21.626  -0.295  0.00  0.00    -0.482 OA
ATOM     24  H   UNK     1     -31.819  21.706  -1.077  0.00  0.00    +0.295 HD
ENDBRANCH  22  23
ENDBRANCH  16  22
ENDBRANCH  15  16
ENDBRANCH  14  15
ENDBRANCH   1  14
TORSDOF 8
ENDMDL
MODEL 9
REMARK VINA RESULT:      -4.6      3.546      5.724
REMARK  Name = 5233914
REMARK  8 active torsions:
REMARK  status: ('A' for Active; 'I' for Inactive)
REMARK    1  A    between atoms: C_1  and  S_14
REMARK    2  A    between atoms: C_2  and  N_8
REMARK    3  A    between atoms: C_4  and  O_12
REMARK    4  A    between atoms: S_14  and  C_15
REMARK    5  A    between atoms: C_15  and  C_16
REMARK    6  A    between atoms: C_16  and  N_17
REMARK    7  A    between atoms: C_16  and  C_22
REMARK    8  A    between atoms: C_22  and  O_23
REMARK                            x       y       z     vdW  Elec       q    Type
REMARK                         _______ _______ _______ _____ _____    ______ ____
ROOT
ATOM      1  C   UNK     1     -35.812  24.088   3.266  0.00  0.00    +0.060 C 
ATOM      2  C   UNK     1     -34.873  26.123   4.216  0.00  0.00    +0.051 C 
ATOM      3  C   UNK     1     -35.305  25.390   3.111  0.00  0.00    +0.024 C 
ATOM      4  C   UNK     1     -35.874  23.542   4.561  0.00  0.00    +0.139 C 
ATOM      5  C   UNK     1     -34.942  25.566   5.493  0.00  0.00    +0.018 C 
ATOM      6  C   UNK     1     -35.443  24.275   5.666  0.00  0.00    +0.038 C 
ENDROOT
BRANCH   2   8
ATOM      7  O   UNK     1     -32.063  27.076   3.701  0.00  0.00    -0.275 OA
ATOM      8  N   UNK     1     -34.371  27.413   4.046  0.00  0.00    -0.284 N 
ATOM      9  C   UNK     1     -33.046  27.803   3.809  0.00  0.00    +0.227 C 
ATOM     10  C   UNK     1     -32.916  29.300   3.683  0.00  0.00    +0.095 C 
ATOM     11  H   UNK     1     -35.031  28.142   4.099  0.00  0.00    +0.155 HD
ENDBRANCH   2   8
BRANCH   4  12
ATOM     12  O   UNK     1     -36.356  22.283   4.766  0.00  0.00    -0.505 OA
ATOM     13  H   UNK     1     -35.768  21.586   4.980  0.00  0.00    +0.292 HD
ENDBRANCH   4  12
BRANCH   1  14
ATOM     14  S   UNK     1     -36.347  23.189   1.844  0.00  0.00    -0.112 S 
BRANCH  14  15
ATOM     15  C   UNK     1     -37.882  24.096   1.469  0.00  0.00    +0.051 C 
BRANCH  15  16
ATOM     16  C   UNK     1     -38.939  23.907   2.558  0.00  0.00    +0.047 C 
BRANCH  16  17
ATOM     17  N   UNK     1     -40.134  23.276   1.993  0.00  0.00    +0.389 N 
ATOM     18  H   UNK     1     -40.963  23.791   2.290  0.00  0.00    -0.088 HD
ATOM     19  H   UNK     1     -40.197  22.313   2.321  0.00  0.00    -0.088 HD
ATOM     20  H   UNK     1     -40.074  23.285   0.975  0.00  0.00    -0.088 HD
ENDBRANCH  16  17
BRANCH  16  22
ATOM     21  O   UNK     1     -38.952  26.314   2.801  0.00  0.00    -0.253 OA
ATOM     22  C   UNK     1     -39.368  25.224   3.177  0.00  0.00    +0.294 C 
BRANCH  22  23
ATOM     23  O   UNK     1     -40.233  25.086   4.214  0.00  0.00    -0.482 OA
ATOM     24  H   UNK     1     -40.944  24.479   4.153  0.00  0.00    +0.295 HD
ENDBRANCH  22  23
ENDBRANCH  16  22
ENDBRANCH  15  16
ENDBRANCH  14  15
ENDBRANCH   1  14
TORSDOF 8
ENDMDL
