MODEL 1
REMARK VINA RESULT:      -5.0      0.000      0.000
REMARK  Name = 191901
REMARK  7 active torsions:
REMARK  status: ('A' for Active; 'I' for Inactive)
REMARK    1  A    between atoms: C_2  and  C_12
REMARK    2  A    between atoms: C_3  and  C_11
REMARK    3  A    between atoms: C_4  and  O_8
REMARK    4  A    between atoms: C_12  and  S_13
REMARK    5  A    between atoms: S_13  and  P_14
REMARK    6  A    between atoms: P_14  and  O_16
REMARK    7  A    between atoms: P_14  and  O_18
REMARK                            x       y       z     vdW  Elec       q    Type
REMARK                         _______ _______ _______ _____ _____    ______ ____
ROOT
ATOM      1  N   UNL     1     -33.437  25.316   3.983  0.00  0.00    -0.245 NA
ATOM      2  C   UNL     1     -35.320  24.754   2.574  0.00  0.00    +0.015 C 
ATOM      3  C   UNL     1     -36.188  25.335   3.491  0.00  0.00    +0.075 C 
ATOM      4  C   UNL     1     -35.683  25.908   4.654  0.00  0.00    +0.150 C 
ATOM      5  C   UNL     1     -34.312  25.872   4.850  0.00  0.00    +0.093 C 
ATOM      6  C   UNL     1     -33.965  24.770   2.864  0.00  0.00    +0.095 C 
ATOM      7  C   UNL     1     -33.716  26.472   6.081  0.00  0.00    +0.055 C 
ENDROOT
BRANCH   4   8
ATOM      8  O   UNL     1     -36.506  26.483   5.569  0.00  0.00    -0.504 OA
ATOM      9  H   UNL     1     -36.300  27.327   5.920  0.00  0.00    +0.292 HD
ENDBRANCH   4   8
BRANCH   3  11
ATOM     10  O   UNL     1     -38.424  24.663   3.882  0.00  0.00    -0.283 OA
ATOM     11  C   UNL     1     -37.625  25.346   3.239  0.00  0.00    +0.237 C 
ENDBRANCH   3  11
BRANCH   2  12
ATOM     12  C   UNL     1     -35.802  24.125   1.313  0.00  0.00    +0.097 C 
BRANCH  12  13
ATOM     13  S   UNL     1     -35.330  22.373   1.180  0.00  0.00    -0.026 S 
BRANCH  13  14
ATOM     14  P   UNL     1     -36.272  21.436   2.797  0.00  0.00    +0.387 P 
ATOM     15  O   UNL     1     -35.526  21.675   4.082  0.00  0.00    -0.246 OA
BRANCH  14  16
ATOM     16  O   UNL     1     -36.463  19.860   2.466  0.00  0.00    -0.316 OA
ATOM     17  H   UNL     1     -37.035  19.759   1.688  0.00  0.00    +0.221 HD
ENDBRANCH  14  16
BRANCH  14  18
ATOM     18  O   UNL     1     -37.812  21.942   2.864  0.00  0.00    -0.316 OA
ATOM     19  H   UNL     1     -37.989  22.540   2.121  0.00  0.00    +0.221 HD
ENDBRANCH  14  18
ENDBRANCH  13  14
ENDBRANCH  12  13
ENDBRANCH   2  12
TORSDOF 7
ENDMDL
MODEL 2
REMARK VINA RESULT:      -4.8      3.058      4.629
REMARK  Name = 191901
REMARK  7 active torsions:
REMARK  status: ('A' for Active; 'I' for Inactive)
REMARK    1  A    between atoms: C_2  and  C_12
REMARK    2  A    between atoms: C_3  and  C_11
REMARK    3  A    between atoms: C_4  and  O_8
REMARK    4  A    between atoms: C_12  and  S_13
REMARK    5  A    between atoms: S_13  and  P_14
REMARK    6  A    between atoms: P_14  and  O_16
REMARK    7  A    between atoms: P_14  and  O_18
REMARK                            x       y       z     vdW  Elec       q    Type
REMARK                         _______ _______ _______ _____ _____    ______ ____
ROOT
ATOM      1  N   UNL     1     -36.081  24.010   5.251  0.00  0.00    -0.245 NA
ATOM      2  C   UNL     1     -36.735  23.902   2.926  0.00  0.00    +0.015 C 
ATOM      3  C   UNL     1     -36.337  22.572   2.868  0.00  0.00    +0.075 C 
ATOM      4  C   UNL     1     -35.811  21.959   4.001  0.00  0.00    +0.150 C 
ATOM      5  C   UNL     1     -35.705  22.715   5.156  0.00  0.00    +0.093 C 
ATOM      6  C   UNL     1     -36.587  24.572   4.130  0.00  0.00    +0.095 C 
ATOM      7  C   UNL     1     -35.147  22.107   6.401  0.00  0.00    +0.055 C 
ENDROOT
BRANCH   4   8
ATOM      8  O   UNL     1     -35.413  20.659   3.976  0.00  0.00    -0.504 OA
ATOM      9  H   UNL     1     -34.675  20.385   4.483  0.00  0.00    +0.292 HD
ENDBRANCH   4   8
BRANCH   3  11
ATOM     10  O   UNL     1     -37.162  20.804   1.529  0.00  0.00    -0.283 OA
ATOM     11  C   UNL     1     -36.468  21.817   1.626  0.00  0.00    +0.237 C 
ENDBRANCH   3  11
BRANCH   2  12
ATOM     12  C   UNL     1     -37.304  24.613   1.746  0.00  0.00    +0.097 C 
BRANCH  12  13
ATOM     13  S   UNL     1     -38.107  26.182   2.195  0.00  0.00    -0.026 S 
BRANCH  13  14
ATOM     14  P   UNL     1     -40.073  25.659   2.690  0.00  0.00    +0.387 P 
ATOM     15  O   UNL     1     -40.689  24.778   1.637  0.00  0.00    -0.246 OA
BRANCH  14  16
ATOM     16  O   UNL     1     -40.934  27.006   2.963  0.00  0.00    -0.316 OA
ATOM     17  H   UNL     1     -41.873  26.831   2.789  0.00  0.00    +0.221 HD
ENDBRANCH  14  16
BRANCH  14  18
ATOM     18  O   UNL     1     -40.072  24.972   4.159  0.00  0.00    -0.316 OA
ATOM     19  H   UNL     1     -39.199  25.080   4.567  0.00  0.00    +0.221 HD
ENDBRANCH  14  18
ENDBRANCH  13  14
ENDBRANCH  12  13
ENDBRANCH   2  12
TORSDOF 7
ENDMDL
MODEL 3
REMARK VINA RESULT:      -4.7      3.116      4.804
REMARK  Name = 191901
REMARK  7 active torsions:
REMARK  status: ('A' for Active; 'I' for Inactive)
REMARK    1  A    between atoms: C_2  and  C_12
REMARK    2  A    between atoms: C_3  and  C_11
REMARK    3  A    between atoms: C_4  and  O_8
REMARK    4  A    between atoms: C_12  and  S_13
REMARK    5  A    between atoms: S_13  and  P_14
REMARK    6  A    between atoms: P_14  and  O_16
REMARK    7  A    between atoms: P_14  and  O_18
REMARK                            x       y       z     vdW  Elec       q    Type
REMARK                         _______ _______ _______ _____ _____    ______ ____
ROOT
ATOM      1  N   UNL     1     -34.136  21.820   0.948  0.00  0.00    -0.245 NA
ATOM      2  C   UNL     1     -36.095  23.166   1.399  0.00  0.00    +0.015 C 
ATOM      3  C   UNL     1     -36.741  22.058   1.935  0.00  0.00    +0.075 C 
ATOM      4  C   UNL     1     -36.087  20.832   1.980  0.00  0.00    +0.150 C 
ATOM      5  C   UNL     1     -34.797  20.767   1.478  0.00  0.00    +0.093 C 
ATOM      6  C   UNL     1     -34.804  22.996   0.923  0.00  0.00    +0.095 C 
ATOM      7  C   UNL     1     -34.049  19.474   1.501  0.00  0.00    +0.055 C 
ENDROOT
BRANCH   4   8
ATOM      8  O   UNL     1     -36.692  19.730   2.498  0.00  0.00    -0.504 OA
ATOM      9  H   UNL     1     -36.180  19.064   2.911  0.00  0.00    +0.292 HD
ENDBRANCH   4   8
BRANCH   3  11
ATOM     10  O   UNL     1     -39.040  21.504   2.025  0.00  0.00    -0.283 OA
ATOM     11  C   UNL     1     -38.101  22.178   2.450  0.00  0.00    +0.237 C 
ENDBRANCH   3  11
BRANCH   2  12
ATOM     12  C   UNL     1     -36.744  24.505   1.322  0.00  0.00    +0.097 C 
BRANCH  12  13
ATOM     13  S   UNL     1     -35.934  25.736   2.388  0.00  0.00    -0.026 S 
BRANCH  13  14
ATOM     14  P   UNL     1     -36.590  25.290   4.324  0.00  0.00    +0.387 P 
ATOM     15  O   UNL     1     -35.850  24.112   4.898  0.00  0.00    -0.246 OA
BRANCH  14  16
ATOM     16  O   UNL     1     -38.198  25.072   4.309  0.00  0.00    -0.316 OA
ATOM     17  H   UNL     1     -38.448  24.459   5.018  0.00  0.00    +0.221 HD
ENDBRANCH  14  16
BRANCH  14  18
ATOM     18  O   UNL     1     -36.453  26.623   5.239  0.00  0.00    -0.316 OA
ATOM     19  H   UNL     1     -36.125  26.379   6.118  0.00  0.00    +0.221 HD
ENDBRANCH  14  18
ENDBRANCH  13  14
ENDBRANCH  12  13
ENDBRANCH   2  12
TORSDOF 7
ENDMDL
MODEL 4
REMARK VINA RESULT:      -4.7      3.414      5.388
REMARK  Name = 191901
REMARK  7 active torsions:
REMARK  status: ('A' for Active; 'I' for Inactive)
REMARK    1  A    between atoms: C_2  and  C_12
REMARK    2  A    between atoms: C_3  and  C_11
REMARK    3  A    between atoms: C_4  and  O_8
REMARK    4  A    between atoms: C_12  and  S_13
REMARK    5  A    between atoms: S_13  and  P_14
REMARK    6  A    between atoms: P_14  and  O_16
REMARK    7  A    between atoms: P_14  and  O_18
REMARK                            x       y       z     vdW  Elec       q    Type
REMARK                         _______ _______ _______ _____ _____    ______ ____
ROOT
ATOM      1  N   UNL     1     -36.508  23.679   1.984  0.00  0.00    -0.245 NA
ATOM      2  C   UNL     1     -36.020  24.313   4.266  0.00  0.00    +0.015 C 
ATOM      3  C   UNL     1     -35.737  22.989   4.581  0.00  0.00    +0.075 C 
ATOM      4  C   UNL     1     -35.838  22.010   3.599  0.00  0.00    +0.150 C 
ATOM      5  C   UNL     1     -36.224  22.403   2.329  0.00  0.00    +0.093 C 
ATOM      6  C   UNL     1     -36.398  24.603   2.965  0.00  0.00    +0.095 C 
ATOM      7  C   UNL     1     -36.349  21.391   1.236  0.00  0.00    +0.055 C 
ENDROOT
BRANCH   4   8
ATOM      8  O   UNL     1     -35.568  20.706   3.876  0.00  0.00    -0.504 OA
ATOM      9  H   UNL     1     -36.268  20.109   4.049  0.00  0.00    +0.292 HD
ENDBRANCH   4   8
BRANCH   3  11
ATOM     10  O   UNL     1     -36.010  21.894   6.661  0.00  0.00    -0.283 OA
ATOM     11  C   UNL     1     -35.334  22.625   5.935  0.00  0.00    +0.237 C 
ENDBRANCH   3  11
BRANCH   2  12
ATOM     12  C   UNL     1     -35.930  25.407   5.274  0.00  0.00    +0.097 C 
BRANCH  12  13
ATOM     13  S   UNL     1     -34.228  26.001   5.512  0.00  0.00    -0.026 S 
BRANCH  13  14
ATOM     14  P   UNL     1     -33.889  27.319   3.922  0.00  0.00    +0.387 P 
ATOM     15  O   UNL     1     -33.222  26.624   2.765  0.00  0.00    -0.246 OA
BRANCH  14  16
ATOM     16  O   UNL     1     -33.047  28.598   4.455  0.00  0.00    -0.316 OA
ATOM     17  H   UNL     1     -33.190  28.705   5.409  0.00  0.00    +0.221 HD
ENDBRANCH  14  16
BRANCH  14  18
ATOM     18  O   UNL     1     -35.299  28.008   3.510  0.00  0.00    -0.316 OA
ATOM     19  H   UNL     1     -35.909  27.327   3.185  0.00  0.00    +0.221 HD
ENDBRANCH  14  18
ENDBRANCH  13  14
ENDBRANCH  12  13
ENDBRANCH   2  12
TORSDOF 7
ENDMDL
MODEL 5
REMARK VINA RESULT:      -4.7      3.093      4.824
REMARK  Name = 191901
REMARK  7 active torsions:
REMARK  status: ('A' for Active; 'I' for Inactive)
REMARK    1  A    between atoms: C_2  and  C_12
REMARK    2  A    between atoms: C_3  and  C_11
REMARK    3  A    between atoms: C_4  and  O_8
REMARK    4  A    between atoms: C_12  and  S_13
REMARK    5  A    between atoms: S_13  and  P_14
REMARK    6  A    between atoms: P_14  and  O_16
REMARK    7  A    between atoms: P_14  and  O_18
REMARK                            x       y       z     vdW  Elec       q    Type
REMARK                         _______ _______ _______ _____ _____    ______ ____
ROOT
ATOM      1  N   UNL     1     -34.342  22.041   0.724  0.00  0.00    -0.245 NA
ATOM      2  C   UNL     1     -35.427  23.868   1.879  0.00  0.00    +0.015 C 
ATOM      3  C   UNL     1     -35.851  22.996   2.875  0.00  0.00    +0.075 C 
ATOM      4  C   UNL     1     -35.521  21.647   2.798  0.00  0.00    +0.150 C 
ATOM      5  C   UNL     1     -34.772  21.224   1.712  0.00  0.00    +0.093 C 
ATOM      6  C   UNL     1     -34.682  23.345   0.834  0.00  0.00    +0.095 C 
ATOM      7  C   UNL     1     -34.390  19.786   1.580  0.00  0.00    +0.055 C 
ENDROOT
BRANCH   4   8
ATOM      8  O   UNL     1     -35.921  20.770   3.757  0.00  0.00    -0.504 OA
ATOM      9  H   UNL     1     -36.785  20.409   3.731  0.00  0.00    +0.292 HD
ENDBRANCH   4   8
BRANCH   3  11
ATOM     10  O   UNL     1     -36.199  23.556   5.147  0.00  0.00    -0.283 OA
ATOM     11  C   UNL     1     -36.639  23.490   3.999  0.00  0.00    +0.237 C 
ENDBRANCH   3  11
BRANCH   2  12
ATOM     12  C   UNL     1     -35.750  25.322   1.905  0.00  0.00    +0.097 C 
BRANCH  12  13
ATOM     13  S   UNL     1     -34.284  26.359   2.195  0.00  0.00    -0.026 S 
BRANCH  13  14
ATOM     14  P   UNL     1     -34.184  26.585   4.273  0.00  0.00    +0.387 P 
ATOM     15  O   UNL     1     -33.334  27.766   4.657  0.00  0.00    -0.246 OA
BRANCH  14  16
ATOM     16  O   UNL     1     -33.670  25.199   4.940  0.00  0.00    -0.316 OA
ATOM     17  H   UNL     1     -33.710  24.488   4.280  0.00  0.00    +0.221 HD
ENDBRANCH  14  16
BRANCH  14  18
ATOM     18  O   UNL     1     -35.695  26.684   4.856  0.00  0.00    -0.316 OA
ATOM     19  H   UNL     1     -35.695  27.222   5.664  0.00  0.00    +0.221 HD
ENDBRANCH  14  18
ENDBRANCH  13  14
ENDBRANCH  12  13
ENDBRANCH   2  12
TORSDOF 7
ENDMDL
MODEL 6
REMARK VINA RESULT:      -4.6      2.811      4.642
REMARK  Name = 191901
REMARK  7 active torsions:
REMARK  status: ('A' for Active; 'I' for Inactive)
REMARK    1  A    between atoms: C_2  and  C_12
REMARK    2  A    between atoms: C_3  and  C_11
REMARK    3  A    between atoms: C_4  and  O_8
REMARK    4  A    between atoms: C_12  and  S_13
REMARK    5  A    between atoms: S_13  and  P_14
REMARK    6  A    between atoms: P_14  and  O_16
REMARK    7  A    between atoms: P_14  and  O_18
REMARK                            x       y       z     vdW  Elec       q    Type
REMARK                         _______ _______ _______ _____ _____    ______ ____
ROOT
ATOM      1  N   UNL     1     -35.217  22.286   0.977  0.00  0.00    -0.245 NA
ATOM      2  C   UNL     1     -35.139  23.943   2.736  0.00  0.00    +0.015 C 
ATOM      3  C   UNL     1     -35.225  22.939   3.694  0.00  0.00    +0.075 C 
ATOM      4  C   UNL     1     -35.306  21.610   3.296  0.00  0.00    +0.150 C 
ATOM      5  C   UNL     1     -35.299  21.339   1.937  0.00  0.00    +0.093 C 
ATOM      6  C   UNL     1     -35.139  23.567   1.402  0.00  0.00    +0.095 C 
ATOM      7  C   UNL     1     -35.384  19.928   1.454  0.00  0.00    +0.055 C 
ENDROOT
BRANCH   4   8
ATOM      8  O   UNL     1     -35.392  20.606   4.209  0.00  0.00    -0.504 OA
ATOM      9  H   UNL     1     -36.119  20.570   4.799  0.00  0.00    +0.292 HD
ENDBRANCH   4   8
BRANCH   3  11
ATOM     10  O   UNL     1     -36.164  22.994   5.866  0.00  0.00    -0.283 OA
ATOM     11  C   UNL     1     -35.230  23.276   5.114  0.00  0.00    +0.237 C 
ENDBRANCH   3  11
BRANCH   2  12
ATOM     12  C   UNL     1     -35.051  25.385   3.101  0.00  0.00    +0.097 C 
BRANCH  12  13
ATOM     13  S   UNL     1     -36.367  26.381   2.339  0.00  0.00    -0.026 S 
BRANCH  13  14
ATOM     14  P   UNL     1     -38.152  25.481   2.956  0.00  0.00    +0.387 P 
ATOM     15  O   UNL     1     -38.562  24.374   2.023  0.00  0.00    -0.246 OA
BRANCH  14  16
ATOM     16  O   UNL     1     -39.297  26.618   3.121  0.00  0.00    -0.316 OA
ATOM     17  H   UNL     1     -39.936  26.338   3.796  0.00  0.00    +0.221 HD
ENDBRANCH  14  16
BRANCH  14  18
ATOM     18  O   UNL     1     -37.975  24.976   4.487  0.00  0.00    -0.316 OA
ATOM     19  H   UNL     1     -37.185  25.385   4.874  0.00  0.00    +0.221 HD
ENDBRANCH  14  18
ENDBRANCH  13  14
ENDBRANCH  12  13
ENDBRANCH   2  12
TORSDOF 7
ENDMDL
MODEL 7
REMARK VINA RESULT:      -4.6      2.428      3.136
REMARK  Name = 191901
REMARK  7 active torsions:
REMARK  status: ('A' for Active; 'I' for Inactive)
REMARK    1  A    between atoms: C_2  and  C_12
REMARK    2  A    between atoms: C_3  and  C_11
REMARK    3  A    between atoms: C_4  and  O_8
REMARK    4  A    between atoms: C_12  and  S_13
REMARK    5  A    between atoms: S_13  and  P_14
REMARK    6  A    between atoms: P_14  and  O_16
REMARK    7  A    between atoms: P_14  and  O_18
REMARK                            x       y       z     vdW  Elec       q    Type
REMARK                         _______ _______ _______ _____ _____    ______ ____
ROOT
ATOM      1  N   UNL     1     -32.883  27.128   5.926  0.00  0.00    -0.245 NA
ATOM      2  C   UNL     1     -34.852  26.008   5.080  0.00  0.00    +0.015 C 
ATOM      3  C   UNL     1     -34.710  26.663   3.862  0.00  0.00    +0.075 C 
ATOM      4  C   UNL     1     -33.656  27.550   3.674  0.00  0.00    +0.150 C 
ATOM      5  C   UNL     1     -32.779  27.745   4.728  0.00  0.00    +0.093 C 
ATOM      6  C   UNL     1     -33.921  26.273   6.071  0.00  0.00    +0.095 C 
ATOM      7  C   UNL     1     -31.628  28.687   4.580  0.00  0.00    +0.055 C 
ENDROOT
BRANCH   4   8
ATOM      8  O   UNL     1     -33.491  28.206   2.495  0.00  0.00    -0.504 OA
ATOM      9  H   UNL     1     -32.629  28.363   2.163  0.00  0.00    +0.292 HD
ENDBRANCH   4   8
BRANCH   3  11
ATOM     10  O   UNL     1     -36.312  27.324   2.251  0.00  0.00    -0.283 OA
ATOM     11  C   UNL     1     -35.662  26.423   2.783  0.00  0.00    +0.237 C 
ENDBRANCH   3  11
BRANCH   2  12
ATOM     12  C   UNL     1     -35.961  25.048   5.341  0.00  0.00    +0.097 C 
BRANCH  12  13
ATOM     13  S   UNL     1     -35.374  23.338   5.544  0.00  0.00    -0.026 S 
BRANCH  13  14
ATOM     14  P   UNL     1     -35.804  22.400   3.723  0.00  0.00    +0.387 P 
ATOM     15  O   UNL     1     -34.965  22.957   2.606  0.00  0.00    -0.246 OA
BRANCH  14  16
ATOM     16  O   UNL     1     -37.395  22.509   3.427  0.00  0.00    -0.316 OA
ATOM     17  H   UNL     1     -37.818  23.044   4.118  0.00  0.00    +0.221 HD
ENDBRANCH  14  16
BRANCH  14  18
ATOM     18  O   UNL     1     -35.618  20.799   3.908  0.00  0.00    -0.316 OA
ATOM     19  H   UNL     1     -36.230  20.332   3.318  0.00  0.00    +0.221 HD
ENDBRANCH  14  18
ENDBRANCH  13  14
ENDBRANCH  12  13
ENDBRANCH   2  12
TORSDOF 7
ENDMDL
MODEL 8
REMARK VINA RESULT:      -4.5      1.830      2.213
REMARK  Name = 191901
REMARK  7 active torsions:
REMARK  status: ('A' for Active; 'I' for Inactive)
REMARK    1  A    between atoms: C_2  and  C_12
REMARK    2  A    between atoms: C_3  and  C_11
REMARK    3  A    between atoms: C_4  and  O_8
REMARK    4  A    between atoms: C_12  and  S_13
REMARK    5  A    between atoms: S_13  and  P_14
REMARK    6  A    between atoms: P_14  and  O_16
REMARK    7  A    between atoms: P_14  and  O_18
REMARK                            x       y       z     vdW  Elec       q    Type
REMARK                         _______ _______ _______ _____ _____    ______ ____
ROOT
ATOM      1  N   UNL     1     -34.132  26.410   2.450  0.00  0.00    -0.245 NA
ATOM      2  C   UNL     1     -35.544  24.577   3.153  0.00  0.00    +0.015 C 
ATOM      3  C   UNL     1     -35.184  24.798   4.477  0.00  0.00    +0.075 C 
ATOM      4  C   UNL     1     -34.299  25.824   4.789  0.00  0.00    +0.150 C 
ATOM      5  C   UNL     1     -33.806  26.594   3.748  0.00  0.00    +0.093 C 
ATOM      6  C   UNL     1     -34.995  25.403   2.185  0.00  0.00    +0.095 C 
ATOM      7  C   UNL     1     -32.852  27.709   4.028  0.00  0.00    +0.055 C 
ENDROOT
BRANCH   4   8
ATOM      8  O   UNL     1     -33.927  26.065   6.075  0.00  0.00    -0.504 OA
ATOM      9  H   UNL     1     -33.851  26.946   6.384  0.00  0.00    +0.292 HD
ENDBRANCH   4   8
BRANCH   3  11
ATOM     10  O   UNL     1     -35.093  23.046   6.064  0.00  0.00    -0.283 OA
ATOM     11  C   UNL     1     -35.730  23.959   5.538  0.00  0.00    +0.237 C 
ENDBRANCH   3  11
BRANCH   2  12
ATOM     12  C   UNL     1     -36.486  23.493   2.756  0.00  0.00    +0.097 C 
BRANCH  12  13
ATOM     13  S   UNL     1     -35.781  22.376   1.506  0.00  0.00    -0.026 S 
BRANCH  13  14
ATOM     14  P   UNL     1     -35.520  20.552   2.498  0.00  0.00    +0.387 P 
ATOM     15  O   UNL     1     -34.340  19.794   1.954  0.00  0.00    -0.246 OA
BRANCH  14  16
ATOM     16  O   UNL     1     -36.899  19.700   2.427  0.00  0.00    -0.316 OA
ATOM     17  H   UNL     1     -37.089  19.318   3.299  0.00  0.00    +0.221 HD
ENDBRANCH  14  16
BRANCH  14  18
ATOM     18  O   UNL     1     -35.400  20.840   4.090  0.00  0.00    -0.316 OA
ATOM     19  H   UNL     1     -36.125  21.421   4.369  0.00  0.00    +0.221 HD
ENDBRANCH  14  18
ENDBRANCH  13  14
ENDBRANCH  12  13
ENDBRANCH   2  12
TORSDOF 7
ENDMDL
MODEL 9
REMARK VINA RESULT:      -4.5      3.148      3.593
REMARK  Name = 191901
REMARK  7 active torsions:
REMARK  status: ('A' for Active; 'I' for Inactive)
REMARK    1  A    between atoms: C_2  and  C_12
REMARK    2  A    between atoms: C_3  and  C_11
REMARK    3  A    between atoms: C_4  and  O_8
REMARK    4  A    between atoms: C_12  and  S_13
REMARK    5  A    between atoms: S_13  and  P_14
REMARK    6  A    between atoms: P_14  and  O_16
REMARK    7  A    between atoms: P_14  and  O_18
REMARK                            x       y       z     vdW  Elec       q    Type
REMARK                         _______ _______ _______ _____ _____    ______ ____
ROOT
ATOM      1  N   UNL     1     -35.235  20.989   4.197  0.00  0.00    -0.245 NA
ATOM      2  C   UNL     1     -36.197  22.029   2.237  0.00  0.00    +0.015 C 
ATOM      3  C   UNL     1     -36.497  23.166   2.979  0.00  0.00    +0.075 C 
ATOM      4  C   UNL     1     -36.167  23.216   4.328  0.00  0.00    +0.150 C 
ATOM      5  C   UNL     1     -35.543  22.111   4.884  0.00  0.00    +0.093 C 
ATOM      6  C   UNL     1     -35.572  20.977   2.887  0.00  0.00    +0.095 C 
ATOM      7  C   UNL     1     -35.166  22.112   6.330  0.00  0.00    +0.055 C 
ENDROOT
BRANCH   4   8
ATOM      8  O   UNL     1     -36.447  24.314   5.080  0.00  0.00    -0.504 OA
ATOM      9  H   UNL     1     -35.796  24.974   5.207  0.00  0.00    +0.292 HD
ENDBRANCH   4   8
BRANCH   3  11
ATOM     10  O   UNL     1     -36.636  25.417   2.262  0.00  0.00    -0.283 OA
ATOM     11  C   UNL     1     -37.156  24.304   2.347  0.00  0.00    +0.237 C 
ENDBRANCH   3  11
BRANCH   2  12
ATOM     12  C   UNL     1     -36.527  21.916   0.788  0.00  0.00    +0.097 C 
BRANCH  12  13
ATOM     13  S   UNL     1     -37.665  20.541   0.436  0.00  0.00    -0.026 S 
BRANCH  13  14
ATOM     14  P   UNL     1     -39.579  21.347   0.690  0.00  0.00    +0.387 P 
ATOM     15  O   UNL     1     -39.609  22.812   0.350  0.00  0.00    -0.246 OA
BRANCH  14  16
ATOM     16  O   UNL     1     -40.093  21.043   2.199  0.00  0.00    -0.316 OA
ATOM     17  H   UNL     1     -40.763  21.698   2.451  0.00  0.00    +0.221 HD
ENDBRANCH  14  16
BRANCH  14  18
ATOM     18  O   UNL     1     -40.629  20.478  -0.190  0.00  0.00    -0.316 OA
ATOM     19  H   UNL     1     -40.656  20.824  -1.096  0.00  0.00    +0.221 HD
ENDBRANCH  14  18
ENDBRANCH  13  14
ENDBRANCH  12  13
ENDBRANCH   2  12
TORSDOF 7
ENDMDL
