MODEL 1
REMARK VINA RESULT:      -7.0      0.000      0.000
REMARK  Name = 21201
REMARK  6 active torsions:
REMARK  status: ('A' for Active; 'I' for Inactive)
REMARK    1  A    between atoms: C_1  and  S_7
REMARK    2  A    between atoms: C_2  and  N_21
REMARK    3  A    between atoms: C_3  and  N_20
REMARK    4  A    between atoms: S_7  and  N_10
REMARK    5  A    between atoms: N_10  and  C_12
REMARK    6  A    between atoms: N_21  and  C_23
REMARK                            x       y       z     vdW  Elec       q    Type
REMARK                         _______ _______ _______ _____ _____    ______ ____
ROOT
ATOM      1  C   UNL     1     -35.230  24.931   3.526  0.00  0.00    +0.127 C 
ATOM      2  C   UNL     1     -35.683  22.215   3.048  0.00  0.00    +0.071 C 
ATOM      3  C   UNL     1     -35.479  22.675   4.353  0.00  0.00    +0.157 C 
ATOM      4  C   UNL     1     -35.251  24.030   4.591  0.00  0.00    +0.046 C 
ATOM      5  C   UNL     1     -35.434  24.476   2.223  0.00  0.00    +0.022 C 
ATOM      6  C   UNL     1     -35.660  23.121   1.985  0.00  0.00    +0.018 C 
ENDROOT
BRANCH   1   7
ATOM      7  S   UNL     1     -34.944  26.628   3.822  0.00  0.00    +0.074 S 
ATOM      8  O   UNL     1     -35.615  26.981   5.068  0.00  0.00    -0.150 OA
ATOM      9  O   UNL     1     -35.269  27.374   2.613  0.00  0.00    -0.150 OA
BRANCH   7  10
ATOM     10  N   UNL     1     -33.243  26.686   4.097  0.00  0.00    -0.215 N 
ATOM     11  H   UNL     1     -32.658  25.950   3.804  0.00  0.00    +0.174 HD
BRANCH  10  12
ATOM     12  C   UNL     1     -32.705  27.841   4.764  0.00  0.00    +0.065 C 
ATOM     13  C   UNL     1     -32.554  29.030   4.062  0.00  0.00    +0.016 C 
ATOM     14  C   UNL     1     -32.344  27.754   6.103  0.00  0.00    +0.016 C 
ATOM     15  C   UNL     1     -32.033  30.151   4.710  0.00  0.00    +0.001 C 
ATOM     16  C   UNL     1     -31.823  28.874   6.750  0.00  0.00    +0.001 C 
ATOM     17  C   UNL     1     -31.667  30.073   6.054  0.00  0.00    +0.000 C 
ENDBRANCH  10  12
ENDBRANCH   7  10
ENDBRANCH   1   7
BRANCH   3  20
ATOM     18  O   UNL     1     -34.916  20.672   5.338  0.00  0.00    -0.126 OA
ATOM     19  O   UNL     1     -36.084  22.125   6.505  0.00  0.00    -0.126 OA
ATOM     20  N   UNL     1     -35.494  21.776   5.457  0.00  0.00    +0.059 N 
ENDBRANCH   3  20
BRANCH   2  21
ATOM     21  N   UNL     1     -35.913  20.851   2.782  0.00  0.00    -0.311 N 
ATOM     22  H   UNL     1     -36.522  20.419   3.425  0.00  0.00    +0.152 HD
BRANCH  21  23
ATOM     23  C   UNL     1     -35.440  19.981   1.776  0.00  0.00    +0.048 C 
ATOM     24  C   UNL     1     -34.104  19.582   1.771  0.00  0.00    +0.015 C 
ATOM     25  C   UNL     1     -36.310  19.521   0.788  0.00  0.00    +0.015 C 
ATOM     26  C   UNL     1     -33.636  18.723   0.776  0.00  0.00    +0.001 C 
ATOM     27  C   UNL     1     -35.843  18.661  -0.207  0.00  0.00    +0.001 C 
ATOM     28  C   UNL     1     -34.506  18.263  -0.212  0.00  0.00    +0.000 C 
ENDBRANCH  21  23
ENDBRANCH   2  21
TORSDOF 6
ENDMDL
MODEL 2
REMARK VINA RESULT:      -6.9      1.842      2.476
REMARK  Name = 21201
REMARK  6 active torsions:
REMARK  status: ('A' for Active; 'I' for Inactive)
REMARK    1  A    between atoms: C_1  and  S_7
REMARK    2  A    between atoms: C_2  and  N_21
REMARK    3  A    between atoms: C_3  and  N_20
REMARK    4  A    between atoms: S_7  and  N_10
REMARK    5  A    between atoms: N_10  and  C_12
REMARK    6  A    between atoms: N_21  and  C_23
REMARK                            x       y       z     vdW  Elec       q    Type
REMARK                         _______ _______ _______ _____ _____    ______ ____
ROOT
ATOM      1  C   UNL     1     -34.519  25.022   4.030  0.00  0.00    +0.127 C 
ATOM      2  C   UNL     1     -35.569  22.537   3.300  0.00  0.00    +0.071 C 
ATOM      3  C   UNL     1     -35.250  22.800   4.635  0.00  0.00    +0.157 C 
ATOM      4  C   UNL     1     -34.725  24.040   4.999  0.00  0.00    +0.046 C 
ATOM      5  C   UNL     1     -34.837  24.763   2.696  0.00  0.00    +0.022 C 
ATOM      6  C   UNL     1     -35.361  23.523   2.332  0.00  0.00    +0.018 C 
ENDROOT
BRANCH   1   7
ATOM      7  S   UNL     1     -33.860  26.574   4.484  0.00  0.00    +0.074 S 
ATOM      8  O   UNL     1     -32.593  26.742   3.781  0.00  0.00    -0.150 OA
ATOM      9  O   UNL     1     -33.876  26.681   5.937  0.00  0.00    -0.150 OA
BRANCH   7  10
ATOM     10  N   UNL     1     -34.996  27.682   3.811  0.00  0.00    -0.215 N 
ATOM     11  H   UNL     1     -35.930  27.701   4.123  0.00  0.00    +0.174 HD
BRANCH  10  12
ATOM     12  C   UNL     1     -34.539  28.577   2.781  0.00  0.00    +0.065 C 
ATOM     13  C   UNL     1     -33.956  29.787   3.133  0.00  0.00    +0.016 C 
ATOM     14  C   UNL     1     -34.685  28.218   1.447  0.00  0.00    +0.016 C 
ATOM     15  C   UNL     1     -33.511  30.654   2.135  0.00  0.00    +0.001 C 
ATOM     16  C   UNL     1     -34.242  29.086   0.448  0.00  0.00    +0.001 C 
ATOM     17  C   UNL     1     -33.655  30.304   0.792  0.00  0.00    +0.000 C 
ENDBRANCH  10  12
ENDBRANCH   7  10
ENDBRANCH   1   7
BRANCH   3  20
ATOM     18  O   UNL     1     -34.989  20.665   5.456  0.00  0.00    -0.126 OA
ATOM     19  O   UNL     1     -36.074  22.137   6.680  0.00  0.00    -0.126 OA
ATOM     20  N   UNL     1     -35.448  21.816   5.643  0.00  0.00    +0.059 N 
ENDBRANCH   3  20
BRANCH   2  21
ATOM     21  N   UNL     1     -36.099  21.292   2.907  0.00  0.00    -0.311 N 
ATOM     22  H   UNL     1     -36.913  21.036   3.398  0.00  0.00    +0.152 HD
BRANCH  21  23
ATOM     23  C   UNL     1     -35.691  20.340   1.949  0.00  0.00    +0.048 C 
ATOM     24  C   UNL     1     -34.367  19.902   1.921  0.00  0.00    +0.015 C 
ATOM     25  C   UNL     1     -36.611  19.837   1.030  0.00  0.00    +0.015 C 
ATOM     26  C   UNL     1     -33.963  18.961   0.974  0.00  0.00    +0.001 C 
ATOM     27  C   UNL     1     -36.208  18.895   0.083  0.00  0.00    +0.001 C 
ATOM     28  C   UNL     1     -34.884  18.458   0.055  0.00  0.00    +0.000 C 
ENDBRANCH  21  23
ENDBRANCH   2  21
TORSDOF 6
ENDMDL
MODEL 3
REMARK VINA RESULT:      -6.7      3.264      4.635
REMARK  Name = 21201
REMARK  6 active torsions:
REMARK  status: ('A' for Active; 'I' for Inactive)
REMARK    1  A    between atoms: C_1  and  S_7
REMARK    2  A    between atoms: C_2  and  N_21
REMARK    3  A    between atoms: C_3  and  N_20
REMARK    4  A    between atoms: S_7  and  N_10
REMARK    5  A    between atoms: N_10  and  C_12
REMARK    6  A    between atoms: N_21  and  C_23
REMARK                            x       y       z     vdW  Elec       q    Type
REMARK                         _______ _______ _______ _____ _____    ______ ____
ROOT
ATOM      1  C   UNL     1     -35.292  24.628   3.179  0.00  0.00    +0.127 C 
ATOM      2  C   UNL     1     -34.798  22.371   1.606  0.00  0.00    +0.071 C 
ATOM      3  C   UNL     1     -35.321  22.229   2.895  0.00  0.00    +0.157 C 
ATOM      4  C   UNL     1     -35.567  23.356   3.680  0.00  0.00    +0.046 C 
ATOM      5  C   UNL     1     -34.771  24.773   1.893  0.00  0.00    +0.022 C 
ATOM      6  C   UNL     1     -34.524  23.647   1.109  0.00  0.00    +0.018 C 
ENDROOT
BRANCH   1   7
ATOM      7  S   UNL     1     -35.597  26.039   4.161  0.00  0.00    +0.074 S 
ATOM      8  O   UNL     1     -35.167  27.209   3.404  0.00  0.00    -0.150 OA
ATOM      9  O   UNL     1     -35.036  25.814   5.487  0.00  0.00    -0.150 OA
BRANCH   7  10
ATOM     10  N   UNL     1     -37.318  26.070   4.260  0.00  0.00    -0.215 N 
ATOM     11  H   UNL     1     -37.772  26.347   5.088  0.00  0.00    +0.174 HD
BRANCH  10  12
ATOM     12  C   UNL     1     -38.069  25.680   3.097  0.00  0.00    +0.065 C 
ATOM     13  C   UNL     1     -38.011  26.461   1.949  0.00  0.00    +0.016 C 
ATOM     14  C   UNL     1     -38.842  24.526   3.134  0.00  0.00    +0.016 C 
ATOM     15  C   UNL     1     -38.739  26.082   0.821  0.00  0.00    +0.001 C 
ATOM     16  C   UNL     1     -39.570  24.147   2.006  0.00  0.00    +0.001 C 
ATOM     17  C   UNL     1     -39.519  24.925   0.849  0.00  0.00    +0.000 C 
ENDBRANCH  10  12
ENDBRANCH   7  10
ENDBRANCH   1   7
BRANCH   3  20
ATOM     18  O   UNL     1     -36.355  20.175   2.781  0.00  0.00    -0.126 OA
ATOM     19  O   UNL     1     -35.103  20.626   4.533  0.00  0.00    -0.126 OA
ATOM     20  N   UNL     1     -35.608  20.942   3.431  0.00  0.00    +0.059 N 
ENDBRANCH   3  20
BRANCH   2  21
ATOM     21  N   UNL     1     -34.540  21.249   0.795  0.00  0.00    -0.311 N 
ATOM     22  H   UNL     1     -35.273  21.033   0.173  0.00  0.00    +0.152 HD
BRANCH  21  23
ATOM     23  C   UNL     1     -33.439  20.372   0.700  0.00  0.00    +0.048 C 
ATOM     24  C   UNL     1     -32.316  20.741  -0.040  0.00  0.00    +0.015 C 
ATOM     25  C   UNL     1     -33.474  19.136   1.346  0.00  0.00    +0.015 C 
ATOM     26  C   UNL     1     -31.227  19.874  -0.135  0.00  0.00    +0.001 C 
ATOM     27  C   UNL     1     -32.385  18.269   1.252  0.00  0.00    +0.001 C 
ATOM     28  C   UNL     1     -31.262  18.638   0.511  0.00  0.00    +0.000 C 
ENDBRANCH  21  23
ENDBRANCH   2  21
TORSDOF 6
ENDMDL
MODEL 4
REMARK VINA RESULT:      -6.7      2.992      4.090
REMARK  Name = 21201
REMARK  6 active torsions:
REMARK  status: ('A' for Active; 'I' for Inactive)
REMARK    1  A    between atoms: C_1  and  S_7
REMARK    2  A    between atoms: C_2  and  N_21
REMARK    3  A    between atoms: C_3  and  N_20
REMARK    4  A    between atoms: S_7  and  N_10
REMARK    5  A    between atoms: N_10  and  C_12
REMARK    6  A    between atoms: N_21  and  C_23
REMARK                            x       y       z     vdW  Elec       q    Type
REMARK                         _______ _______ _______ _____ _____    ______ ____
ROOT
ATOM      1  C   UNL     1     -37.203  23.114   2.641  0.00  0.00    +0.127 C 
ATOM      2  C   UNL     1     -35.720  20.830   2.011  0.00  0.00    +0.071 C 
ATOM      3  C   UNL     1     -36.649  21.340   1.098  0.00  0.00    +0.157 C 
ATOM      4  C   UNL     1     -37.389  22.479   1.414  0.00  0.00    +0.046 C 
ATOM      5  C   UNL     1     -36.276  22.609   3.554  0.00  0.00    +0.022 C 
ATOM      6  C   UNL     1     -35.537  21.469   3.239  0.00  0.00    +0.018 C 
ENDROOT
BRANCH   1   7
ATOM      7  S   UNL     1     -38.130  24.539   3.038  0.00  0.00    +0.074 S 
ATOM      8  O   UNL     1     -39.509  24.123   3.266  0.00  0.00    -0.150 OA
ATOM      9  O   UNL     1     -37.861  25.564   2.037  0.00  0.00    -0.150 OA
BRANCH   7  10
ATOM     10  N   UNL     1     -37.460  25.021   4.552  0.00  0.00    -0.215 N 
ATOM     11  H   UNL     1     -37.947  24.864   5.393  0.00  0.00    +0.174 HD
BRANCH  10  12
ATOM     12  C   UNL     1     -36.170  25.657   4.549  0.00  0.00    +0.065 C 
ATOM     13  C   UNL     1     -35.318  25.486   5.632  0.00  0.00    +0.016 C 
ATOM     14  C   UNL     1     -35.790  26.433   3.460  0.00  0.00    +0.016 C 
ATOM     15  C   UNL     1     -34.066  26.102   5.629  0.00  0.00    +0.001 C 
ATOM     16  C   UNL     1     -34.539  27.049   3.456  0.00  0.00    +0.001 C 
ATOM     17  C   UNL     1     -33.677  26.884   4.541  0.00  0.00    +0.000 C 
ENDBRANCH  10  12
ENDBRANCH   7  10
ENDBRANCH   1   7
BRANCH   3  20
ATOM     18  O   UNL     1     -37.390  19.576  -0.182  0.00  0.00    -0.126 OA
ATOM     19  O   UNL     1     -36.507  21.315  -1.200  0.00  0.00    -0.126 OA
ATOM     20  N   UNL     1     -36.860  20.710  -0.161  0.00  0.00    +0.059 N 
ENDBRANCH   3  20
BRANCH   2  21
ATOM     21  N   UNL     1     -34.962  19.680   1.716  0.00  0.00    -0.311 N 
ATOM     22  H   UNL     1     -35.436  18.837   1.897  0.00  0.00    +0.152 HD
BRANCH  21  23
ATOM     23  C   UNL     1     -33.655  19.500   1.215  0.00  0.00    +0.048 C 
ATOM     24  C   UNL     1     -32.957  18.325   1.493  0.00  0.00    +0.015 C 
ATOM     25  C   UNL     1     -33.062  20.497   0.441  0.00  0.00    +0.015 C 
ATOM     26  C   UNL     1     -31.665  18.147   0.998  0.00  0.00    +0.001 C 
ATOM     27  C   UNL     1     -31.770  20.320  -0.055  0.00  0.00    +0.001 C 
ATOM     28  C   UNL     1     -31.072  19.145   0.224  0.00  0.00    +0.000 C 
ENDBRANCH  21  23
ENDBRANCH   2  21
TORSDOF 6
ENDMDL
MODEL 5
REMARK VINA RESULT:      -6.6      1.471      2.134
REMARK  Name = 21201
REMARK  6 active torsions:
REMARK  status: ('A' for Active; 'I' for Inactive)
REMARK    1  A    between atoms: C_1  and  S_7
REMARK    2  A    between atoms: C_2  and  N_21
REMARK    3  A    between atoms: C_3  and  N_20
REMARK    4  A    between atoms: S_7  and  N_10
REMARK    5  A    between atoms: N_10  and  C_12
REMARK    6  A    between atoms: N_21  and  C_23
REMARK                            x       y       z     vdW  Elec       q    Type
REMARK                         _______ _______ _______ _____ _____    ______ ____
ROOT
ATOM      1  C   UNL     1     -34.551  25.361   2.793  0.00  0.00    +0.127 C 
ATOM      2  C   UNL     1     -34.519  22.921   1.430  0.00  0.00    +0.071 C 
ATOM      3  C   UNL     1     -35.171  23.029   2.662  0.00  0.00    +0.157 C 
ATOM      4  C   UNL     1     -35.186  24.247   3.343  0.00  0.00    +0.046 C 
ATOM      5  C   UNL     1     -33.900  25.257   1.564  0.00  0.00    +0.022 C 
ATOM      6  C   UNL     1     -33.884  24.039   0.884  0.00  0.00    +0.018 C 
ENDROOT
BRANCH   1   7
ATOM      7  S   UNL     1     -34.568  26.885   3.645  0.00  0.00    +0.074 S 
ATOM      8  O   UNL     1     -35.038  26.631   5.002  0.00  0.00    -0.150 OA
ATOM      9  O   UNL     1     -35.272  27.867   2.830  0.00  0.00    -0.150 OA
BRANCH   7  10
ATOM     10  N   UNL     1     -32.896  27.295   3.727  0.00  0.00    -0.215 N 
ATOM     11  H   UNL     1     -32.225  26.787   3.215  0.00  0.00    +0.174 HD
BRANCH  10  12
ATOM     12  C   UNL     1     -32.511  28.399   4.563  0.00  0.00    +0.065 C 
ATOM     13  C   UNL     1     -32.091  28.161   5.866  0.00  0.00    +0.016 C 
ATOM     14  C   UNL     1     -32.559  29.693   4.058  0.00  0.00    +0.016 C 
ATOM     15  C   UNL     1     -31.716  29.232   6.677  0.00  0.00    +0.001 C 
ATOM     16  C   UNL     1     -32.185  30.765   4.868  0.00  0.00    +0.001 C 
ATOM     17  C   UNL     1     -31.763  30.534   6.178  0.00  0.00    +0.000 C 
ENDBRANCH  10  12
ENDBRANCH   7  10
ENDBRANCH   1   7
BRANCH   3  20
ATOM     18  O   UNL     1     -36.771  21.375   2.623  0.00  0.00    -0.126 OA
ATOM     19  O   UNL     1     -35.428  21.497   4.361  0.00  0.00    -0.126 OA
ATOM     20  N   UNL     1     -35.825  21.908   3.246  0.00  0.00    +0.059 N 
ENDBRANCH   3  20
BRANCH   2  21
ATOM     21  N   UNL     1     -34.488  21.702   0.725  0.00  0.00    -0.311 N 
ATOM     22  H   UNL     1     -35.252  21.578   0.116  0.00  0.00    +0.152 HD
BRANCH  21  23
ATOM     23  C   UNL     1     -33.578  20.624   0.720  0.00  0.00    +0.048 C 
ATOM     24  C   UNL     1     -32.387  20.720   0.001  0.00  0.00    +0.015 C 
ATOM     25  C   UNL     1     -33.869  19.463   1.435  0.00  0.00    +0.015 C 
ATOM     26  C   UNL     1     -31.487  19.654  -0.004  0.00  0.00    +0.001 C 
ATOM     27  C   UNL     1     -32.970  18.396   1.431  0.00  0.00    +0.001 C 
ATOM     28  C   UNL     1     -31.779  18.492   0.711  0.00  0.00    +0.000 C 
ENDBRANCH  21  23
ENDBRANCH   2  21
TORSDOF 6
ENDMDL
MODEL 6
REMARK VINA RESULT:      -6.5      3.860      8.584
REMARK  Name = 21201
REMARK  6 active torsions:
REMARK  status: ('A' for Active; 'I' for Inactive)
REMARK    1  A    between atoms: C_1  and  S_7
REMARK    2  A    between atoms: C_2  and  N_21
REMARK    3  A    between atoms: C_3  and  N_20
REMARK    4  A    between atoms: S_7  and  N_10
REMARK    5  A    between atoms: N_10  and  C_12
REMARK    6  A    between atoms: N_21  and  C_23
REMARK                            x       y       z     vdW  Elec       q    Type
REMARK                         _______ _______ _______ _____ _____    ______ ____
ROOT
ATOM      1  C   UNL     1     -36.196  20.036   0.761  0.00  0.00    +0.127 C 
ATOM      2  C   UNL     1     -36.805  21.910   2.744  0.00  0.00    +0.071 C 
ATOM      3  C   UNL     1     -37.802  21.459   1.874  0.00  0.00    +0.157 C 
ATOM      4  C   UNL     1     -37.497  20.524   0.884  0.00  0.00    +0.046 C 
ATOM      5  C   UNL     1     -35.199  20.484   1.628  0.00  0.00    +0.022 C 
ATOM      6  C   UNL     1     -35.503  21.419   2.618  0.00  0.00    +0.018 C 
ENDROOT
BRANCH   1   7
ATOM      7  S   UNL     1     -35.814  18.868  -0.478  0.00  0.00    +0.074 S 
ATOM      8  O   UNL     1     -34.792  19.452  -1.340  0.00  0.00    -0.150 OA
ATOM      9  O   UNL     1     -37.057  18.401  -1.079  0.00  0.00    -0.150 OA
BRANCH   7  10
ATOM     10  N   UNL     1     -35.089  17.586   0.417  0.00  0.00    -0.215 N 
ATOM     11  H   UNL     1     -35.636  16.982   0.969  0.00  0.00    +0.174 HD
BRANCH  10  12
ATOM     12  C   UNL     1     -33.662  17.424   0.332  0.00  0.00    +0.065 C 
ATOM     13  C   UNL     1     -33.125  16.539  -0.594  0.00  0.00    +0.016 C 
ATOM     14  C   UNL     1     -32.837  18.158   1.176  0.00  0.00    +0.016 C 
ATOM     15  C   UNL     1     -31.741  16.384  -0.677  0.00  0.00    +0.001 C 
ATOM     16  C   UNL     1     -31.453  18.003   1.094  0.00  0.00    +0.001 C 
ATOM     17  C   UNL     1     -30.905  17.115   0.167  0.00  0.00    +0.000 C 
ENDBRANCH  10  12
ENDBRANCH   7  10
ENDBRANCH   1   7
BRANCH   3  20
ATOM     18  O   UNL     1     -40.074  21.111   2.003  0.00  0.00    -0.126 OA
ATOM     19  O   UNL     1     -39.323  23.179   2.033  0.00  0.00    -0.126 OA
ATOM     20  N   UNL     1     -39.137  21.942   1.975  0.00  0.00    +0.059 N 
ENDBRANCH   3  20
BRANCH   2  21
ATOM     21  N   UNL     1     -37.087  22.854   3.750  0.00  0.00    -0.311 N 
ATOM     22  H   UNL     1     -37.946  22.702   4.207  0.00  0.00    +0.152 HD
BRANCH  21  23
ATOM     23  C   UNL     1     -36.380  23.977   4.231  0.00  0.00    +0.048 C 
ATOM     24  C   UNL     1     -36.484  25.201   3.571  0.00  0.00    +0.015 C 
ATOM     25  C   UNL     1     -35.578  23.863   5.366  0.00  0.00    +0.015 C 
ATOM     26  C   UNL     1     -35.786  26.312   4.046  0.00  0.00    +0.001 C 
ATOM     27  C   UNL     1     -34.880  24.972   5.842  0.00  0.00    +0.001 C 
ATOM     28  C   UNL     1     -34.983  26.196   5.182  0.00  0.00    +0.000 C 
ENDBRANCH  21  23
ENDBRANCH   2  21
TORSDOF 6
ENDMDL
MODEL 7
REMARK VINA RESULT:      -6.5      4.297      5.987
REMARK  Name = 21201
REMARK  6 active torsions:
REMARK  status: ('A' for Active; 'I' for Inactive)
REMARK    1  A    between atoms: C_1  and  S_7
REMARK    2  A    between atoms: C_2  and  N_21
REMARK    3  A    between atoms: C_3  and  N_20
REMARK    4  A    between atoms: S_7  and  N_10
REMARK    5  A    between atoms: N_10  and  C_12
REMARK    6  A    between atoms: N_21  and  C_23
REMARK                            x       y       z     vdW  Elec       q    Type
REMARK                         _______ _______ _______ _____ _____    ______ ____
ROOT
ATOM      1  C   UNL     1     -36.635  23.706   2.925  0.00  0.00    +0.127 C 
ATOM      2  C   UNL     1     -35.554  21.321   1.946  0.00  0.00    +0.071 C 
ATOM      3  C   UNL     1     -36.125  22.247   1.068  0.00  0.00    +0.157 C 
ATOM      4  C   UNL     1     -36.666  23.437   1.557  0.00  0.00    +0.046 C 
ATOM      5  C   UNL     1     -36.066  22.785   3.805  0.00  0.00    +0.022 C 
ATOM      6  C   UNL     1     -35.526  21.595   3.316  0.00  0.00    +0.018 C 
ENDROOT
BRANCH   1   7
ATOM      7  S   UNL     1     -37.312  25.193   3.538  0.00  0.00    +0.074 S 
ATOM      8  O   UNL     1     -37.390  26.137   2.429  0.00  0.00    -0.150 OA
ATOM      9  O   UNL     1     -36.582  25.579   4.739  0.00  0.00    -0.150 OA
BRANCH   7  10
ATOM     10  N   UNL     1     -38.919  24.735   3.963  0.00  0.00    -0.215 N 
ATOM     11  H   UNL     1     -39.108  24.291   4.821  0.00  0.00    +0.174 HD
BRANCH  10  12
ATOM     12  C   UNL     1     -39.973  25.021   3.027  0.00  0.00    +0.065 C 
ATOM     13  C   UNL     1     -40.201  24.155   1.965  0.00  0.00    +0.016 C 
ATOM     14  C   UNL     1     -40.753  26.158   3.198  0.00  0.00    +0.016 C 
ATOM     15  C   UNL     1     -41.225  24.431   1.058  0.00  0.00    +0.001 C 
ATOM     16  C   UNL     1     -41.776  26.435   2.292  0.00  0.00    +0.001 C 
ATOM     17  C   UNL     1     -42.012  25.572   1.221  0.00  0.00    +0.000 C 
ENDBRANCH  10  12
ENDBRANCH   7  10
ENDBRANCH   1   7
BRANCH   3  20
ATOM     18  O   UNL     1     -36.840  21.021  -0.745  0.00  0.00    -0.126 OA
ATOM     19  O   UNL     1     -35.540  22.760  -1.099  0.00  0.00    -0.126 OA
ATOM     20  N   UNL     1     -36.171  21.996  -0.332  0.00  0.00    +0.059 N 
ENDBRANCH   3  20
BRANCH   2  21
ATOM     21  N   UNL     1     -35.004  20.113   1.477  0.00  0.00    -0.311 N 
ATOM     22  H   UNL     1     -35.660  19.381   1.406  0.00  0.00    +0.152 HD
BRANCH  21  23
ATOM     23  C   UNL     1     -33.698  19.744   1.092  0.00  0.00    +0.048 C 
ATOM     24  C   UNL     1     -33.172  18.516   1.496  0.00  0.00    +0.015 C 
ATOM     25  C   UNL     1     -32.932  20.606   0.308  0.00  0.00    +0.015 C 
ATOM     26  C   UNL     1     -31.880  18.151   1.116  0.00  0.00    +0.001 C 
ATOM     27  C   UNL     1     -31.641  20.242  -0.073  0.00  0.00    +0.001 C 
ATOM     28  C   UNL     1     -31.115  19.015   0.331  0.00  0.00    +0.000 C 
ENDBRANCH  21  23
ENDBRANCH   2  21
TORSDOF 6
ENDMDL
MODEL 8
REMARK VINA RESULT:      -6.5      2.216      3.187
REMARK  Name = 21201
REMARK  6 active torsions:
REMARK  status: ('A' for Active; 'I' for Inactive)
REMARK    1  A    between atoms: C_1  and  S_7
REMARK    2  A    between atoms: C_2  and  N_21
REMARK    3  A    between atoms: C_3  and  N_20
REMARK    4  A    between atoms: S_7  and  N_10
REMARK    5  A    between atoms: N_10  and  C_12
REMARK    6  A    between atoms: N_21  and  C_23
REMARK                            x       y       z     vdW  Elec       q    Type
REMARK                         _______ _______ _______ _____ _____    ______ ____
ROOT
ATOM      1  C   UNL     1     -34.577  25.110   4.016  0.00  0.00    +0.127 C 
ATOM      2  C   UNL     1     -35.791  22.704   3.272  0.00  0.00    +0.071 C 
ATOM      3  C   UNL     1     -35.334  22.886   4.581  0.00  0.00    +0.157 C 
ATOM      4  C   UNL     1     -34.727  24.086   4.951  0.00  0.00    +0.046 C 
ATOM      5  C   UNL     1     -35.032  24.933   2.709  0.00  0.00    +0.022 C 
ATOM      6  C   UNL     1     -35.638  23.732   2.338  0.00  0.00    +0.018 C 
ENDROOT
BRANCH   1   7
ATOM      7  S   UNL     1     -33.817  26.612   4.478  0.00  0.00    +0.074 S 
ATOM      8  O   UNL     1     -32.557  26.715   3.751  0.00  0.00    -0.150 OA
ATOM      9  O   UNL     1     -33.797  26.696   5.933  0.00  0.00    -0.150 OA
BRANCH   7  10
ATOM     10  N   UNL     1     -34.897  27.797   3.846  0.00  0.00    -0.215 N 
ATOM     11  H   UNL     1     -35.832  27.845   4.153  0.00  0.00    +0.174 HD
BRANCH  10  12
ATOM     12  C   UNL     1     -34.393  28.713   2.858  0.00  0.00    +0.065 C 
ATOM     13  C   UNL     1     -34.605  28.453   1.510  0.00  0.00    +0.016 C 
ATOM     14  C   UNL     1     -33.703  29.848   3.264  0.00  0.00    +0.016 C 
ATOM     15  C   UNL     1     -34.118  29.342   0.552  0.00  0.00    +0.001 C 
ATOM     16  C   UNL     1     -33.215  30.737   2.307  0.00  0.00    +0.001 C 
ATOM     17  C   UNL     1     -33.422  30.484   0.951  0.00  0.00    +0.000 C 
ENDBRANCH  10  12
ENDBRANCH   7  10
ENDBRANCH   1   7
BRANCH   3  20
ATOM     18  O   UNL     1     -36.033  22.131   6.640  0.00  0.00    -0.126 OA
ATOM     19  O   UNL     1     -35.030  20.716   5.287  0.00  0.00    -0.126 OA
ATOM     20  N   UNL     1     -35.473  21.857   5.554  0.00  0.00    +0.059 N 
ENDBRANCH   3  20
BRANCH   2  21
ATOM     21  N   UNL     1     -36.405  21.501   2.872  0.00  0.00    -0.311 N 
ATOM     22  H   UNL     1     -36.088  20.712   3.368  0.00  0.00    +0.152 HD
BRANCH  21  23
ATOM     23  C   UNL     1     -37.384  21.205   1.900  0.00  0.00    +0.048 C 
ATOM     24  C   UNL     1     -38.673  21.720   2.030  0.00  0.00    +0.015 C 
ATOM     25  C   UNL     1     -37.062  20.399   0.810  0.00  0.00    +0.015 C 
ATOM     26  C   UNL     1     -39.642  21.427   1.070  0.00  0.00    +0.001 C 
ATOM     27  C   UNL     1     -38.029  20.106  -0.152  0.00  0.00    +0.001 C 
ATOM     28  C   UNL     1     -39.319  20.620  -0.021  0.00  0.00    +0.000 C 
ENDBRANCH  21  23
ENDBRANCH   2  21
TORSDOF 6
ENDMDL
MODEL 9
REMARK VINA RESULT:      -6.4      7.154      8.578
REMARK  Name = 21201
REMARK  6 active torsions:
REMARK  status: ('A' for Active; 'I' for Inactive)
REMARK    1  A    between atoms: C_1  and  S_7
REMARK    2  A    between atoms: C_2  and  N_21
REMARK    3  A    between atoms: C_3  and  N_20
REMARK    4  A    between atoms: S_7  and  N_10
REMARK    5  A    between atoms: N_10  and  C_12
REMARK    6  A    between atoms: N_21  and  C_23
REMARK                            x       y       z     vdW  Elec       q    Type
REMARK                         _______ _______ _______ _____ _____    ______ ____
ROOT
ATOM      1  C   UNL     1     -40.088  25.650   2.263  0.00  0.00    +0.127 C 
ATOM      2  C   UNL     1     -42.865  25.903   2.078  0.00  0.00    +0.071 C 
ATOM      3  C   UNL     1     -42.140  26.729   2.943  0.00  0.00    +0.157 C 
ATOM      4  C   UNL     1     -40.754  26.601   3.036  0.00  0.00    +0.046 C 
ATOM      5  C   UNL     1     -40.808  24.825   1.399  0.00  0.00    +0.022 C 
ATOM      6  C   UNL     1     -42.194  24.951   1.307  0.00  0.00    +0.018 C 
ENDROOT
BRANCH   1   7
ATOM      7  S   UNL     1     -38.353  25.489   2.380  0.00  0.00    +0.074 S 
ATOM      8  O   UNL     1     -37.769  26.810   2.182  0.00  0.00    -0.150 OA
ATOM      9  O   UNL     1     -37.927  24.396   1.515  0.00  0.00    -0.150 OA
BRANCH   7  10
ATOM     10  N   UNL     1     -38.122  25.044   4.029  0.00  0.00    -0.215 N 
ATOM     11  H   UNL     1     -38.890  24.869   4.619  0.00  0.00    +0.174 HD
BRANCH  10  12
ATOM     12  C   UNL     1     -36.773  24.936   4.517  0.00  0.00    +0.065 C 
ATOM     13  C   UNL     1     -36.198  26.007   5.189  0.00  0.00    +0.016 C 
ATOM     14  C   UNL     1     -36.062  23.759   4.313  0.00  0.00    +0.016 C 
ATOM     15  C   UNL     1     -34.891  25.901   5.664  0.00  0.00    +0.001 C 
ATOM     16  C   UNL     1     -34.754  23.653   4.787  0.00  0.00    +0.001 C 
ATOM     17  C   UNL     1     -34.168  24.725   5.462  0.00  0.00    +0.000 C 
ENDBRANCH  10  12
ENDBRANCH   7  10
ENDBRANCH   1   7
BRANCH   3  20
ATOM     18  O   UNL     1     -43.702  27.332   4.522  0.00  0.00    -0.126 OA
ATOM     19  O   UNL     1     -42.440  28.902   3.638  0.00  0.00    -0.126 OA
ATOM     20  N   UNL     1     -42.796  27.706   3.743  0.00  0.00    +0.059 N 
ENDBRANCH   3  20
BRANCH   2  21
ATOM     21  N   UNL     1     -44.265  26.011   1.968  0.00  0.00    -0.311 N 
ATOM     22  H   UNL     1     -44.568  26.872   1.598  0.00  0.00    +0.152 HD
BRANCH  21  23
ATOM     23  C   UNL     1     -45.319  25.128   2.285  0.00  0.00    +0.048 C 
ATOM     24  C   UNL     1     -45.679  24.121   1.389  0.00  0.00    +0.015 C 
ATOM     25  C   UNL     1     -46.000  25.262   3.494  0.00  0.00    +0.015 C 
ATOM     26  C   UNL     1     -46.722  23.248   1.702  0.00  0.00    +0.001 C 
ATOM     27  C   UNL     1     -47.042  24.389   3.809  0.00  0.00    +0.001 C 
ATOM     28  C   UNL     1     -47.403  23.383   2.913  0.00  0.00    +0.000 C 
ENDBRANCH  21  23
ENDBRANCH   2  21
TORSDOF 6
ENDMDL
