MODEL 1
REMARK VINA RESULT:      -5.5      0.000      0.000
REMARK  Name = 5487662
REMARK  11 active torsions:
REMARK  status: ('A' for Active; 'I' for Inactive)
REMARK    1  A    between atoms: N_2  and  C_5
REMARK    2  A    between atoms: C_3  and  C_21
REMARK    3  A    between atoms: C_5  and  C_11
REMARK    4  A    between atoms: C_10  and  C_14
REMARK    5  A    between atoms: N_13  and  C_19
REMARK    6  A    between atoms: C_21  and  N_24
REMARK    7  A    between atoms: C_25  and  C_27
REMARK    8  A    between atoms: C_27  and  C_28
REMARK    9  A    between atoms: C_28  and  C_29
REMARK   10  A    between atoms: C_29  and  C_31
REMARK   11  A    between atoms: C_31  and  O_32
REMARK                            x       y       z     vdW  Elec       q    Type
REMARK                         _______ _______ _______ _____ _____    ______ ____
ROOT
ATOM      1  O   UNL     1     -39.180  26.360   3.028  0.00  0.00    -0.273 OA
ATOM      2  N   UNL     1     -38.180  24.632   1.844  0.00  0.00    -0.297 N 
ATOM      3  C   UNL     1     -38.231  25.906   2.392  0.00  0.00    +0.241 C 
ATOM      4  H   UNL     1     -37.372  24.362   1.351  0.00  0.00    +0.150 HD
ENDROOT
BRANCH   2   5
ATOM      5  C   UNL     1     -39.265  23.686   1.969  0.00  0.00    +0.149 C 
ATOM      6  C   UNL     1     -40.262  23.836   0.830  0.00  0.00    +0.031 C 
BRANCH   5  11
ATOM      7  O   UNL     1     -36.866  19.999   1.813  0.00  0.00    -0.277 OA
ATOM      8  O   UNL     1     -39.360  21.268   2.088  0.00  0.00    -0.273 OA
ATOM      9  N   UNL     1     -37.287  22.298   1.816  0.00  0.00    -0.256 N 
ATOM     10  C   UNL     1     -36.482  21.163   1.742  0.00  0.00    +0.209 C 
ATOM     11  C   UNL     1     -38.674  22.282   1.984  0.00  0.00    +0.246 C 
ATOM     12  H   UNL     1     -36.846  23.176   1.744  0.00  0.00    +0.157 HD
BRANCH  10  14
ATOM     13  N   UNL     1     -34.694  21.250   0.170  0.00  0.00    +0.394 N 
ATOM     14  C   UNL     1     -35.039  21.513   1.572  0.00  0.00    +0.021 C 
ATOM     15  C   UNL     1     -34.799  23.008   1.781  0.00  0.00    -0.014 C 
ATOM     16  C   UNL     1     -34.328  23.520   0.429  0.00  0.00    -0.024 C 
ATOM     17  C   UNL     1     -33.739  22.286  -0.225  0.00  0.00    -0.077 C 
ATOM     18  H   UNL     1     -35.533  21.287  -0.409  0.00  0.00    -0.079 HD
BRANCH  13  19
ATOM     19  C   UNL     1     -34.171  19.908  -0.048  0.00  0.00    -0.077 C 
ATOM     20  C   UNL     1     -33.214  19.504   1.060  0.00  0.00    -0.025 C 
ENDBRANCH  13  19
ENDBRANCH  10  14
ENDBRANCH   5  11
ENDBRANCH   2   5
BRANCH   3  21
ATOM     21  C   UNL     1     -36.941  26.682   2.159  0.00  0.00    +0.149 C 
ATOM     22  C   UNL     1     -36.517  26.606   0.700  0.00  0.00    +0.031 C 
BRANCH  21  24
ATOM     23  O   UNL     1     -34.855  28.144   3.481  0.00  0.00    -0.275 OA
ATOM     24  N   UNL     1     -35.928  26.137   3.030  0.00  0.00    -0.298 N 
ATOM     25  C   UNL     1     -34.957  26.929   3.625  0.00  0.00    +0.223 C 
ATOM     26  H   UNL     1     -35.926  25.169   3.208  0.00  0.00    +0.150 HD
BRANCH  25  27
ATOM     27  C   UNL     1     -33.999  26.104   4.467  0.00  0.00    +0.086 C 
BRANCH  27  28
ATOM     28  C   UNL     1     -34.677  25.355   5.613  0.00  0.00    +0.021 C 
BRANCH  28  29
ATOM     29  C   UNL     1     -34.577  23.836   5.455  0.00  0.00    +0.110 C 
BRANCH  29  31
ATOM     30  O   UNL     1     -36.823  23.600   4.543  0.00  0.00    -0.250 OA
ATOM     31  C   UNL     1     -35.937  23.198   5.284  0.00  0.00    +0.314 C 
BRANCH  31  32
ATOM     32  O   UNL     1     -36.069  22.094   6.065  0.00  0.00    -0.480 OA
ATOM     33  H   UNL     1     -35.314  21.710   6.465  0.00  0.00    +0.295 HD
ENDBRANCH  31  32
ENDBRANCH  29  31
ENDBRANCH  28  29
ENDBRANCH  27  28
ENDBRANCH  25  27
ENDBRANCH  21  24
ENDBRANCH   3  21
TORSDOF 11
ENDMDL
MODEL 2
REMARK VINA RESULT:      -5.3      1.999      3.956
REMARK  Name = 5487662
REMARK  11 active torsions:
REMARK  status: ('A' for Active; 'I' for Inactive)
REMARK    1  A    between atoms: N_2  and  C_5
REMARK    2  A    between atoms: C_3  and  C_21
REMARK    3  A    between atoms: C_5  and  C_11
REMARK    4  A    between atoms: C_10  and  C_14
REMARK    5  A    between atoms: N_13  and  C_19
REMARK    6  A    between atoms: C_21  and  N_24
REMARK    7  A    between atoms: C_25  and  C_27
REMARK    8  A    between atoms: C_27  and  C_28
REMARK    9  A    between atoms: C_28  and  C_29
REMARK   10  A    between atoms: C_29  and  C_31
REMARK   11  A    between atoms: C_31  and  O_32
REMARK                            x       y       z     vdW  Elec       q    Type
REMARK                         _______ _______ _______ _____ _____    ______ ____
ROOT
ATOM      1  O   UNL     1     -35.171  20.563   3.672  0.00  0.00    -0.273 OA
ATOM      2  N   UNL     1     -36.711  22.259   3.299  0.00  0.00    -0.297 N 
ATOM      3  C   UNL     1     -35.651  21.657   3.962  0.00  0.00    +0.241 C 
ATOM      4  H   UNL     1     -37.024  23.139   3.608  0.00  0.00    +0.150 HD
ENDROOT
BRANCH   2   5
ATOM      5  C   UNL     1     -37.374  21.645   2.171  0.00  0.00    +0.149 C 
ATOM      6  C   UNL     1     -38.833  22.067   2.092  0.00  0.00    +0.031 C 
BRANCH   5  11
ATOM      7  O   UNL     1     -34.737  22.180  -1.312  0.00  0.00    -0.277 OA
ATOM      8  O   UNL     1     -36.871  23.079   0.284  0.00  0.00    -0.273 OA
ATOM      9  N   UNL     1     -35.627  21.130   0.577  0.00  0.00    -0.256 N 
ATOM     10  C   UNL     1     -34.754  21.258  -0.502  0.00  0.00    +0.209 C 
ATOM     11  C   UNL     1     -36.630  22.045   0.903  0.00  0.00    +0.246 C 
ATOM     12  H   UNL     1     -35.530  20.335   1.151  0.00  0.00    +0.157 HD
BRANCH  10  14
ATOM     13  N   UNL     1     -32.574  20.511   0.101  0.00  0.00    +0.394 N 
ATOM     14  C   UNL     1     -33.803  20.108  -0.590  0.00  0.00    +0.021 C 
ATOM     15  C   UNL     1     -34.326  18.892   0.176  0.00  0.00    -0.014 C 
ATOM     16  C   UNL     1     -33.328  18.683   1.304  0.00  0.00    -0.024 C 
ATOM     17  C   UNL     1     -32.059  19.315   0.767  0.00  0.00    -0.077 C 
ATOM     18  H   UNL     1     -32.779  21.245   0.779  0.00  0.00    -0.079 HD
BRANCH  13  19
ATOM     19  C   UNL     1     -31.589  21.113  -0.787  0.00  0.00    -0.077 C 
ATOM     20  C   UNL     1     -31.455  20.320  -2.076  0.00  0.00    -0.025 C 
ENDBRANCH  13  19
ENDBRANCH  10  14
ENDBRANCH   5  11
ENDBRANCH   2   5
BRANCH   3  21
ATOM     21  C   UNL     1     -35.103  22.534   5.080  0.00  0.00    +0.149 C 
ATOM     22  C   UNL     1     -35.486  21.980   6.444  0.00  0.00    +0.031 C 
BRANCH  21  24
ATOM     23  O   UNL     1     -33.562  24.908   4.603  0.00  0.00    -0.275 OA
ATOM     24  N   UNL     1     -35.616  23.870   4.893  0.00  0.00    -0.298 N 
ATOM     25  C   UNL     1     -34.787  24.959   4.667  0.00  0.00    +0.223 C 
ATOM     26  H   UNL     1     -36.590  24.014   4.927  0.00  0.00    +0.150 HD
BRANCH  25  27
ATOM     27  C   UNL     1     -35.578  26.249   4.534  0.00  0.00    +0.086 C 
BRANCH  27  28
ATOM     28  C   UNL     1     -35.870  26.644   3.088  0.00  0.00    +0.021 C 
BRANCH  28  29
ATOM     29  C   UNL     1     -36.861  25.694   2.413  0.00  0.00    +0.110 C 
BRANCH  29  31
ATOM     30  O   UNL     1     -39.118  26.550   2.737  0.00  0.00    -0.250 OA
ATOM     31  C   UNL     1     -38.232  25.766   3.047  0.00  0.00    +0.314 C 
BRANCH  31  32
ATOM     32  O   UNL     1     -38.374  24.836   4.027  0.00  0.00    -0.480 OA
ATOM     33  H   UNL     1     -37.717  24.179   4.149  0.00  0.00    +0.295 HD
ENDBRANCH  31  32
ENDBRANCH  29  31
ENDBRANCH  28  29
ENDBRANCH  27  28
ENDBRANCH  25  27
ENDBRANCH  21  24
ENDBRANCH   3  21
TORSDOF 11
ENDMDL
MODEL 3
REMARK VINA RESULT:      -5.1      5.093      7.485
REMARK  Name = 5487662
REMARK  11 active torsions:
REMARK  status: ('A' for Active; 'I' for Inactive)
REMARK    1  A    between atoms: N_2  and  C_5
REMARK    2  A    between atoms: C_3  and  C_21
REMARK    3  A    between atoms: C_5  and  C_11
REMARK    4  A    between atoms: C_10  and  C_14
REMARK    5  A    between atoms: N_13  and  C_19
REMARK    6  A    between atoms: C_21  and  N_24
REMARK    7  A    between atoms: C_25  and  C_27
REMARK    8  A    between atoms: C_27  and  C_28
REMARK    9  A    between atoms: C_28  and  C_29
REMARK   10  A    between atoms: C_29  and  C_31
REMARK   11  A    between atoms: C_31  and  O_32
REMARK                            x       y       z     vdW  Elec       q    Type
REMARK                         _______ _______ _______ _____ _____    ______ ____
ROOT
ATOM      1  O   UNL     1     -36.396  30.197  -0.405  0.00  0.00    -0.273 OA
ATOM      2  N   UNL     1     -36.319  28.919   1.530  0.00  0.00    -0.297 N 
ATOM      3  C   UNL     1     -36.247  30.104   0.812  0.00  0.00    +0.241 C 
ATOM      4  H   UNL     1     -36.185  28.948   2.505  0.00  0.00    +0.150 HD
ENDROOT
BRANCH   2   5
ATOM      5  C   UNL     1     -36.583  27.643   0.905  0.00  0.00    +0.149 C 
ATOM      6  C   UNL     1     -35.294  26.876   0.651  0.00  0.00    +0.031 C 
BRANCH   5  11
ATOM      7  O   UNL     1     -38.579  25.037   3.837  0.00  0.00    -0.277 OA
ATOM      8  O   UNL     1     -38.730  26.822   1.669  0.00  0.00    -0.273 OA
ATOM      9  N   UNL     1     -36.803  26.129   2.782  0.00  0.00    -0.256 N 
ATOM     10  C   UNL     1     -37.381  25.279   3.721  0.00  0.00    +0.209 C 
ATOM     11  C   UNL     1     -37.510  26.848   1.815  0.00  0.00    +0.246 C 
ATOM     12  H   UNL     1     -35.823  26.233   2.800  0.00  0.00    +0.157 HD
BRANCH  10  14
ATOM     13  N   UNL     1     -35.191  24.345   3.796  0.00  0.00    +0.394 N 
ATOM     14  C   UNL     1     -36.358  24.667   4.624  0.00  0.00    +0.021 C 
ATOM     15  C   UNL     1     -35.861  25.671   5.664  0.00  0.00    -0.014 C 
ATOM     16  C   UNL     1     -34.389  25.872   5.339  0.00  0.00    -0.024 C 
ATOM     17  C   UNL     1     -34.011  24.588   4.627  0.00  0.00    -0.077 C 
ATOM     18  H   UNL     1     -35.178  24.935   2.964  0.00  0.00    -0.079 HD
BRANCH  13  19
ATOM     19  C   UNL     1     -35.220  22.988   3.268  0.00  0.00    -0.077 C 
ATOM     20  C   UNL     1     -35.551  21.981   4.357  0.00  0.00    -0.025 C 
ENDBRANCH  13  19
ENDBRANCH  10  14
ENDBRANCH   5  11
ENDBRANCH   2   5
BRANCH   3  21
ATOM     21  C   UNL     1     -36.007  31.307   1.714  0.00  0.00    +0.149 C 
ATOM     22  C   UNL     1     -35.423  30.877   3.051  0.00  0.00    +0.031 C 
BRANCH  21  24
ATOM     23  O   UNL     1     -36.655  33.947   0.794  0.00  0.00    -0.275 OA
ATOM     24  N   UNL     1     -37.265  31.994   1.887  0.00  0.00    -0.298 N 
ATOM     25  C   UNL     1     -37.483  33.276   1.404  0.00  0.00    +0.223 C 
ATOM     26  H   UNL     1     -37.994  31.536   2.365  0.00  0.00    +0.150 HD
BRANCH  25  27
ATOM     27  C   UNL     1     -38.876  33.775   1.746  0.00  0.00    +0.086 C 
BRANCH  27  28
ATOM     28  C   UNL     1     -38.888  35.134   2.443  0.00  0.00    +0.021 C 
BRANCH  28  29
ATOM     29  C   UNL     1     -40.175  35.916   2.173  0.00  0.00    +0.110 C 
BRANCH  29  31
ATOM     30  O   UNL     1     -42.022  34.354   2.453  0.00  0.00    -0.250 OA
ATOM     31  C   UNL     1     -41.366  35.298   2.870  0.00  0.00    +0.314 C 
BRANCH  31  32
ATOM     32  O   UNL     1     -41.632  35.923   4.047  0.00  0.00    -0.480 OA
ATOM     33  H   UNL     1     -41.747  35.420   4.830  0.00  0.00    +0.295 HD
ENDBRANCH  31  32
ENDBRANCH  29  31
ENDBRANCH  28  29
ENDBRANCH  27  28
ENDBRANCH  25  27
ENDBRANCH  21  24
ENDBRANCH   3  21
TORSDOF 11
ENDMDL
MODEL 4
REMARK VINA RESULT:      -5.1      3.478      5.997
REMARK  Name = 5487662
REMARK  11 active torsions:
REMARK  status: ('A' for Active; 'I' for Inactive)
REMARK    1  A    between atoms: N_2  and  C_5
REMARK    2  A    between atoms: C_3  and  C_21
REMARK    3  A    between atoms: C_5  and  C_11
REMARK    4  A    between atoms: C_10  and  C_14
REMARK    5  A    between atoms: N_13  and  C_19
REMARK    6  A    between atoms: C_21  and  N_24
REMARK    7  A    between atoms: C_25  and  C_27
REMARK    8  A    between atoms: C_27  and  C_28
REMARK    9  A    between atoms: C_28  and  C_29
REMARK   10  A    between atoms: C_29  and  C_31
REMARK   11  A    between atoms: C_31  and  O_32
REMARK                            x       y       z     vdW  Elec       q    Type
REMARK                         _______ _______ _______ _____ _____    ______ ____
ROOT
ATOM      1  O   UNL     1     -34.506  21.865   1.327  0.00  0.00    -0.273 OA
ATOM      2  N   UNL     1     -34.711  19.585   1.703  0.00  0.00    -0.297 N 
ATOM      3  C   UNL     1     -35.065  20.916   1.872  0.00  0.00    +0.241 C 
ATOM      4  H   UNL     1     -35.222  18.895   2.185  0.00  0.00    +0.150 HD
ENDROOT
BRANCH   2   5
ATOM      5  C   UNL     1     -33.623  19.170   0.848  0.00  0.00    +0.149 C 
ATOM      6  C   UNL     1     -32.645  18.274   1.593  0.00  0.00    +0.031 C 
BRANCH   5  11
ATOM      7  O   UNL     1     -35.989  16.997  -2.162  0.00  0.00    -0.277 OA
ATOM      8  O   UNL     1     -33.543  18.108  -1.329  0.00  0.00    -0.273 OA
ATOM      9  N   UNL     1     -35.570  18.159  -0.178  0.00  0.00    -0.256 N 
ATOM     10  C   UNL     1     -36.360  17.461  -1.088  0.00  0.00    +0.209 C 
ATOM     11  C   UNL     1     -34.212  18.440  -0.353  0.00  0.00    +0.246 C 
ATOM     12  H   UNL     1     -35.998  18.478   0.649  0.00  0.00    +0.157 HD
BRANCH  10  14
ATOM     13  N   UNL     1     -38.632  17.415  -1.805  0.00  0.00    +0.394 N 
ATOM     14  C   UNL     1     -37.774  17.336  -0.617  0.00  0.00    +0.021 C 
ATOM     15  C   UNL     1     -38.039  15.958  -0.010  0.00  0.00    -0.014 C 
ATOM     16  C   UNL     1     -39.060  15.314  -0.934  0.00  0.00    -0.024 C 
ATOM     17  C   UNL     1     -39.752  16.503  -1.570  0.00  0.00    -0.077 C 
ATOM     18  H   UNL     1     -38.106  17.141  -2.635  0.00  0.00    -0.079 HD
BRANCH  13  19
ATOM     19  C   UNL     1     -39.079  18.770  -2.099  0.00  0.00    -0.077 C 
ATOM     20  C   UNL     1     -39.154  19.609  -0.835  0.00  0.00    -0.025 C 
ENDBRANCH  13  19
ENDBRANCH  10  14
ENDBRANCH   5  11
ENDBRANCH   2   5
BRANCH   3  21
ATOM     21  C   UNL     1     -36.273  21.077   2.786  0.00  0.00    +0.149 C 
ATOM     22  C   UNL     1     -37.508  21.470   1.990  0.00  0.00    +0.031 C 
BRANCH  21  24
ATOM     23  O   UNL     1     -35.009  20.610   5.320  0.00  0.00    -0.275 OA
ATOM     24  N   UNL     1     -35.950  22.070   3.782  0.00  0.00    -0.298 N 
ATOM     25  C   UNL     1     -35.336  21.745   4.983  0.00  0.00    +0.223 C 
ATOM     26  H   UNL     1     -36.175  23.011   3.603  0.00  0.00    +0.150 HD
BRANCH  25  27
ATOM     27  C   UNL     1     -35.138  22.968   5.861  0.00  0.00    +0.086 C 
BRANCH  27  28
ATOM     28  C   UNL     1     -34.744  24.223   5.084  0.00  0.00    +0.021 C 
BRANCH  28  29
ATOM     29  C   UNL     1     -35.700  25.390   5.339  0.00  0.00    +0.110 C 
BRANCH  29  31
ATOM     30  O   UNL     1     -37.647  24.522   4.161  0.00  0.00    -0.250 OA
ATOM     31  C   UNL     1     -36.834  25.418   4.338  0.00  0.00    +0.314 C 
BRANCH  31  32
ATOM     32  O   UNL     1     -36.850  26.583   3.640  0.00  0.00    -0.480 OA
ATOM     33  H   UNL     1     -36.057  26.919   3.269  0.00  0.00    +0.295 HD
ENDBRANCH  31  32
ENDBRANCH  29  31
ENDBRANCH  28  29
ENDBRANCH  27  28
ENDBRANCH  25  27
ENDBRANCH  21  24
ENDBRANCH   3  21
TORSDOF 11
ENDMDL
MODEL 5
REMARK VINA RESULT:      -5.1      2.934      5.903
REMARK  Name = 5487662
REMARK  11 active torsions:
REMARK  status: ('A' for Active; 'I' for Inactive)
REMARK    1  A    between atoms: N_2  and  C_5
REMARK    2  A    between atoms: C_3  and  C_21
REMARK    3  A    between atoms: C_5  and  C_11
REMARK    4  A    between atoms: C_10  and  C_14
REMARK    5  A    between atoms: N_13  and  C_19
REMARK    6  A    between atoms: C_21  and  N_24
REMARK    7  A    between atoms: C_25  and  C_27
REMARK    8  A    between atoms: C_27  and  C_28
REMARK    9  A    between atoms: C_28  and  C_29
REMARK   10  A    between atoms: C_29  and  C_31
REMARK   11  A    between atoms: C_31  and  O_32
REMARK                            x       y       z     vdW  Elec       q    Type
REMARK                         _______ _______ _______ _____ _____    ______ ____
ROOT
ATOM      1  O   UNL     1     -30.934  28.035   4.758  0.00  0.00    -0.273 OA
ATOM      2  N   UNL     1     -33.245  27.976   4.968  0.00  0.00    -0.297 N 
ATOM      3  C   UNL     1     -32.037  28.559   4.613  0.00  0.00    +0.241 C 
ATOM      4  H   UNL     1     -34.076  28.479   4.811  0.00  0.00    +0.150 HD
ENDROOT
BRANCH   2   5
ATOM      5  C   UNL     1     -33.331  26.661   5.560  0.00  0.00    +0.149 C 
ATOM      6  C   UNL     1     -33.097  26.715   7.062  0.00  0.00    +0.031 C 
BRANCH   5  11
ATOM      7  O   UNL     1     -36.909  24.497   4.184  0.00  0.00    -0.277 OA
ATOM      8  O   UNL     1     -35.753  26.617   5.626  0.00  0.00    -0.273 OA
ATOM      9  N   UNL     1     -34.631  24.939   4.461  0.00  0.00    -0.256 N 
ATOM     10  C   UNL     1     -35.728  24.226   3.985  0.00  0.00    +0.209 C 
ATOM     11  C   UNL     1     -34.709  26.088   5.251  0.00  0.00    +0.246 C 
ATOM     12  H   UNL     1     -33.734  24.608   4.225  0.00  0.00    +0.157 HD
BRANCH  10  14
ATOM     13  N   UNL     1     -35.944  21.862   3.790  0.00  0.00    +0.394 N 
ATOM     14  C   UNL     1     -35.314  23.037   3.178  0.00  0.00    +0.021 C 
ATOM     15  C   UNL     1     -35.868  23.108   1.755  0.00  0.00    -0.014 C 
ATOM     16  C   UNL     1     -36.824  21.930   1.650  0.00  0.00    -0.024 C 
ATOM     17  C   UNL     1     -36.299  20.962   2.692  0.00  0.00    -0.077 C 
ATOM     18  H   UNL     1     -36.773  22.142   4.313  0.00  0.00    -0.079 HD
BRANCH  13  19
ATOM     19  C   UNL     1     -35.101  21.211   4.783  0.00  0.00    -0.077 C 
ATOM     20  C   UNL     1     -35.371  21.755   6.175  0.00  0.00    -0.025 C 
ENDBRANCH  13  19
ENDBRANCH  10  14
ENDBRANCH   5  11
ENDBRANCH   2   5
BRANCH   3  21
ATOM     21  C   UNL     1     -32.228  29.925   3.966  0.00  0.00    +0.149 C 
ATOM     22  C   UNL     1     -31.629  31.024   4.829  0.00  0.00    +0.031 C 
BRANCH  21  24
ATOM     23  O   UNL     1     -33.443  31.723   2.088  0.00  0.00    -0.275 OA
ATOM     24  N   UNL     1     -33.642  30.128   3.761  0.00  0.00    -0.298 N 
ATOM     25  C   UNL     1     -34.135  31.025   2.824  0.00  0.00    +0.223 C 
ATOM     26  H   UNL     1     -34.279  29.613   4.307  0.00  0.00    +0.150 HD
BRANCH  25  27
ATOM     27  C   UNL     1     -35.653  31.068   2.834  0.00  0.00    +0.086 C 
BRANCH  27  28
ATOM     28  C   UNL     1     -36.288  30.610   1.522  0.00  0.00    +0.021 C 
BRANCH  28  29
ATOM     29  C   UNL     1     -35.730  29.269   1.042  0.00  0.00    +0.110 C 
BRANCH  29  31
ATOM     30  O   UNL     1     -37.393  27.568   1.562  0.00  0.00    -0.250 OA
ATOM     31  C   UNL     1     -36.323  28.107   1.806  0.00  0.00    +0.314 C 
BRANCH  31  32
ATOM     32  O   UNL     1     -35.510  27.715   2.822  0.00  0.00    -0.480 OA
ATOM     33  H   UNL     1     -35.749  27.896   3.710  0.00  0.00    +0.295 HD
ENDBRANCH  31  32
ENDBRANCH  29  31
ENDBRANCH  28  29
ENDBRANCH  27  28
ENDBRANCH  25  27
ENDBRANCH  21  24
ENDBRANCH   3  21
TORSDOF 11
ENDMDL
MODEL 6
REMARK VINA RESULT:      -5.1      5.967      9.302
REMARK  Name = 5487662
REMARK  11 active torsions:
REMARK  status: ('A' for Active; 'I' for Inactive)
REMARK    1  A    between atoms: N_2  and  C_5
REMARK    2  A    between atoms: C_3  and  C_21
REMARK    3  A    between atoms: C_5  and  C_11
REMARK    4  A    between atoms: C_10  and  C_14
REMARK    5  A    between atoms: N_13  and  C_19
REMARK    6  A    between atoms: C_21  and  N_24
REMARK    7  A    between atoms: C_25  and  C_27
REMARK    8  A    between atoms: C_27  and  C_28
REMARK    9  A    between atoms: C_28  and  C_29
REMARK   10  A    between atoms: C_29  and  C_31
REMARK   11  A    between atoms: C_31  and  O_32
REMARK                            x       y       z     vdW  Elec       q    Type
REMARK                         _______ _______ _______ _____ _____    ______ ____
ROOT
ATOM      1  O   UNL     1     -40.405  27.403   1.323  0.00  0.00    -0.273 OA
ATOM      2  N   UNL     1     -41.666  26.288   2.920  0.00  0.00    -0.297 N 
ATOM      3  C   UNL     1     -40.554  26.472   2.111  0.00  0.00    +0.241 C 
ATOM      4  H   UNL     1     -41.691  25.509   3.520  0.00  0.00    +0.150 HD
ENDROOT
BRANCH   2   5
ATOM      5  C   UNL     1     -42.790  27.197   2.918  0.00  0.00    +0.149 C 
ATOM      6  C   UNL     1     -44.107  26.446   3.039  0.00  0.00    +0.031 C 
BRANCH   5  11
ATOM      7  O   UNL     1     -43.078  30.177   6.144  0.00  0.00    -0.277 OA
ATOM      8  O   UNL     1     -41.525  28.442   4.568  0.00  0.00    -0.273 OA
ATOM      9  N   UNL     1     -43.834  28.739   4.465  0.00  0.00    -0.256 N 
ATOM     10  C   UNL     1     -43.981  29.697   5.465  0.00  0.00    +0.209 C 
ATOM     11  C   UNL     1     -42.618  28.171   4.077  0.00  0.00    +0.246 C 
ATOM     12  H   UNL     1     -44.647  28.440   3.996  0.00  0.00    +0.157 HD
BRANCH  10  14
ATOM     13  N   UNL     1     -45.892  29.420   6.860  0.00  0.00    +0.394 N 
ATOM     14  C   UNL     1     -45.410  30.096   5.651  0.00  0.00    +0.021 C 
ATOM     15  C   UNL     1     -45.538  31.592   5.937  0.00  0.00    -0.014 C 
ATOM     16  C   UNL     1     -46.095  31.673   7.349  0.00  0.00    -0.024 C 
ATOM     17  C   UNL     1     -46.813  30.349   7.516  0.00  0.00    -0.077 C 
ATOM     18  H   UNL     1     -45.107  29.193   7.470  0.00  0.00    -0.079 HD
BRANCH  13  19
ATOM     19  C   UNL     1     -46.513  28.131   6.586  0.00  0.00    -0.077 C 
ATOM     20  C   UNL     1     -47.423  28.207   5.372  0.00  0.00    -0.025 C 
ENDBRANCH  13  19
ENDBRANCH  10  14
ENDBRANCH   5  11
ENDBRANCH   2   5
BRANCH   3  21
ATOM     21  C   UNL     1     -39.494  25.402   2.342  0.00  0.00    +0.149 C 
ATOM     22  C   UNL     1     -40.111  24.146   2.939  0.00  0.00    +0.031 C 
BRANCH  21  24
ATOM     23  O   UNL     1     -36.709  24.712   2.380  0.00  0.00    -0.275 OA
ATOM     24  N   UNL     1     -38.483  25.955   3.211  0.00  0.00    -0.298 N 
ATOM     25  C   UNL     1     -37.156  25.555   3.153  0.00  0.00    +0.223 C 
ATOM     26  H   UNL     1     -38.745  26.640   3.867  0.00  0.00    +0.150 HD
BRANCH  25  27
ATOM     27  C   UNL     1     -36.309  26.269   4.193  0.00  0.00    +0.086 C 
BRANCH  27  28
ATOM     28  C   UNL     1     -36.152  25.489   5.497  0.00  0.00    +0.021 C 
BRANCH  28  29
ATOM     29  C   UNL     1     -35.026  24.456   5.426  0.00  0.00    +0.110 C 
BRANCH  29  31
ATOM     30  O   UNL     1     -35.133  22.289   6.532  0.00  0.00    -0.250 OA
ATOM     31  C   UNL     1     -35.535  23.052   5.665  0.00  0.00    +0.314 C 
BRANCH  31  32
ATOM     32  O   UNL     1     -36.518  22.724   4.787  0.00  0.00    -0.480 OA
ATOM     33  H   UNL     1     -37.411  22.925   4.986  0.00  0.00    +0.295 HD
ENDBRANCH  31  32
ENDBRANCH  29  31
ENDBRANCH  28  29
ENDBRANCH  27  28
ENDBRANCH  25  27
ENDBRANCH  21  24
ENDBRANCH   3  21
TORSDOF 11
ENDMDL
MODEL 7
REMARK VINA RESULT:      -5.1      2.878      6.404
REMARK  Name = 5487662
REMARK  11 active torsions:
REMARK  status: ('A' for Active; 'I' for Inactive)
REMARK    1  A    between atoms: N_2  and  C_5
REMARK    2  A    between atoms: C_3  and  C_21
REMARK    3  A    between atoms: C_5  and  C_11
REMARK    4  A    between atoms: C_10  and  C_14
REMARK    5  A    between atoms: N_13  and  C_19
REMARK    6  A    between atoms: C_21  and  N_24
REMARK    7  A    between atoms: C_25  and  C_27
REMARK    8  A    between atoms: C_27  and  C_28
REMARK    9  A    between atoms: C_28  and  C_29
REMARK   10  A    between atoms: C_29  and  C_31
REMARK   11  A    between atoms: C_31  and  O_32
REMARK                            x       y       z     vdW  Elec       q    Type
REMARK                         _______ _______ _______ _____ _____    ______ ____
ROOT
ATOM      1  O   UNL     1     -37.092  23.584   0.096  0.00  0.00    -0.273 OA
ATOM      2  N   UNL     1     -36.132  24.354   2.064  0.00  0.00    -0.297 N 
ATOM      3  C   UNL     1     -36.834  23.442   1.290  0.00  0.00    +0.241 C 
ATOM      4  H   UNL     1     -35.977  24.148   3.013  0.00  0.00    +0.150 HD
ENDROOT
BRANCH   2   5
ATOM      5  C   UNL     1     -35.619  25.596   1.532  0.00  0.00    +0.149 C 
ATOM      6  C   UNL     1     -36.467  26.778   1.974  0.00  0.00    +0.031 C 
BRANCH   5  11
ATOM      7  O   UNL     1     -31.705  26.804   3.141  0.00  0.00    -0.277 OA
ATOM      8  O   UNL     1     -33.292  24.954   1.739  0.00  0.00    -0.273 OA
ATOM      9  N   UNL     1     -33.999  26.945   2.721  0.00  0.00    -0.256 N 
ATOM     10  C   UNL     1     -32.782  27.384   3.237  0.00  0.00    +0.209 C 
ATOM     11  C   UNL     1     -34.180  25.760   2.005  0.00  0.00    +0.246 C 
ATOM     12  H   UNL     1     -34.790  27.512   2.873  0.00  0.00    +0.157 HD
BRANCH  10  14
ATOM     13  N   UNL     1     -31.627  28.959   4.601  0.00  0.00    +0.394 N 
ATOM     14  C   UNL     1     -32.919  28.684   3.963  0.00  0.00    +0.021 C 
ATOM     15  C   UNL     1     -33.154  29.842   2.993  0.00  0.00    -0.014 C 
ATOM     16  C   UNL     1     -31.927  30.729   3.139  0.00  0.00    -0.024 C 
ATOM     17  C   UNL     1     -31.431  30.408   4.535  0.00  0.00    -0.077 C 
ATOM     18  H   UNL     1     -30.882  28.468   4.108  0.00  0.00    -0.079 HD
BRANCH  13  19
ATOM     19  C   UNL     1     -31.543  28.455   5.965  0.00  0.00    -0.077 C 
ATOM     20  C   UNL     1     -31.605  29.589   6.974  0.00  0.00    -0.025 C 
ENDBRANCH  13  19
ENDBRANCH  10  14
ENDBRANCH   5  11
ENDBRANCH   2   5
BRANCH   3  21
ATOM     21  C   UNL     1     -37.219  22.197   2.079  0.00  0.00    +0.149 C 
ATOM     22  C   UNL     1     -38.726  22.118   2.269  0.00  0.00    +0.031 C 
BRANCH  21  24
ATOM     23  O   UNL     1     -35.212  20.364   3.002  0.00  0.00    -0.275 OA
ATOM     24  N   UNL     1     -36.531  22.242   3.347  0.00  0.00    -0.298 N 
ATOM     25  C   UNL     1     -35.571  21.305   3.704  0.00  0.00    +0.223 C 
ATOM     26  H   UNL     1     -36.752  22.961   3.981  0.00  0.00    +0.150 HD
BRANCH  25  27
ATOM     27  C   UNL     1     -35.027  21.564   5.098  0.00  0.00    +0.086 C 
BRANCH  27  28
ATOM     28  C   UNL     1     -35.775  22.659   5.856  0.00  0.00    +0.021 C 
BRANCH  28  29
ATOM     29  C   UNL     1     -35.045  24.003   5.809  0.00  0.00    +0.110 C 
BRANCH  29  31
ATOM     30  O   UNL     1     -37.050  24.961   4.812  0.00  0.00    -0.250 OA
ATOM     31  C   UNL     1     -35.939  25.112   5.301  0.00  0.00    +0.314 C 
BRANCH  31  32
ATOM     32  O   UNL     1     -35.356  26.329   5.457  0.00  0.00    -0.480 OA
ATOM     33  H   UNL     1     -34.999  26.777   4.714  0.00  0.00    +0.295 HD
ENDBRANCH  31  32
ENDBRANCH  29  31
ENDBRANCH  28  29
ENDBRANCH  27  28
ENDBRANCH  25  27
ENDBRANCH  21  24
ENDBRANCH   3  21
TORSDOF 11
ENDMDL
MODEL 8
REMARK VINA RESULT:      -5.1      2.716      4.129
REMARK  Name = 5487662
REMARK  11 active torsions:
REMARK  status: ('A' for Active; 'I' for Inactive)
REMARK    1  A    between atoms: N_2  and  C_5
REMARK    2  A    between atoms: C_3  and  C_21
REMARK    3  A    between atoms: C_5  and  C_11
REMARK    4  A    between atoms: C_10  and  C_14
REMARK    5  A    between atoms: N_13  and  C_19
REMARK    6  A    between atoms: C_21  and  N_24
REMARK    7  A    between atoms: C_25  and  C_27
REMARK    8  A    between atoms: C_27  and  C_28
REMARK    9  A    between atoms: C_28  and  C_29
REMARK   10  A    between atoms: C_29  and  C_31
REMARK   11  A    between atoms: C_31  and  O_32
REMARK                            x       y       z     vdW  Elec       q    Type
REMARK                         _______ _______ _______ _____ _____    ______ ____
ROOT
ATOM      1  O   UNL     1     -35.312  26.748   5.274  0.00  0.00    -0.273 OA
ATOM      2  N   UNL     1     -35.855  25.563   3.354  0.00  0.00    -0.297 N 
ATOM      3  C   UNL     1     -35.146  26.510   4.079  0.00  0.00    +0.241 C 
ATOM      4  H   UNL     1     -35.647  25.446   2.399  0.00  0.00    +0.150 HD
ENDROOT
BRANCH   2   5
ATOM      5  C   UNL     1     -36.886  24.740   3.944  0.00  0.00    +0.149 C 
ATOM      6  C   UNL     1     -38.117  24.675   3.054  0.00  0.00    +0.031 C 
BRANCH   5  11
ATOM      7  O   UNL     1     -35.302  20.637   3.800  0.00  0.00    -0.277 OA
ATOM      8  O   UNL     1     -36.152  22.864   5.290  0.00  0.00    -0.273 OA
ATOM      9  N   UNL     1     -36.049  22.689   2.969  0.00  0.00    -0.256 N 
ATOM     10  C   UNL     1     -35.565  21.387   2.865  0.00  0.00    +0.209 C 
ATOM     11  C   UNL     1     -36.313  23.347   4.172  0.00  0.00    +0.246 C 
ATOM     12  H   UNL     1     -36.217  23.182   2.133  0.00  0.00    +0.157 HD
BRANCH  10  14
ATOM     13  N   UNL     1     -35.104  19.532   1.442  0.00  0.00    +0.394 N 
ATOM     14  C   UNL     1     -35.376  20.974   1.440  0.00  0.00    +0.021 C 
ATOM     15  C   UNL     1     -36.662  21.149   0.633  0.00  0.00    -0.014 C 
ATOM     16  C   UNL     1     -37.061  19.740   0.224  0.00  0.00    -0.024 C 
ATOM     17  C   UNL     1     -35.745  18.986   0.246  0.00  0.00    -0.077 C 
ATOM     18  H   UNL     1     -35.485  19.106   2.287  0.00  0.00    -0.079 HD
BRANCH  13  19
ATOM     19  C   UNL     1     -33.682  19.218   1.495  0.00  0.00    -0.077 C 
ATOM     20  C   UNL     1     -32.898  20.047   0.493  0.00  0.00    -0.025 C 
ENDBRANCH  13  19
ENDBRANCH  10  14
ENDBRANCH   5  11
ENDBRANCH   2   5
BRANCH   3  21
ATOM     21  C   UNL     1     -34.085  27.204   3.234  0.00  0.00    +0.149 C 
ATOM     22  C   UNL     1     -32.869  26.311   3.047  0.00  0.00    +0.031 C 
BRANCH  21  24
ATOM     23  O   UNL     1     -32.581  29.368   2.099  0.00  0.00    -0.275 OA
ATOM     24  N   UNL     1     -33.734  28.442   3.887  0.00  0.00    -0.298 N 
ATOM     25  C   UNL     1     -32.999  29.433   3.252  0.00  0.00    +0.223 C 
ATOM     26  H   UNL     1     -34.024  28.587   4.816  0.00  0.00    +0.150 HD
BRANCH  25  27
ATOM     27  C   UNL     1     -32.742  30.615   4.170  0.00  0.00    +0.086 C 
BRANCH  27  28
ATOM     28  C   UNL     1     -32.250  30.217   5.560  0.00  0.00    +0.021 C 
BRANCH  28  29
ATOM     29  C   UNL     1     -30.929  29.447   5.513  0.00  0.00    +0.110 C 
BRANCH  29  31
ATOM     30  O   UNL     1     -32.061  27.434   6.286  0.00  0.00    -0.250 OA
ATOM     31  C   UNL     1     -31.039  28.099   6.189  0.00  0.00    +0.314 C 
BRANCH  31  32
ATOM     32  O   UNL     1     -29.842  27.697   6.690  0.00  0.00    -0.480 OA
ATOM     33  H   UNL     1     -29.712  26.800   6.930  0.00  0.00    +0.295 HD
ENDBRANCH  31  32
ENDBRANCH  29  31
ENDBRANCH  28  29
ENDBRANCH  27  28
ENDBRANCH  25  27
ENDBRANCH  21  24
ENDBRANCH   3  21
TORSDOF 11
ENDMDL
MODEL 9
REMARK VINA RESULT:      -5.1      3.575      5.840
REMARK  Name = 5487662
REMARK  11 active torsions:
REMARK  status: ('A' for Active; 'I' for Inactive)
REMARK    1  A    between atoms: N_2  and  C_5
REMARK    2  A    between atoms: C_3  and  C_21
REMARK    3  A    between atoms: C_5  and  C_11
REMARK    4  A    between atoms: C_10  and  C_14
REMARK    5  A    between atoms: N_13  and  C_19
REMARK    6  A    between atoms: C_21  and  N_24
REMARK    7  A    between atoms: C_25  and  C_27
REMARK    8  A    between atoms: C_27  and  C_28
REMARK    9  A    between atoms: C_28  and  C_29
REMARK   10  A    between atoms: C_29  and  C_31
REMARK   11  A    between atoms: C_31  and  O_32
REMARK                            x       y       z     vdW  Elec       q    Type
REMARK                         _______ _______ _______ _____ _____    ______ ____
ROOT
ATOM      1  O   UNL     1     -32.098  26.338   2.880  0.00  0.00    -0.273 OA
ATOM      2  N   UNL     1     -33.504  27.389   4.398  0.00  0.00    -0.297 N 
ATOM      3  C   UNL     1     -32.691  27.340   3.275  0.00  0.00    +0.241 C 
ATOM      4  H   UNL     1     -33.936  28.241   4.632  0.00  0.00    +0.150 HD
ENDROOT
BRANCH   2   5
ATOM      5  C   UNL     1     -33.743  26.238   5.238  0.00  0.00    +0.149 C 
ATOM      6  C   UNL     1     -33.392  26.531   6.689  0.00  0.00    +0.031 C 
BRANCH   5  11
ATOM      7  O   UNL     1     -37.742  24.728   4.190  0.00  0.00    -0.277 OA
ATOM      8  O   UNL     1     -36.093  26.315   5.823  0.00  0.00    -0.273 OA
ATOM      9  N   UNL     1     -35.420  24.949   4.059  0.00  0.00    -0.256 N 
ATOM     10  C   UNL     1     -36.663  24.453   3.674  0.00  0.00    +0.209 C 
ATOM     11  C   UNL     1     -35.210  25.848   5.108  0.00  0.00    +0.246 C 
ATOM     12  H   UNL     1     -34.630  24.643   3.556  0.00  0.00    +0.157 HD
BRANCH  10  14
ATOM     13  N   UNL     1     -36.842  22.161   3.049  0.00  0.00    +0.394 N 
ATOM     14  C   UNL     1     -36.553  23.502   2.526  0.00  0.00    +0.021 C 
ATOM     15  C   UNL     1     -37.627  23.772   1.473  0.00  0.00    -0.014 C 
ATOM     16  C   UNL     1     -38.498  22.526   1.473  0.00  0.00    -0.024 C 
ATOM     17  C   UNL     1     -37.565  21.450   1.994  0.00  0.00    -0.077 C 
ATOM     18  H   UNL     1     -37.407  22.231   3.895  0.00  0.00    -0.079 HD
BRANCH  13  19
ATOM     19  C   UNL     1     -35.648  21.444   3.477  0.00  0.00    -0.077 C 
ATOM     20  C   UNL     1     -35.172  20.481   2.403  0.00  0.00    -0.025 C 
ENDBRANCH  13  19
ENDBRANCH  10  14
ENDBRANCH   5  11
ENDBRANCH   2   5
BRANCH   3  21
ATOM     21  C   UNL     1     -32.647  28.674   2.541  0.00  0.00    +0.149 C 
ATOM     22  C   UNL     1     -32.142  28.495   1.118  0.00  0.00    +0.031 C 
BRANCH  21  24
ATOM     23  O   UNL     1     -33.496  30.599   4.493  0.00  0.00    -0.275 OA
ATOM     24  N   UNL     1     -31.799  29.569   3.291  0.00  0.00    -0.298 N 
ATOM     25  C   UNL     1     -32.306  30.469   4.218  0.00  0.00    +0.223 C 
ATOM     26  H   UNL     1     -30.827  29.540   3.140  0.00  0.00    +0.150 HD
BRANCH  25  27
ATOM     27  C   UNL     1     -31.207  31.310   4.842  0.00  0.00    +0.086 C 
BRANCH  27  28
ATOM     28  C   UNL     1     -29.861  30.593   4.932  0.00  0.00    +0.021 C 
BRANCH  28  29
ATOM     29  C   UNL     1     -29.637  29.945   6.301  0.00  0.00    +0.110 C 
BRANCH  29  31
ATOM     30  O   UNL     1     -30.373  27.805   5.401  0.00  0.00    -0.250 OA
ATOM     31  C   UNL     1     -29.738  28.437   6.233  0.00  0.00    +0.314 C 
BRANCH  31  32
ATOM     32  O   UNL     1     -29.023  27.847   7.226  0.00  0.00    -0.480 OA
ATOM     33  H   UNL     1     -28.618  27.014   7.081  0.00  0.00    +0.295 HD
ENDBRANCH  31  32
ENDBRANCH  29  31
ENDBRANCH  28  29
ENDBRANCH  27  28
ENDBRANCH  25  27
ENDBRANCH  21  24
ENDBRANCH   3  21
TORSDOF 11
ENDMDL
