MODEL 1
REMARK VINA RESULT:      -6.0      0.000      0.000
REMARK  Name = 195963
REMARK  8 active torsions:
REMARK  status: ('A' for Active; 'I' for Inactive)
REMARK    1  A    between atoms: C_1  and  C_8
REMARK    2  A    between atoms: C_1  and  N_15
REMARK    3  A    between atoms: C_1  and  C_25
REMARK    4  A    between atoms: C_4  and  C_10
REMARK    5  A    between atoms: C_10  and  C_11
REMARK    6  A    between atoms: C_11  and  N_12
REMARK    7  A    between atoms: C_16  and  C_20
REMARK    8  A    between atoms: C_25  and  C_28
REMARK                            x       y       z     vdW  Elec       q    Type
REMARK                         _______ _______ _______ _____ _____    ______ ____
ROOT
ATOM      1  C   UNL     1     -35.392  20.147   0.954  0.00  0.00    +0.155 C 
ENDROOT
BRANCH   1   8
ATOM      2  O   UNL     1     -35.469  20.632   3.284  0.00  0.00    -0.273 OA
ATOM      3  N   UNL     1     -35.093  22.408   1.847  0.00  0.00    -0.273 N 
ATOM      4  C   UNL     1     -34.882  23.420   2.883  0.00  0.00    +0.134 C 
ATOM      5  C   UNL     1     -34.237  24.586   2.131  0.00  0.00    +0.029 C 
ATOM      6  C   UNL     1     -34.912  22.973   0.511  0.00  0.00    +0.094 C 
ATOM      7  C   UNL     1     -34.832  24.475   0.731  0.00  0.00    +0.024 C 
ATOM      8  C   UNL     1     -35.321  21.073   2.143  0.00  0.00    +0.244 C 
BRANCH   4  10
ATOM      9  O   UNL     1     -37.115  23.828   2.632  0.00  0.00    -0.293 OA
ATOM     10  C   UNL     1     -36.197  23.794   3.496  0.00  0.00    +0.188 C 
BRANCH  10  11
ATOM     11  C   UNL     1     -36.213  24.029   4.823  0.00  0.00    +0.177 C 
BRANCH  11  12
ATOM     12  N   UNL     1     -35.983  22.948   5.777  0.00  0.00    -0.105 NA
ATOM     13  N   UNL     1     -35.814  22.149   6.482  0.00  0.00    -0.020 NA
ENDBRANCH  11  12
ENDBRANCH  10  11
ENDBRANCH   4  10
ENDBRANCH   1   8
BRANCH   1  15
ATOM     14  O   UNL     1     -32.537  20.298   0.451  0.00  0.00    -0.273 OA
ATOM     15  N   UNL     1     -34.402  19.151   1.246  0.00  0.00    -0.297 N 
ATOM     16  C   UNL     1     -33.048  19.309   0.970  0.00  0.00    +0.241 C 
ATOM     17  H   UNL     1     -34.696  18.310   1.666  0.00  0.00    +0.150 HD
BRANCH  16  20
ATOM     18  O   UNL     1     -32.611  15.521  -0.958  0.00  0.00    -0.275 OA
ATOM     19  N   UNL     1     -32.881  16.966   0.866  0.00  0.00    -0.298 N 
ATOM     20  C   UNL     1     -32.233  18.132   1.397  0.00  0.00    +0.149 C 
ATOM     21  C   UNL     1     -30.859  18.105   0.755  0.00  0.00    +0.039 C 
ATOM     22  C   UNL     1     -31.070  17.358  -0.562  0.00  0.00    +0.087 C 
ATOM     23  C   UNL     1     -32.258  16.472  -0.276  0.00  0.00    +0.223 C 
ATOM     24  H   UNL     1     -33.682  16.559   1.266  0.00  0.00    +0.150 HD
ENDBRANCH  16  20
ENDBRANCH   1  15
BRANCH   1  25
ATOM     25  C   UNL     1     -36.798  19.578   0.811  0.00  0.00    +0.071 C 
BRANCH  25  28
ATOM     26  N   UNL     1     -38.568  20.849   2.087  0.00  0.00    -0.319 N 
ATOM     27  N   UNL     1     -39.305  22.365   0.641  0.00  0.00    -0.315 N 
ATOM     28  C   UNL     1     -37.853  20.650   0.940  0.00  0.00    +0.040 C 
ATOM     29  C   UNL     1     -38.325  21.597   0.062  0.00  0.00    +0.069 C 
ATOM     30  C   UNL     1     -39.427  21.888   1.859  0.00  0.00    +0.182 C 
ATOM     31  H   UNL     1     -38.481  20.338   2.924  0.00  0.00    +0.148 HD
ATOM     32  H   UNL     1     -39.805  23.108   0.233  0.00  0.00    +0.148 HD
ENDBRANCH  25  28
ENDBRANCH   1  25
TORSDOF 8
ENDMDL
MODEL 2
REMARK VINA RESULT:      -6.0      4.893      8.075
REMARK  Name = 195963
REMARK  8 active torsions:
REMARK  status: ('A' for Active; 'I' for Inactive)
REMARK    1  A    between atoms: C_1  and  C_8
REMARK    2  A    between atoms: C_1  and  N_15
REMARK    3  A    between atoms: C_1  and  C_25
REMARK    4  A    between atoms: C_4  and  C_10
REMARK    5  A    between atoms: C_10  and  C_11
REMARK    6  A    between atoms: C_11  and  N_12
REMARK    7  A    between atoms: C_16  and  C_20
REMARK    8  A    between atoms: C_25  and  C_28
REMARK                            x       y       z     vdW  Elec       q    Type
REMARK                         _______ _______ _______ _____ _____    ______ ____
ROOT
ATOM      1  C   UNL     1     -34.395  25.964   3.998  0.00  0.00    +0.155 C 
ENDROOT
BRANCH   1   8
ATOM      2  O   UNL     1     -36.455  26.574   5.023  0.00  0.00    -0.273 OA
ATOM      3  N   UNL     1     -36.526  25.960   2.792  0.00  0.00    -0.273 N 
ATOM      4  C   UNL     1     -37.946  26.247   2.584  0.00  0.00    +0.134 C 
ATOM      5  C   UNL     1     -38.096  26.270   1.061  0.00  0.00    +0.029 C 
ATOM      6  C   UNL     1     -35.889  25.517   1.553  0.00  0.00    +0.094 C 
ATOM      7  C   UNL     1     -37.039  25.278   0.588  0.00  0.00    +0.024 C 
ATOM      8  C   UNL     1     -35.884  26.200   3.997  0.00  0.00    +0.244 C 
BRANCH   4  10
ATOM      9  O   UNL     1     -38.055  24.339   3.833  0.00  0.00    -0.293 OA
ATOM     10  C   UNL     1     -38.774  25.176   3.223  0.00  0.00    +0.188 C 
BRANCH  10  11
ATOM     11  C   UNL     1     -40.111  25.254   3.066  0.00  0.00    +0.177 C 
BRANCH  11  12
ATOM     12  N   UNL     1     -40.837  26.468   3.428  0.00  0.00    -0.105 NA
ATOM     13  N   UNL     1     -41.372  27.366   3.696  0.00  0.00    -0.020 NA
ENDBRANCH  11  12
ENDBRANCH  10  11
ENDBRANCH   4  10
ENDBRANCH   1   8
BRANCH   1  15
ATOM     14  O   UNL     1     -31.750  26.862   3.208  0.00  0.00    -0.273 OA
ATOM     15  N   UNL     1     -33.847  27.284   4.129  0.00  0.00    -0.297 N 
ATOM     16  C   UNL     1     -32.563  27.627   3.720  0.00  0.00    +0.241 C 
ATOM     17  H   UNL     1     -34.411  27.985   4.529  0.00  0.00    +0.150 HD
BRANCH  16  20
ATOM     18  O   UNL     1     -31.610  29.610   7.383  0.00  0.00    -0.275 OA
ATOM     19  N   UNL     1     -32.646  29.370   5.297  0.00  0.00    -0.298 N 
ATOM     20  C   UNL     1     -32.254  29.071   3.948  0.00  0.00    +0.149 C 
ATOM     21  C   UNL     1     -30.765  29.363   3.932  0.00  0.00    +0.039 C 
ATOM     22  C   UNL     1     -30.321  29.140   5.378  0.00  0.00    +0.087 C 
ATOM     23  C   UNL     1     -31.570  29.418   6.177  0.00  0.00    +0.223 C 
ATOM     24  H   UNL     1     -33.579  29.524   5.570  0.00  0.00    +0.150 HD
ENDBRANCH  16  20
ENDBRANCH   1  15
BRANCH   1  25
ATOM     25  C   UNL     1     -34.008  25.033   5.141  0.00  0.00    +0.071 C 
BRANCH  25  28
ATOM     26  N   UNL     1     -34.960  23.060   3.885  0.00  0.00    -0.319 N 
ATOM     27  N   UNL     1     -35.879  21.797   5.464  0.00  0.00    -0.315 N 
ATOM     28  C   UNL     1     -34.742  23.716   5.064  0.00  0.00    +0.040 C 
ATOM     29  C   UNL     1     -35.319  22.919   6.023  0.00  0.00    +0.069 C 
ATOM     30  C   UNL     1     -35.646  21.913   4.176  0.00  0.00    +0.182 C 
ATOM     31  H   UNL     1     -34.675  23.358   2.991  0.00  0.00    +0.148 HD
ATOM     32  H   UNL     1     -36.351  21.067   5.926  0.00  0.00    +0.148 HD
ENDBRANCH  25  28
ENDBRANCH   1  25
TORSDOF 8
ENDMDL
MODEL 3
REMARK VINA RESULT:      -5.8      3.685      6.738
REMARK  Name = 195963
REMARK  8 active torsions:
REMARK  status: ('A' for Active; 'I' for Inactive)
REMARK    1  A    between atoms: C_1  and  C_8
REMARK    2  A    between atoms: C_1  and  N_15
REMARK    3  A    between atoms: C_1  and  C_25
REMARK    4  A    between atoms: C_4  and  C_10
REMARK    5  A    between atoms: C_10  and  C_11
REMARK    6  A    between atoms: C_11  and  N_12
REMARK    7  A    between atoms: C_16  and  C_20
REMARK    8  A    between atoms: C_25  and  C_28
REMARK                            x       y       z     vdW  Elec       q    Type
REMARK                         _______ _______ _______ _____ _____    ______ ____
ROOT
ATOM      1  C   UNL     1     -38.100  23.399   2.287  0.00  0.00    +0.155 C 
ENDROOT
BRANCH   1   8
ATOM      2  O   UNL     1     -39.468  24.668   3.765  0.00  0.00    -0.273 OA
ATOM      3  N   UNL     1     -39.460  25.293   1.536  0.00  0.00    -0.273 N 
ATOM      4  C   UNL     1     -40.303  26.479   1.691  0.00  0.00    +0.134 C 
ATOM      5  C   UNL     1     -40.095  27.249   0.385  0.00  0.00    +0.029 C 
ATOM      6  C   UNL     1     -39.012  25.138   0.153  0.00  0.00    +0.094 C 
ATOM      7  C   UNL     1     -39.832  26.147  -0.636  0.00  0.00    +0.024 C 
ATOM      8  C   UNL     1     -39.069  24.508   2.611  0.00  0.00    +0.244 C 
BRANCH   4  10
ATOM      9  O   UNL     1     -41.920  24.879   1.494  0.00  0.00    -0.293 OA
ATOM     10  C   UNL     1     -41.727  26.061   1.888  0.00  0.00    +0.188 C 
BRANCH  10  11
ATOM     11  C   UNL     1     -42.564  26.966   2.434  0.00  0.00    +0.177 C 
BRANCH  11  12
ATOM     12  N   UNL     1     -42.138  27.798   3.555  0.00  0.00    -0.105 NA
ATOM     13  N   UNL     1     -41.825  28.415   4.383  0.00  0.00    -0.020 NA
ENDBRANCH  11  12
ENDBRANCH  10  11
ENDBRANCH   4  10
ENDBRANCH   1   8
BRANCH   1  15
ATOM     14  O   UNL     1     -35.269  23.988   2.031  0.00  0.00    -0.273 OA
ATOM     15  N   UNL     1     -37.129  23.484   3.340  0.00  0.00    -0.297 N 
ATOM     16  C   UNL     1     -35.786  23.774   3.125  0.00  0.00    +0.241 C 
ATOM     17  H   UNL     1     -37.430  23.330   4.264  0.00  0.00    +0.150 HD
BRANCH  16  20
ATOM     18  O   UNL     1     -33.830  27.122   4.919  0.00  0.00    -0.275 OA
ATOM     19  N   UNL     1     -34.046  24.889   4.246  0.00  0.00    -0.298 N 
ATOM     20  C   UNL     1     -34.999  23.827   4.394  0.00  0.00    +0.149 C 
ATOM     21  C   UNL     1     -35.835  24.255   5.586  0.00  0.00    +0.039 C 
ATOM     22  C   UNL     1     -35.745  25.781   5.581  0.00  0.00    +0.087 C 
ATOM     23  C   UNL     1     -34.424  26.054   4.906  0.00  0.00    +0.223 C 
ATOM     24  H   UNL     1     -33.212  24.803   3.730  0.00  0.00    +0.150 HD
ENDBRANCH  16  20
ENDBRANCH   1  15
BRANCH   1  25
ATOM     25  C   UNL     1     -38.826  22.060   2.242  0.00  0.00    +0.071 C 
BRANCH  25  28
ATOM     26  N   UNL     1     -37.049  20.285   1.983  0.00  0.00    -0.319 N 
ATOM     27  N   UNL     1     -37.220  19.641  -0.135  0.00  0.00    -0.315 N 
ATOM     28  C   UNL     1     -38.058  21.033   1.445  0.00  0.00    +0.040 C 
ATOM     29  C   UNL     1     -38.145  20.619   0.137  0.00  0.00    +0.069 C 
ATOM     30  C   UNL     1     -36.576  19.464   0.997  0.00  0.00    +0.182 C 
ATOM     31  H   UNL     1     -36.722  20.328   2.911  0.00  0.00    +0.148 HD
ATOM     32  H   UNL     1     -37.072  19.176  -0.990  0.00  0.00    +0.148 HD
ENDBRANCH  25  28
ENDBRANCH   1  25
TORSDOF 8
ENDMDL
MODEL 4
REMARK VINA RESULT:      -5.8      2.498      7.659
REMARK  Name = 195963
REMARK  8 active torsions:
REMARK  status: ('A' for Active; 'I' for Inactive)
REMARK    1  A    between atoms: C_1  and  C_8
REMARK    2  A    between atoms: C_1  and  N_15
REMARK    3  A    between atoms: C_1  and  C_25
REMARK    4  A    between atoms: C_4  and  C_10
REMARK    5  A    between atoms: C_10  and  C_11
REMARK    6  A    between atoms: C_11  and  N_12
REMARK    7  A    between atoms: C_16  and  C_20
REMARK    8  A    between atoms: C_25  and  C_28
REMARK                            x       y       z     vdW  Elec       q    Type
REMARK                         _______ _______ _______ _____ _____    ______ ____
ROOT
ATOM      1  C   UNL     1     -35.805  23.027   3.228  0.00  0.00    +0.155 C 
ENDROOT
BRANCH   1   8
ATOM      2  O   UNL     1     -35.265  20.745   3.637  0.00  0.00    -0.273 OA
ATOM      3  N   UNL     1     -35.514  21.392   1.428  0.00  0.00    -0.273 N 
ATOM      4  C   UNL     1     -35.356  20.059   0.844  0.00  0.00    +0.134 C 
ATOM      5  C   UNL     1     -35.875  20.222  -0.586  0.00  0.00    +0.029 C 
ATOM      6  C   UNL     1     -35.793  22.392   0.399  0.00  0.00    +0.094 C 
ATOM      7  C   UNL     1     -35.543  21.673  -0.919  0.00  0.00    +0.024 C 
ATOM      8  C   UNL     1     -35.505  21.613   2.797  0.00  0.00    +0.244 C 
BRANCH   4  10
ATOM      9  O   UNL     1     -33.154  20.657   0.744  0.00  0.00    -0.293 OA
ATOM     10  C   UNL     1     -33.914  19.660   0.886  0.00  0.00    +0.188 C 
BRANCH  10  11
ATOM     11  C   UNL     1     -33.642  18.351   1.062  0.00  0.00    +0.177 C 
BRANCH  11  12
ATOM     12  N   UNL     1     -32.284  17.903   1.354  0.00  0.00    -0.105 NA
ATOM     13  N   UNL     1     -31.280  17.570   1.570  0.00  0.00    -0.020 NA
ENDBRANCH  11  12
ENDBRANCH  10  11
ENDBRANCH   4  10
ENDBRANCH   1   8
BRANCH   1  15
ATOM     14  O   UNL     1     -37.512  25.279   2.564  0.00  0.00    -0.273 OA
ATOM     15  N   UNL     1     -37.239  23.071   3.253  0.00  0.00    -0.297 N 
ATOM     16  C   UNL     1     -37.979  24.199   2.917  0.00  0.00    +0.241 C 
ATOM     17  H   UNL     1     -37.726  22.259   3.523  0.00  0.00    +0.150 HD
BRANCH  16  20
ATOM     18  O   UNL     1     -41.099  27.046   3.562  0.00  0.00    -0.275 OA
ATOM     19  N   UNL     1     -39.986  25.004   3.841  0.00  0.00    -0.298 N 
ATOM     20  C   UNL     1     -39.453  23.967   3.004  0.00  0.00    +0.149 C 
ATOM     21  C   UNL     1     -40.160  24.174   1.678  0.00  0.00    +0.039 C 
ATOM     22  C   UNL     1     -40.494  25.666   1.657  0.00  0.00    +0.087 C 
ATOM     23  C   UNL     1     -40.598  26.024   3.119  0.00  0.00    +0.223 C 
ATOM     24  H   UNL     1     -39.924  24.996   4.823  0.00  0.00    +0.150 HD
ENDBRANCH  16  20
ENDBRANCH   1  15
BRANCH   1  25
ATOM     25  C   UNL     1     -35.168  23.314   4.582  0.00  0.00    +0.071 C 
BRANCH  25  28
ATOM     26  N   UNL     1     -34.474  25.535   3.600  0.00  0.00    -0.319 N 
ATOM     27  N   UNL     1     -34.039  26.804   5.370  0.00  0.00    -0.315 N 
ATOM     28  C   UNL     1     -34.708  24.747   4.692  0.00  0.00    +0.040 C 
ATOM     29  C   UNL     1     -34.432  25.552   5.772  0.00  0.00    +0.069 C 
ATOM     30  C   UNL     1     -34.075  26.761   4.057  0.00  0.00    +0.182 C 
ATOM     31  H   UNL     1     -34.575  25.268   2.658  0.00  0.00    +0.148 HD
ATOM     32  H   UNL     1     -33.787  27.567   5.939  0.00  0.00    +0.148 HD
ENDBRANCH  25  28
ENDBRANCH   1  25
TORSDOF 8
ENDMDL
MODEL 5
REMARK VINA RESULT:      -5.8      2.735      6.371
REMARK  Name = 195963
REMARK  8 active torsions:
REMARK  status: ('A' for Active; 'I' for Inactive)
REMARK    1  A    between atoms: C_1  and  C_8
REMARK    2  A    between atoms: C_1  and  N_15
REMARK    3  A    between atoms: C_1  and  C_25
REMARK    4  A    between atoms: C_4  and  C_10
REMARK    5  A    between atoms: C_10  and  C_11
REMARK    6  A    between atoms: C_11  and  N_12
REMARK    7  A    between atoms: C_16  and  C_20
REMARK    8  A    between atoms: C_25  and  C_28
REMARK                            x       y       z     vdW  Elec       q    Type
REMARK                         _______ _______ _______ _____ _____    ______ ____
ROOT
ATOM      1  C   UNL     1     -35.756  22.058   1.508  0.00  0.00    +0.155 C 
ENDROOT
BRANCH   1   8
ATOM      2  O   UNL     1     -36.170  24.321   2.121  0.00  0.00    -0.273 OA
ATOM      3  N   UNL     1     -35.576  22.861   3.815  0.00  0.00    -0.273 N 
ATOM      4  C   UNL     1     -35.738  23.809   4.919  0.00  0.00    +0.134 C 
ATOM      5  C   UNL     1     -35.763  22.921   6.165  0.00  0.00    +0.029 C 
ATOM      6  C   UNL     1     -35.204  21.535   4.307  0.00  0.00    +0.094 C 
ATOM      7  C   UNL     1     -34.874  21.744   5.777  0.00  0.00    +0.024 C 
ATOM      8  C   UNL     1     -35.859  23.191   2.499  0.00  0.00    +0.244 C 
BRANCH   4  10
ATOM      9  O   UNL     1     -33.620  24.338   4.249  0.00  0.00    -0.293 OA
ATOM     10  C   UNL     1     -34.591  24.771   4.927  0.00  0.00    +0.188 C 
BRANCH  10  11
ATOM     11  C   UNL     1     -34.750  25.913   5.625  0.00  0.00    +0.177 C 
BRANCH  11  12
ATOM     12  N   UNL     1     -33.594  26.693   6.055  0.00  0.00    -0.105 NA
ATOM     13  N   UNL     1     -32.739  27.272   6.373  0.00  0.00    -0.020 NA
ENDBRANCH  11  12
ENDBRANCH  10  11
ENDBRANCH   4  10
ENDBRANCH   1   8
BRANCH   1  15
ATOM     14  O   UNL     1     -38.505  21.303   2.058  0.00  0.00    -0.273 OA
ATOM     15  N   UNL     1     -36.899  22.250   0.662  0.00  0.00    -0.297 N 
ATOM     16  C   UNL     1     -38.186  21.855   1.008  0.00  0.00    +0.241 C 
ATOM     17  H   UNL     1     -36.765  22.684  -0.211  0.00  0.00    +0.150 HD
BRANCH  16  20
ATOM     18  O   UNL     1     -41.681  24.290   1.345  0.00  0.00    -0.275 OA
ATOM     19  N   UNL     1     -40.435  22.437   0.638  0.00  0.00    -0.298 N 
ATOM     20  C   UNL     1     -39.194  22.194  -0.042  0.00  0.00    +0.149 C 
ATOM     21  C   UNL     1     -38.898  23.511  -0.736  0.00  0.00    +0.039 C 
ATOM     22  C   UNL     1     -39.593  24.560   0.132  0.00  0.00    +0.087 C 
ATOM     23  C   UNL     1     -40.721  23.792   0.777  0.00  0.00    +0.223 C 
ATOM     24  H   UNL     1     -41.021  21.721   0.972  0.00  0.00    +0.150 HD
ENDBRANCH  16  20
ENDBRANCH   1  15
BRANCH   1  25
ATOM     25  C   UNL     1     -34.431  22.129   0.760  0.00  0.00    +0.071 C 
BRANCH  25  28
ATOM     26  N   UNL     1     -34.166  19.722   1.475  0.00  0.00    -0.319 N 
ATOM     27  N   UNL     1     -32.234  19.093   0.577  0.00  0.00    -0.315 N 
ATOM     28  C   UNL     1     -33.692  20.814   0.805  0.00  0.00    +0.040 C 
ATOM     29  C   UNL     1     -32.499  20.402   0.259  0.00  0.00    +0.069 C 
ATOM     30  C   UNL     1     -33.257  18.713   1.310  0.00  0.00    +0.182 C 
ATOM     31  H   UNL     1     -35.007  19.671   1.984  0.00  0.00    +0.148 HD
ATOM     32  H   UNL     1     -31.452  18.557   0.314  0.00  0.00    +0.148 HD
ENDBRANCH  25  28
ENDBRANCH   1  25
TORSDOF 8
ENDMDL
MODEL 6
REMARK VINA RESULT:      -5.8      2.094      6.825
REMARK  Name = 195963
REMARK  8 active torsions:
REMARK  status: ('A' for Active; 'I' for Inactive)
REMARK    1  A    between atoms: C_1  and  C_8
REMARK    2  A    between atoms: C_1  and  N_15
REMARK    3  A    between atoms: C_1  and  C_25
REMARK    4  A    between atoms: C_4  and  C_10
REMARK    5  A    between atoms: C_10  and  C_11
REMARK    6  A    between atoms: C_11  and  N_12
REMARK    7  A    between atoms: C_16  and  C_20
REMARK    8  A    between atoms: C_25  and  C_28
REMARK                            x       y       z     vdW  Elec       q    Type
REMARK                         _______ _______ _______ _____ _____    ______ ____
ROOT
ATOM      1  C   UNL     1     -35.960  22.526   3.079  0.00  0.00    +0.155 C 
ENDROOT
BRANCH   1   8
ATOM      2  O   UNL     1     -35.219  20.299   3.479  0.00  0.00    -0.273 OA
ATOM      3  N   UNL     1     -35.228  21.031   1.283  0.00  0.00    -0.273 N 
ATOM      4  C   UNL     1     -34.833  19.757   0.679  0.00  0.00    +0.134 C 
ATOM      5  C   UNL     1     -35.160  19.937  -0.804  0.00  0.00    +0.029 C 
ATOM      6  C   UNL     1     -35.473  22.047   0.261  0.00  0.00    +0.094 C 
ATOM      7  C   UNL     1     -34.958  21.432  -1.031  0.00  0.00    +0.024 C 
ATOM      8  C   UNL     1     -35.438  21.179   2.645  0.00  0.00    +0.244 C 
BRANCH   4  10
ATOM      9  O   UNL     1     -32.680  20.505   0.553  0.00  0.00    -0.293 OA
ATOM     10  C   UNL     1     -33.375  19.518   0.918  0.00  0.00    +0.188 C 
BRANCH  10  11
ATOM     11  C   UNL     1     -33.025  18.337   1.465  0.00  0.00    +0.177 C 
BRANCH  11  12
ATOM     12  N   UNL     1     -31.649  17.856   1.390  0.00  0.00    -0.105 NA
ATOM     13  N   UNL     1     -30.632  17.500   1.333  0.00  0.00    -0.020 NA
ENDBRANCH  11  12
ENDBRANCH  10  11
ENDBRANCH   4  10
ENDBRANCH   1   8
BRANCH   1  15
ATOM     14  O   UNL     1     -37.811  24.410   1.874  0.00  0.00    -0.273 OA
ATOM     15  N   UNL     1     -37.383  22.390   2.952  0.00  0.00    -0.297 N 
ATOM     16  C   UNL     1     -38.196  23.347   2.356  0.00  0.00    +0.241 C 
ATOM     17  H   UNL     1     -37.806  21.574   3.304  0.00  0.00    +0.150 HD
BRANCH  16  20
ATOM     18  O   UNL     1     -40.884  23.238  -0.963  0.00  0.00    -0.275 OA
ATOM     19  N   UNL     1     -40.247  23.664   1.250  0.00  0.00    -0.298 N 
ATOM     20  C   UNL     1     -39.635  22.945   2.332  0.00  0.00    +0.149 C 
ATOM     21  C   UNL     1     -39.831  21.489   1.955  0.00  0.00    +0.039 C 
ATOM     22  C   UNL     1     -39.910  21.500   0.428  0.00  0.00    +0.087 C 
ATOM     23  C   UNL     1     -40.428  22.882   0.113  0.00  0.00    +0.223 C 
ATOM     24  H   UNL     1     -40.510  24.610   1.306  0.00  0.00    +0.150 HD
ENDBRANCH  16  20
ENDBRANCH   1  15
BRANCH   1  25
ATOM     25  C   UNL     1     -35.508  22.835   4.501  0.00  0.00    +0.071 C 
BRANCH  25  28
ATOM     26  N   UNL     1     -34.168  24.960   4.757  0.00  0.00    -0.319 N 
ATOM     27  N   UNL     1     -35.695  26.530   5.123  0.00  0.00    -0.315 N 
ATOM     28  C   UNL     1     -35.375  24.320   4.736  0.00  0.00    +0.040 C 
ATOM     29  C   UNL     1     -36.303  25.309   4.964  0.00  0.00    +0.069 C 
ATOM     30  C   UNL     1     -34.411  26.285   4.993  0.00  0.00    +0.182 C 
ATOM     31  H   UNL     1     -33.285  24.544   4.627  0.00  0.00    +0.148 HD
ATOM     32  H   UNL     1     -36.128  27.398   5.294  0.00  0.00    +0.148 HD
ENDBRANCH  25  28
ENDBRANCH   1  25
TORSDOF 8
ENDMDL
MODEL 7
REMARK VINA RESULT:      -5.7      3.969      7.677
REMARK  Name = 195963
REMARK  8 active torsions:
REMARK  status: ('A' for Active; 'I' for Inactive)
REMARK    1  A    between atoms: C_1  and  C_8
REMARK    2  A    between atoms: C_1  and  N_15
REMARK    3  A    between atoms: C_1  and  C_25
REMARK    4  A    between atoms: C_4  and  C_10
REMARK    5  A    between atoms: C_10  and  C_11
REMARK    6  A    between atoms: C_11  and  N_12
REMARK    7  A    between atoms: C_16  and  C_20
REMARK    8  A    between atoms: C_25  and  C_28
REMARK                            x       y       z     vdW  Elec       q    Type
REMARK                         _______ _______ _______ _____ _____    ______ ____
ROOT
ATOM      1  C   UNL     1     -35.370  26.172   3.558  0.00  0.00    +0.155 C 
ENDROOT
BRANCH   1   8
ATOM      2  O   UNL     1     -34.660  24.521   1.996  0.00  0.00    -0.273 OA
ATOM      3  N   UNL     1     -35.255  23.789   4.111  0.00  0.00    -0.273 N 
ATOM      4  C   UNL     1     -34.893  22.385   3.911  0.00  0.00    +0.134 C 
ATOM      5  C   UNL     1     -34.853  21.811   5.328  0.00  0.00    +0.029 C 
ATOM      6  C   UNL     1     -35.723  24.025   5.475  0.00  0.00    +0.094 C 
ATOM      7  C   UNL     1     -35.895  22.638   6.073  0.00  0.00    +0.024 C 
ATOM      8  C   UNL     1     -35.056  24.757   3.138  0.00  0.00    +0.244 C 
BRANCH   4  10
ATOM      9  O   UNL     1     -35.717  20.477   2.964  0.00  0.00    -0.293 OA
ATOM     10  C   UNL     1     -35.923  21.718   3.053  0.00  0.00    +0.188 C 
BRANCH  10  11
ATOM     11  C   UNL     1     -36.884  22.500   2.522  0.00  0.00    +0.177 C 
BRANCH  11  12
ATOM     12  N   UNL     1     -38.224  21.977   2.275  0.00  0.00    -0.105 NA
ATOM     13  N   UNL     1     -39.214  21.588   2.092  0.00  0.00    -0.020 NA
ENDBRANCH  11  12
ENDBRANCH  10  11
ENDBRANCH   4  10
ENDBRANCH   1   8
BRANCH   1  15
ATOM     14  O   UNL     1     -33.761  26.868   5.872  0.00  0.00    -0.273 OA
ATOM     15  N   UNL     1     -34.085  26.811   3.566  0.00  0.00    -0.297 N 
ATOM     16  C   UNL     1     -33.382  27.107   4.728  0.00  0.00    +0.241 C 
ATOM     17  H   UNL     1     -33.678  27.051   2.702  0.00  0.00    +0.150 HD
BRANCH  16  20
ATOM     18  O   UNL     1     -32.556  31.142   3.590  0.00  0.00    -0.275 OA
ATOM     19  N   UNL     1     -32.304  28.814   3.522  0.00  0.00    -0.298 N 
ATOM     20  C   UNL     1     -32.060  27.749   4.453  0.00  0.00    +0.149 C 
ATOM     21  C   UNL     1     -31.486  28.454   5.667  0.00  0.00    +0.039 C 
ATOM     22  C   UNL     1     -32.074  29.863   5.600  0.00  0.00    +0.087 C 
ATOM     23  C   UNL     1     -32.331  30.067   4.127  0.00  0.00    +0.223 C 
ATOM     24  H   UNL     1     -32.439  28.674   2.558  0.00  0.00    +0.150 HD
ENDBRANCH  16  20
ENDBRANCH   1  15
BRANCH   1  25
ATOM     25  C   UNL     1     -36.353  26.806   2.583  0.00  0.00    +0.071 C 
BRANCH  25  28
ATOM     26  N   UNL     1     -38.408  25.839   3.688  0.00  0.00    -0.319 N 
ATOM     27  N   UNL     1     -39.560  24.941   2.016  0.00  0.00    -0.315 N 
ATOM     28  C   UNL     1     -37.672  26.072   2.560  0.00  0.00    +0.040 C 
ATOM     29  C   UNL     1     -38.403  25.508   1.541  0.00  0.00    +0.069 C 
ATOM     30  C   UNL     1     -39.532  25.158   3.311  0.00  0.00    +0.182 C 
ATOM     31  H   UNL     1     -38.172  26.112   4.605  0.00  0.00    +0.148 HD
ATOM     32  H   UNL     1     -40.256  24.476   1.498  0.00  0.00    +0.148 HD
ENDBRANCH  25  28
ENDBRANCH   1  25
TORSDOF 8
ENDMDL
MODEL 8
REMARK VINA RESULT:      -5.7      1.414      2.152
REMARK  Name = 195963
REMARK  8 active torsions:
REMARK  status: ('A' for Active; 'I' for Inactive)
REMARK    1  A    between atoms: C_1  and  C_8
REMARK    2  A    between atoms: C_1  and  N_15
REMARK    3  A    between atoms: C_1  and  C_25
REMARK    4  A    between atoms: C_4  and  C_10
REMARK    5  A    between atoms: C_10  and  C_11
REMARK    6  A    between atoms: C_11  and  N_12
REMARK    7  A    between atoms: C_16  and  C_20
REMARK    8  A    between atoms: C_25  and  C_28
REMARK                            x       y       z     vdW  Elec       q    Type
REMARK                         _______ _______ _______ _____ _____    ______ ____
ROOT
ATOM      1  C   UNL     1     -35.388  20.101   0.958  0.00  0.00    +0.155 C 
ENDROOT
BRANCH   1   8
ATOM      2  O   UNL     1     -35.365  20.618   3.282  0.00  0.00    -0.273 OA
ATOM      3  N   UNL     1     -35.133  22.385   1.804  0.00  0.00    -0.273 N 
ATOM      4  C   UNL     1     -34.910  23.421   2.814  0.00  0.00    +0.134 C 
ATOM      5  C   UNL     1     -34.349  24.599   2.015  0.00  0.00    +0.029 C 
ATOM      6  C   UNL     1     -35.043  22.936   0.453  0.00  0.00    +0.094 C 
ATOM      7  C   UNL     1     -35.011  24.444   0.649  0.00  0.00    +0.024 C 
ATOM      8  C   UNL     1     -35.293  21.047   2.129  0.00  0.00    +0.244 C 
BRANCH   4  10
ATOM      9  O   UNL     1     -37.165  23.748   2.671  0.00  0.00    -0.293 OA
ATOM     10  C   UNL     1     -36.205  23.752   3.489  0.00  0.00    +0.188 C 
BRANCH  10  11
ATOM     11  C   UNL     1     -36.164  23.997   4.814  0.00  0.00    +0.177 C 
BRANCH  11  12
ATOM     12  N   UNL     1     -35.969  22.911   5.769  0.00  0.00    -0.105 NA
ATOM     13  N   UNL     1     -35.825  22.107   6.475  0.00  0.00    -0.020 NA
ENDBRANCH  11  12
ENDBRANCH  10  11
ENDBRANCH   4  10
ENDBRANCH   1   8
BRANCH   1  15
ATOM     14  O   UNL     1     -32.531  20.198   0.456  0.00  0.00    -0.273 OA
ATOM     15  N   UNL     1     -34.415  19.092   1.263  0.00  0.00    -0.297 N 
ATOM     16  C   UNL     1     -33.059  19.224   0.986  0.00  0.00    +0.241 C 
ATOM     17  H   UNL     1     -34.723  18.261   1.692  0.00  0.00    +0.150 HD
BRANCH  16  20
ATOM     18  O   UNL     1     -32.540  15.469  -0.985  0.00  0.00    -0.275 OA
ATOM     19  N   UNL     1     -32.888  16.882   0.849  0.00  0.00    -0.298 N 
ATOM     20  C   UNL     1     -32.264  18.038   1.428  0.00  0.00    +0.149 C 
ATOM     21  C   UNL     1     -30.862  18.021   0.847  0.00  0.00    +0.039 C 
ATOM     22  C   UNL     1     -31.017  17.296  -0.490  0.00  0.00    +0.087 C 
ATOM     23  C   UNL     1     -32.216  16.407  -0.273  0.00  0.00    +0.223 C 
ATOM     24  H   UNL     1     -33.707  16.470   1.207  0.00  0.00    +0.150 HD
ENDBRANCH  16  20
ENDBRANCH   1  15
BRANCH   1  25
ATOM     25  C   UNL     1     -36.805  19.556   0.833  0.00  0.00    +0.071 C 
BRANCH  25  28
ATOM     26  N   UNL     1     -37.262  17.104   0.437  0.00  0.00    -0.319 N 
ATOM     27  N   UNL     1     -36.759  16.791  -1.703  0.00  0.00    -0.315 N 
ATOM     28  C   UNL     1     -36.856  18.321  -0.034  0.00  0.00    +0.040 C 
ATOM     29  C   UNL     1     -36.550  18.103  -1.356  0.00  0.00    +0.069 C 
ATOM     30  C   UNL     1     -37.187  16.217  -0.601  0.00  0.00    +0.182 C 
ATOM     31  H   UNL     1     -37.555  16.902   1.356  0.00  0.00    +0.148 HD
ATOM     32  H   UNL     1     -36.620  16.373  -2.583  0.00  0.00    +0.148 HD
ENDBRANCH  25  28
ENDBRANCH   1  25
TORSDOF 8
ENDMDL
MODEL 9
REMARK VINA RESULT:      -5.7      4.317      7.212
REMARK  Name = 195963
REMARK  8 active torsions:
REMARK  status: ('A' for Active; 'I' for Inactive)
REMARK    1  A    between atoms: C_1  and  C_8
REMARK    2  A    between atoms: C_1  and  N_15
REMARK    3  A    between atoms: C_1  and  C_25
REMARK    4  A    between atoms: C_4  and  C_10
REMARK    5  A    between atoms: C_10  and  C_11
REMARK    6  A    between atoms: C_11  and  N_12
REMARK    7  A    between atoms: C_16  and  C_20
REMARK    8  A    between atoms: C_25  and  C_28
REMARK                            x       y       z     vdW  Elec       q    Type
REMARK                         _______ _______ _______ _____ _____    ______ ____
ROOT
ATOM      1  C   UNL     1     -37.854  26.145   2.115  0.00  0.00    +0.155 C 
ENDROOT
BRANCH   1   8
ATOM      2  O   UNL     1     -39.686  25.054   3.173  0.00  0.00    -0.273 OA
ATOM      3  N   UNL     1     -40.162  26.362   1.324  0.00  0.00    -0.273 N 
ATOM      4  C   UNL     1     -41.617  26.223   1.389  0.00  0.00    +0.134 C 
ATOM      5  C   UNL     1     -42.134  27.335   0.474  0.00  0.00    +0.029 C 
ATOM      6  C   UNL     1     -39.763  27.249   0.232  0.00  0.00    +0.094 C 
ATOM      7  C   UNL     1     -41.034  27.468  -0.575  0.00  0.00    +0.024 C 
ATOM      8  C   UNL     1     -39.314  25.798   2.265  0.00  0.00    +0.244 C 
BRANCH   4  10
ATOM      9  O   UNL     1     -43.223  24.614   1.172  0.00  0.00    -0.293 OA
ATOM     10  C   UNL     1     -42.014  24.860   0.912  0.00  0.00    +0.188 C 
BRANCH  10  11
ATOM     11  C   UNL     1     -41.067  24.123   0.298  0.00  0.00    +0.177 C 
BRANCH  11  12
ATOM     12  N   UNL     1     -40.717  22.794   0.792  0.00  0.00    -0.105 NA
ATOM     13  N   UNL     1     -40.460  21.812   1.158  0.00  0.00    -0.020 NA
ENDBRANCH  11  12
ENDBRANCH  10  11
ENDBRANCH   4  10
ENDBRANCH   1   8
BRANCH   1  15
ATOM     14  O   UNL     1     -35.375  27.185   3.211  0.00  0.00    -0.273 OA
ATOM     15  N   UNL     1     -37.321  25.924   3.428  0.00  0.00    -0.297 N 
ATOM     16  C   UNL     1     -36.119  26.465   3.871  0.00  0.00    +0.241 C 
ATOM     17  H   UNL     1     -37.833  25.358   4.050  0.00  0.00    +0.150 HD
BRANCH  16  20
ATOM     18  O   UNL     1     -36.015  22.587   5.662  0.00  0.00    -0.275 OA
ATOM     19  N   UNL     1     -36.510  24.874   5.558  0.00  0.00    -0.298 N 
ATOM     20  C   UNL     1     -35.810  26.097   5.286  0.00  0.00    +0.149 C 
ATOM     21  C   UNL     1     -34.352  25.731   5.493  0.00  0.00    +0.039 C 
ATOM     22  C   UNL     1     -34.291  24.234   5.193  0.00  0.00    +0.087 C 
ATOM     23  C   UNL     1     -35.686  23.754   5.512  0.00  0.00    +0.223 C 
ATOM     24  H   UNL     1     -37.474  24.831   5.755  0.00  0.00    +0.150 HD
ENDBRANCH  16  20
ENDBRANCH   1  15
BRANCH   1  25
ATOM     25  C   UNL     1     -37.210  25.272   1.046  0.00  0.00    +0.071 C 
BRANCH  25  28
ATOM     26  N   UNL     1     -37.722  22.955   1.910  0.00  0.00    -0.319 N 
ATOM     27  N   UNL     1     -35.729  22.086   2.364  0.00  0.00    -0.315 N 
ATOM     28  C   UNL     1     -36.811  23.922   1.591  0.00  0.00    +0.040 C 
ATOM     29  C   UNL     1     -35.588  23.363   1.880  0.00  0.00    +0.069 C 
ATOM     30  C   UNL     1     -37.026  21.871   2.370  0.00  0.00    +0.182 C 
ATOM     31  H   UNL     1     -38.701  23.025   1.825  0.00  0.00    +0.148 HD
ATOM     32  H   UNL     1     -35.016  21.468   2.644  0.00  0.00    +0.148 HD
ENDBRANCH  25  28
ENDBRANCH   1  25
TORSDOF 8
ENDMDL
