MODEL 1
REMARK VINA RESULT:      -6.7      0.000      0.000
REMARK  Name = 196026
REMARK  5 active torsions:
REMARK  status: ('A' for Active; 'I' for Inactive)
REMARK    1  A    between atoms: C_1  and  C_3
REMARK    2  A    between atoms: C_1  and  O_12
REMARK    3  A    between atoms: C_1  and  C_14
REMARK    4  A    between atoms: C_14  and  C_17
REMARK    5  A    between atoms: C_14  and  N_21
REMARK                            x       y       z     vdW  Elec       q    Type
REMARK                         _______ _______ _______ _____ _____    ______ ____
ROOT
ATOM      1  C   UNL     1     -36.376  21.002   1.798  0.00  0.00    +0.161 C 
ENDROOT
BRANCH   1   3
ATOM      2  N   UNL     1     -33.449  22.156  -0.054  0.00  0.00    -0.312 N 
ATOM      3  C   UNL     1     -35.085  21.214   1.115  0.00  0.00    +0.022 C 
ATOM      4  C   UNL     1     -34.005  20.290   1.037  0.00  0.00    +0.013 C 
ATOM      5  C   UNL     1     -32.991  20.906   0.299  0.00  0.00    +0.048 C 
ATOM      6  C   UNL     1     -34.713  22.351   0.435  0.00  0.00    +0.060 C 
ATOM      7  C   UNL     1     -33.791  18.987   1.525  0.00  0.00    +0.001 C 
ATOM      8  C   UNL     1     -31.770  20.279   0.024  0.00  0.00    +0.015 C 
ATOM      9  C   UNL     1     -32.575  18.347   1.258  0.00  0.00    +0.000 C 
ATOM     10  C   UNL     1     -31.582  18.986   0.518  0.00  0.00    +0.001 C 
ATOM     11  H   UNL     1     -32.940  22.814  -0.581  0.00  0.00    +0.152 HD
ENDBRANCH   1   3
BRANCH   1  12
ATOM     12  O   UNL     1     -36.393  19.815   2.619  0.00  0.00    -0.378 OA
ATOM     13  H   UNL     1     -35.955  20.000   3.465  0.00  0.00    +0.211 HD
ENDBRANCH   1  12
BRANCH   1  14
ATOM     14  C   UNL     1     -36.820  22.204   2.679  0.00  0.00    +0.180 C 
BRANCH  14  17
ATOM     15  O   UNL     1     -38.847  23.528   2.895  0.00  0.00    -0.273 OA
ATOM     16  N   UNL     1     -39.029  21.352   2.182  0.00  0.00    -0.327 N 
ATOM     17  C   UNL     1     -38.323  22.451   2.622  0.00  0.00    +0.240 C 
ATOM     18  H   UNL     1     -40.010  21.396   2.106  0.00  0.00    +0.145 HD
ATOM     19  H   UNL     1     -38.554  20.523   1.946  0.00  0.00    +0.145 HD
ENDBRANCH  14  17
BRANCH  14  21
ATOM     20  O   UNL     1     -34.779  23.633   4.169  0.00  0.00    -0.275 OA
ATOM     21  N   UNL     1     -36.466  22.033   4.066  0.00  0.00    -0.296 N 
ATOM     22  C   UNL     1     -35.472  22.765   4.693  0.00  0.00    +0.223 C 
ATOM     23  C   UNL     1     -35.325  22.405   6.148  0.00  0.00    +0.095 C 
ATOM     24  H   UNL     1     -36.956  21.361   4.594  0.00  0.00    +0.150 HD
ENDBRANCH  14  21
ENDBRANCH   1  14
TORSDOF 5
ENDMDL
MODEL 2
REMARK VINA RESULT:      -6.5      3.664      6.160
REMARK  Name = 196026
REMARK  5 active torsions:
REMARK  status: ('A' for Active; 'I' for Inactive)
REMARK    1  A    between atoms: C_1  and  C_3
REMARK    2  A    between atoms: C_1  and  O_12
REMARK    3  A    between atoms: C_1  and  C_14
REMARK    4  A    between atoms: C_14  and  C_17
REMARK    5  A    between atoms: C_14  and  N_21
REMARK                            x       y       z     vdW  Elec       q    Type
REMARK                         _______ _______ _______ _____ _____    ______ ____
ROOT
ATOM      1  C   UNL     1     -35.997  24.412   4.841  0.00  0.00    +0.161 C 
ENDROOT
BRANCH   1   3
ATOM      2  N   UNL     1     -33.996  26.668   2.784  0.00  0.00    -0.312 N 
ATOM      3  C   UNL     1     -35.067  25.398   4.255  0.00  0.00    +0.022 C 
ATOM      4  C   UNL     1     -34.115  26.188   4.959  0.00  0.00    +0.013 C 
ATOM      5  C   UNL     1     -33.457  26.976   4.013  0.00  0.00    +0.048 C 
ATOM      6  C   UNL     1     -34.970  25.716   2.921  0.00  0.00    +0.060 C 
ATOM      7  C   UNL     1     -33.749  26.308   6.314  0.00  0.00    +0.001 C 
ATOM      8  C   UNL     1     -32.446  27.882   4.356  0.00  0.00    +0.015 C 
ATOM      9  C   UNL     1     -32.740  27.210   6.673  0.00  0.00    +0.000 C 
ATOM     10  C   UNL     1     -32.100  27.983   5.706  0.00  0.00    +0.001 C 
ATOM     11  H   UNL     1     -33.720  27.075   1.930  0.00  0.00    +0.152 HD
ENDBRANCH   1   3
BRANCH   1  12
ATOM     12  O   UNL     1     -37.371  24.854   4.829  0.00  0.00    -0.378 OA
ATOM     13  H   UNL     1     -37.926  24.200   5.283  0.00  0.00    +0.211 HD
ENDBRANCH   1  12
BRANCH   1  14
ATOM     14  C   UNL     1     -35.934  23.015   4.160  0.00  0.00    +0.180 C 
BRANCH  14  17
ATOM     15  O   UNL     1     -34.997  20.874   4.830  0.00  0.00    -0.273 OA
ATOM     16  N   UNL     1     -36.001  22.180   6.431  0.00  0.00    -0.327 N 
ATOM     17  C   UNL     1     -35.599  21.898   5.142  0.00  0.00    +0.240 C 
ATOM     18  H   UNL     1     -35.837  21.528   7.150  0.00  0.00    +0.145 HD
ATOM     19  H   UNL     1     -36.452  23.032   6.630  0.00  0.00    +0.145 HD
ENDBRANCH  14  17
BRANCH  14  21
ATOM     20  O   UNL     1     -36.266  21.661   1.615  0.00  0.00    -0.275 OA
ATOM     21  N   UNL     1     -37.171  22.660   3.512  0.00  0.00    -0.296 N 
ATOM     22  C   UNL     1     -37.230  22.011   2.290  0.00  0.00    +0.223 C 
ATOM     23  C   UNL     1     -38.645  21.737   1.853  0.00  0.00    +0.095 C 
ATOM     24  H   UNL     1     -38.017  22.891   3.961  0.00  0.00    +0.150 HD
ENDBRANCH  14  21
ENDBRANCH   1  14
TORSDOF 5
ENDMDL
MODEL 3
REMARK VINA RESULT:      -6.4      1.751      2.613
REMARK  Name = 196026
REMARK  5 active torsions:
REMARK  status: ('A' for Active; 'I' for Inactive)
REMARK    1  A    between atoms: C_1  and  C_3
REMARK    2  A    between atoms: C_1  and  O_12
REMARK    3  A    between atoms: C_1  and  C_14
REMARK    4  A    between atoms: C_14  and  C_17
REMARK    5  A    between atoms: C_14  and  N_21
REMARK                            x       y       z     vdW  Elec       q    Type
REMARK                         _______ _______ _______ _____ _____    ______ ____
ROOT
ATOM      1  C   UNL     1     -37.125  22.595   2.200  0.00  0.00    +0.161 C 
ENDROOT
BRANCH   1   3
ATOM      2  N   UNL     1     -35.046  19.656   1.587  0.00  0.00    -0.312 N 
ATOM      3  C   UNL     1     -36.113  21.589   1.818  0.00  0.00    +0.022 C 
ATOM      4  C   UNL     1     -34.917  21.826   1.084  0.00  0.00    +0.013 C 
ATOM      5  C   UNL     1     -34.266  20.598   0.953  0.00  0.00    +0.048 C 
ATOM      6  C   UNL     1     -36.164  20.246   2.112  0.00  0.00    +0.060 C 
ATOM      7  C   UNL     1     -34.324  22.972   0.518  0.00  0.00    +0.001 C 
ATOM      8  C   UNL     1     -33.046  20.457   0.281  0.00  0.00    +0.015 C 
ATOM      9  C   UNL     1     -33.104  22.847  -0.157  0.00  0.00    +0.000 C 
ATOM     10  C   UNL     1     -32.477  21.607  -0.272  0.00  0.00    +0.001 C 
ATOM     11  H   UNL     1     -34.830  18.697   1.652  0.00  0.00    +0.152 HD
ENDBRANCH   1   3
BRANCH   1  12
ATOM     12  O   UNL     1     -38.400  22.011   2.545  0.00  0.00    -0.378 OA
ATOM     13  H   UNL     1     -38.337  21.587   3.415  0.00  0.00    +0.211 HD
ENDBRANCH   1  12
BRANCH   1  14
ATOM     14  C   UNL     1     -36.680  23.510   3.375  0.00  0.00    +0.180 C 
BRANCH  14  17
ATOM     15  O   UNL     1     -38.915  24.437   3.609  0.00  0.00    -0.273 OA
ATOM     16  N   UNL     1     -37.116  25.770   4.124  0.00  0.00    -0.327 N 
ATOM     17  C   UNL     1     -37.699  24.598   3.690  0.00  0.00    +0.240 C 
ATOM     18  H   UNL     1     -37.679  26.543   4.357  0.00  0.00    +0.145 HD
ATOM     19  H   UNL     1     -36.137  25.832   4.202  0.00  0.00    +0.145 HD
ENDBRANCH  14  17
BRANCH  14  21
ATOM     20  O   UNL     1     -34.572  23.940   5.325  0.00  0.00    -0.275 OA
ATOM     21  N   UNL     1     -36.449  22.774   4.592  0.00  0.00    -0.296 N 
ATOM     22  C   UNL     1     -35.410  23.054   5.465  0.00  0.00    +0.223 C 
ATOM     23  C   UNL     1     -35.414  22.150   6.670  0.00  0.00    +0.095 C 
ATOM     24  H   UNL     1     -37.061  22.034   4.814  0.00  0.00    +0.150 HD
ENDBRANCH  14  21
ENDBRANCH   1  14
TORSDOF 5
ENDMDL
MODEL 4
REMARK VINA RESULT:      -6.4      3.679      5.427
REMARK  Name = 196026
REMARK  5 active torsions:
REMARK  status: ('A' for Active; 'I' for Inactive)
REMARK    1  A    between atoms: C_1  and  C_3
REMARK    2  A    between atoms: C_1  and  O_12
REMARK    3  A    between atoms: C_1  and  C_14
REMARK    4  A    between atoms: C_14  and  C_17
REMARK    5  A    between atoms: C_14  and  N_21
REMARK                            x       y       z     vdW  Elec       q    Type
REMARK                         _______ _______ _______ _____ _____    ______ ____
ROOT
ATOM      1  C   UNL     1     -36.684  25.844   3.126  0.00  0.00    +0.161 C 
ENDROOT
BRANCH   1   3
ATOM      2  N   UNL     1     -35.924  22.400   2.181  0.00  0.00    -0.312 N 
ATOM      3  C   UNL     1     -36.322  24.416   3.021  0.00  0.00    +0.022 C 
ATOM      4  C   UNL     1     -35.920  23.562   4.086  0.00  0.00    +0.013 C 
ATOM      5  C   UNL     1     -35.676  22.304   3.532  0.00  0.00    +0.048 C 
ATOM      6  C   UNL     1     -36.314  23.673   1.863  0.00  0.00    +0.060 C 
ATOM      7  C   UNL     1     -35.740  23.740   5.472  0.00  0.00    +0.001 C 
ATOM      8  C   UNL     1     -35.259  21.210   4.300  0.00  0.00    +0.015 C 
ATOM      9  C   UNL     1     -35.324  22.655   6.252  0.00  0.00    +0.000 C 
ATOM     10  C   UNL     1     -35.088  21.410   5.672  0.00  0.00    +0.001 C 
ATOM     11  H   UNL     1     -35.832  21.660   1.538  0.00  0.00    +0.152 HD
ENDBRANCH   1   3
BRANCH   1  12
ATOM     12  O   UNL     1     -37.425  26.152   4.327  0.00  0.00    -0.378 OA
ATOM     13  H   UNL     1     -38.360  25.929   4.196  0.00  0.00    +0.211 HD
ENDBRANCH   1  12
BRANCH   1  14
ATOM     14  C   UNL     1     -35.463  26.804   3.053  0.00  0.00    +0.180 C 
BRANCH  14  17
ATOM     15  O   UNL     1     -36.646  28.337   1.584  0.00  0.00    -0.273 OA
ATOM     16  N   UNL     1     -35.164  29.204   3.110  0.00  0.00    -0.327 N 
ATOM     17  C   UNL     1     -35.823  28.169   2.481  0.00  0.00    +0.240 C 
ATOM     18  H   UNL     1     -35.320  30.133   2.822  0.00  0.00    +0.145 HD
ATOM     19  H   UNL     1     -34.539  29.015   3.846  0.00  0.00    +0.145 HD
ENDBRANCH  14  17
BRANCH  14  21
ATOM     20  O   UNL     1     -32.999  25.651   4.065  0.00  0.00    -0.275 OA
ATOM     21  N   UNL     1     -34.857  27.025   4.342  0.00  0.00    -0.296 N 
ATOM     22  C   UNL     1     -33.672  26.426   4.738  0.00  0.00    +0.223 C 
ATOM     23  C   UNL     1     -33.249  26.849   6.120  0.00  0.00    +0.095 C 
ATOM     24  H   UNL     1     -35.308  27.632   4.973  0.00  0.00    +0.150 HD
ENDBRANCH  14  21
ENDBRANCH   1  14
TORSDOF 5
ENDMDL
MODEL 5
REMARK VINA RESULT:      -6.2      3.025      5.510
REMARK  Name = 196026
REMARK  5 active torsions:
REMARK  status: ('A' for Active; 'I' for Inactive)
REMARK    1  A    between atoms: C_1  and  C_3
REMARK    2  A    between atoms: C_1  and  O_12
REMARK    3  A    between atoms: C_1  and  C_14
REMARK    4  A    between atoms: C_14  and  C_17
REMARK    5  A    between atoms: C_14  and  N_21
REMARK                            x       y       z     vdW  Elec       q    Type
REMARK                         _______ _______ _______ _____ _____    ______ ____
ROOT
ATOM      1  C   UNL     1     -35.557  23.004   4.356  0.00  0.00    +0.161 C 
ENDROOT
BRANCH   1   3
ATOM      2  N   UNL     1     -35.901  26.580   5.004  0.00  0.00    -0.312 N 
ATOM      3  C   UNL     1     -35.520  24.479   4.397  0.00  0.00    +0.022 C 
ATOM      4  C   UNL     1     -34.793  25.334   3.521  0.00  0.00    +0.013 C 
ATOM      5  C   UNL     1     -35.049  26.646   3.924  0.00  0.00    +0.048 C 
ATOM      6  C   UNL     1     -36.191  25.275   5.297  0.00  0.00    +0.060 C 
ATOM      7  C   UNL     1     -33.940  25.116   2.422  0.00  0.00    +0.001 C 
ATOM      8  C   UNL     1     -34.491  27.757   3.279  0.00  0.00    +0.015 C 
ATOM      9  C   UNL     1     -33.374  26.217   1.767  0.00  0.00    +0.000 C 
ATOM     10  C   UNL     1     -33.648  27.516   2.191  0.00  0.00    +0.001 C 
ATOM     11  H   UNL     1     -36.250  27.360   5.495  0.00  0.00    +0.152 HD
ENDBRANCH   1   3
BRANCH   1  12
ATOM     12  O   UNL     1     -36.195  22.422   5.513  0.00  0.00    -0.378 OA
ATOM     13  H   UNL     1     -35.521  22.183   6.169  0.00  0.00    +0.211 HD
ENDBRANCH   1  12
BRANCH   1  14
ATOM     14  C   UNL     1     -36.248  22.432   3.085  0.00  0.00    +0.180 C 
BRANCH  14  17
ATOM     15  O   UNL     1     -35.043  20.339   3.359  0.00  0.00    -0.273 OA
ATOM     16  N   UNL     1     -37.060  20.307   2.260  0.00  0.00    -0.327 N 
ATOM     17  C   UNL     1     -36.023  20.935   2.918  0.00  0.00    +0.240 C 
ATOM     18  H   UNL     1     -37.022  19.337   2.095  0.00  0.00    +0.145 HD
ATOM     19  H   UNL     1     -37.837  20.829   1.957  0.00  0.00    +0.145 HD
ENDBRANCH  14  17
BRANCH  14  21
ATOM     20  O   UNL     1     -37.717  24.454   1.608  0.00  0.00    -0.275 OA
ATOM     21  N   UNL     1     -37.672  22.655   3.084  0.00  0.00    -0.296 N 
ATOM     22  C   UNL     1     -38.286  23.651   2.343  0.00  0.00    +0.223 C 
ATOM     23  C   UNL     1     -39.783  23.647   2.504  0.00  0.00    +0.095 C 
ATOM     24  H   UNL     1     -38.237  22.069   3.639  0.00  0.00    +0.150 HD
ENDBRANCH  14  21
ENDBRANCH   1  14
TORSDOF 5
ENDMDL
MODEL 6
REMARK VINA RESULT:      -6.1      2.443      5.194
REMARK  Name = 196026
REMARK  5 active torsions:
REMARK  status: ('A' for Active; 'I' for Inactive)
REMARK    1  A    between atoms: C_1  and  C_3
REMARK    2  A    between atoms: C_1  and  O_12
REMARK    3  A    between atoms: C_1  and  C_14
REMARK    4  A    between atoms: C_14  and  C_17
REMARK    5  A    between atoms: C_14  and  N_21
REMARK                            x       y       z     vdW  Elec       q    Type
REMARK                         _______ _______ _______ _____ _____    ______ ____
ROOT
ATOM      1  C   UNL     1     -37.287  23.318   1.448  0.00  0.00    +0.161 C 
ENDROOT
BRANCH   1   3
ATOM      2  N   UNL     1     -37.944  25.844   4.001  0.00  0.00    -0.312 N 
ATOM      3  C   UNL     1     -37.291  24.277   2.571  0.00  0.00    +0.022 C 
ATOM      4  C   UNL     1     -36.235  24.501   3.499  0.00  0.00    +0.013 C 
ATOM      5  C   UNL     1     -36.671  25.488   4.385  0.00  0.00    +0.048 C 
ATOM      6  C   UNL     1     -38.328  25.117   2.906  0.00  0.00    +0.060 C 
ATOM      7  C   UNL     1     -34.948  23.956   3.670  0.00  0.00    +0.001 C 
ATOM      8  C   UNL     1     -35.879  25.960   5.438  0.00  0.00    +0.015 C 
ATOM      9  C   UNL     1     -34.143  24.419   4.718  0.00  0.00    +0.000 C 
ATOM     10  C   UNL     1     -34.605  25.406   5.587  0.00  0.00    +0.001 C 
ATOM     11  H   UNL     1     -38.499  26.523   4.450  0.00  0.00    +0.152 HD
ENDBRANCH   1   3
BRANCH   1  12
ATOM     12  O   UNL     1     -36.129  23.450   0.597  0.00  0.00    -0.378 OA
ATOM     13  H   UNL     1     -35.973  24.388   0.405  0.00  0.00    +0.211 HD
ENDBRANCH   1  12
BRANCH   1  14
ATOM     14  C   UNL     1     -37.390  21.833   1.896  0.00  0.00    +0.180 C 
BRANCH  14  17
ATOM     15  O   UNL     1     -38.729  20.549   0.325  0.00  0.00    -0.273 OA
ATOM     16  N   UNL     1     -39.706  21.248   2.283  0.00  0.00    -0.327 N 
ATOM     17  C   UNL     1     -38.658  21.154   1.392  0.00  0.00    +0.240 C 
ATOM     18  H   UNL     1     -40.577  20.845   2.063  0.00  0.00    +0.145 HD
ATOM     19  H   UNL     1     -39.583  21.717   3.139  0.00  0.00    +0.145 HD
ENDBRANCH  14  17
BRANCH  14  21
ATOM     20  O   UNL     1     -35.367  20.547   3.533  0.00  0.00    -0.275 OA
ATOM     21  N   UNL     1     -36.273  21.041   1.447  0.00  0.00    -0.296 N 
ATOM     22  C   UNL     1     -35.353  20.465   2.308  0.00  0.00    +0.223 C 
ATOM     23  C   UNL     1     -34.303  19.671   1.578  0.00  0.00    +0.095 C 
ATOM     24  H   UNL     1     -36.157  20.904   0.478  0.00  0.00    +0.150 HD
ENDBRANCH  14  21
ENDBRANCH   1  14
TORSDOF 5
ENDMDL
MODEL 7
REMARK VINA RESULT:      -6.0      3.174      5.061
REMARK  Name = 196026
REMARK  5 active torsions:
REMARK  status: ('A' for Active; 'I' for Inactive)
REMARK    1  A    between atoms: C_1  and  C_3
REMARK    2  A    between atoms: C_1  and  O_12
REMARK    3  A    between atoms: C_1  and  C_14
REMARK    4  A    between atoms: C_14  and  C_17
REMARK    5  A    between atoms: C_14  and  N_21
REMARK                            x       y       z     vdW  Elec       q    Type
REMARK                         _______ _______ _______ _____ _____    ______ ____
ROOT
ATOM      1  C   UNL     1     -35.788  21.801   2.916  0.00  0.00    +0.161 C 
ENDROOT
BRANCH   1   3
ATOM      2  N   UNL     1     -35.224  23.409   6.145  0.00  0.00    -0.312 N 
ATOM      3  C   UNL     1     -35.465  22.669   4.066  0.00  0.00    +0.022 C 
ATOM      4  C   UNL     1     -34.920  23.982   4.010  0.00  0.00    +0.013 C 
ATOM      5  C   UNL     1     -34.779  24.423   5.328  0.00  0.00    +0.048 C 
ATOM      6  C   UNL     1     -35.640  22.345   5.391  0.00  0.00    +0.060 C 
ATOM      7  C   UNL     1     -34.532  24.840   2.963  0.00  0.00    +0.001 C 
ATOM      8  C   UNL     1     -34.266  25.686   5.650  0.00  0.00    +0.015 C 
ATOM      9  C   UNL     1     -34.018  26.106   3.270  0.00  0.00    +0.000 C 
ATOM     10  C   UNL     1     -33.889  26.519   4.594  0.00  0.00    +0.001 C 
ATOM     11  H   UNL     1     -35.240  23.444   7.129  0.00  0.00    +0.152 HD
ENDBRANCH   1   3
BRANCH   1  12
ATOM     12  O   UNL     1     -36.033  20.429   3.294  0.00  0.00    -0.378 OA
ATOM     13  H   UNL     1     -35.850  20.316   4.240  0.00  0.00    +0.211 HD
ENDBRANCH   1  12
BRANCH   1  14
ATOM     14  C   UNL     1     -37.005  22.297   2.084  0.00  0.00    +0.180 C 
BRANCH  14  17
ATOM     15  O   UNL     1     -37.425  20.456   0.552  0.00  0.00    -0.273 OA
ATOM     16  N   UNL     1     -39.010  20.943   2.142  0.00  0.00    -0.327 N 
ATOM     17  C   UNL     1     -37.814  21.151   1.488  0.00  0.00    +0.240 C 
ATOM     18  H   UNL     1     -39.617  20.228   1.842  0.00  0.00    +0.145 HD
ATOM     19  H   UNL     1     -39.257  21.510   2.907  0.00  0.00    +0.145 HD
ENDBRANCH  14  17
BRANCH  14  21
ATOM     20  O   UNL     1     -38.025  24.933   1.423  0.00  0.00    -0.275 OA
ATOM     21  N   UNL     1     -37.912  23.104   2.860  0.00  0.00    -0.296 N 
ATOM     22  C   UNL     1     -38.345  24.358   2.461  0.00  0.00    +0.223 C 
ATOM     23  C   UNL     1     -39.307  24.973   3.443  0.00  0.00    +0.095 C 
ATOM     24  H   UNL     1     -38.240  22.747   3.717  0.00  0.00    +0.150 HD
ENDBRANCH  14  21
ENDBRANCH   1  14
TORSDOF 5
ENDMDL
MODEL 8
REMARK VINA RESULT:      -5.9      1.969      2.216
REMARK  Name = 196026
REMARK  5 active torsions:
REMARK  status: ('A' for Active; 'I' for Inactive)
REMARK    1  A    between atoms: C_1  and  C_3
REMARK    2  A    between atoms: C_1  and  O_12
REMARK    3  A    between atoms: C_1  and  C_14
REMARK    4  A    between atoms: C_14  and  C_17
REMARK    5  A    between atoms: C_14  and  N_21
REMARK                            x       y       z     vdW  Elec       q    Type
REMARK                         _______ _______ _______ _____ _____    ______ ____
ROOT
ATOM      1  C   UNL     1     -37.015  22.578   2.741  0.00  0.00    +0.161 C 
ENDROOT
BRANCH   1   3
ATOM      2  N   UNL     1     -34.457  23.178   0.206  0.00  0.00    -0.312 N 
ATOM      3  C   UNL     1     -35.898  22.556   1.775  0.00  0.00    +0.022 C 
ATOM      4  C   UNL     1     -35.007  21.472   1.535  0.00  0.00    +0.013 C 
ATOM      5  C   UNL     1     -34.113  21.889   0.547  0.00  0.00    +0.048 C 
ATOM      6  C   UNL     1     -35.534  23.589   0.944  0.00  0.00    +0.060 C 
ATOM      7  C   UNL     1     -34.875  20.174   2.065  0.00  0.00    +0.001 C 
ATOM      8  C   UNL     1     -33.089  21.068   0.060  0.00  0.00    +0.015 C 
ATOM      9  C   UNL     1     -33.856  19.341   1.588  0.00  0.00    +0.000 C 
ATOM     10  C   UNL     1     -32.978  19.784   0.600  0.00  0.00    +0.001 C 
ATOM     11  H   UNL     1     -33.993  23.725  -0.470  0.00  0.00    +0.152 HD
ENDBRANCH   1   3
BRANCH   1  12
ATOM     12  O   UNL     1     -36.656  22.046   4.034  0.00  0.00    -0.378 OA
ATOM     13  H   UNL     1     -35.848  22.480   4.349  0.00  0.00    +0.211 HD
ENDBRANCH   1  12
BRANCH   1  14
ATOM     14  C   UNL     1     -37.626  23.992   2.953  0.00  0.00    +0.180 C 
BRANCH  14  17
ATOM     15  O   UNL     1     -39.816  23.211   2.245  0.00  0.00    -0.273 OA
ATOM     16  N   UNL     1     -39.704  24.899   3.799  0.00  0.00    -0.327 N 
ATOM     17  C   UNL     1     -39.150  23.983   2.931  0.00  0.00    +0.240 C 
ATOM     18  H   UNL     1     -40.683  24.981   3.869  0.00  0.00    +0.145 HD
ATOM     19  H   UNL     1     -39.122  25.470   4.349  0.00  0.00    +0.145 HD
ENDBRANCH  14  17
BRANCH  14  21
ATOM     20  O   UNL     1     -35.516  25.941   3.374  0.00  0.00    -0.275 OA
ATOM     21  N   UNL     1     -37.219  24.587   4.202  0.00  0.00    -0.296 N 
ATOM     22  C   UNL     1     -36.195  25.514   4.304  0.00  0.00    +0.223 C 
ATOM     23  C   UNL     1     -35.993  25.993   5.717  0.00  0.00    +0.095 C 
ATOM     24  H   UNL     1     -37.694  24.321   5.023  0.00  0.00    +0.150 HD
ENDBRANCH  14  21
ENDBRANCH   1  14
TORSDOF 5
ENDMDL
MODEL 9
REMARK VINA RESULT:      -5.9      5.214      7.491
REMARK  Name = 196026
REMARK  5 active torsions:
REMARK  status: ('A' for Active; 'I' for Inactive)
REMARK    1  A    between atoms: C_1  and  C_3
REMARK    2  A    between atoms: C_1  and  O_12
REMARK    3  A    between atoms: C_1  and  C_14
REMARK    4  A    between atoms: C_14  and  C_17
REMARK    5  A    between atoms: C_14  and  N_21
REMARK                            x       y       z     vdW  Elec       q    Type
REMARK                         _______ _______ _______ _____ _____    ______ ____
ROOT
ATOM      1  C   UNL     1     -33.960  25.904   4.414  0.00  0.00    +0.161 C 
ENDROOT
BRANCH   1   3
ATOM      2  N   UNL     1     -32.488  27.646   7.265  0.00  0.00    -0.312 N 
ATOM      3  C   UNL     1     -33.268  26.791   5.371  0.00  0.00    +0.022 C 
ATOM      4  C   UNL     1     -32.535  27.969   5.058  0.00  0.00    +0.013 C 
ATOM      5  C   UNL     1     -32.056  28.486   6.263  0.00  0.00    +0.048 C 
ATOM      6  C   UNL     1     -33.221  26.619   6.735  0.00  0.00    +0.060 C 
ATOM      7  C   UNL     1     -32.231  28.647   3.861  0.00  0.00    +0.001 C 
ATOM      8  C   UNL     1     -31.285  29.653   6.331  0.00  0.00    +0.015 C 
ATOM      9  C   UNL     1     -31.462  29.816   3.913  0.00  0.00    +0.000 C 
ATOM     10  C   UNL     1     -30.998  30.308   5.131  0.00  0.00    +0.001 C 
ATOM     11  H   UNL     1     -32.297  27.767   8.224  0.00  0.00    +0.152 HD
ENDBRANCH   1   3
BRANCH   1  12
ATOM     12  O   UNL     1     -33.051  25.125   3.606  0.00  0.00    -0.378 OA
ATOM     13  H   UNL     1     -32.532  25.718   3.039  0.00  0.00    +0.211 HD
ENDBRANCH   1  12
BRANCH   1  14
ATOM     14  C   UNL     1     -34.967  24.927   5.085  0.00  0.00    +0.180 C 
BRANCH  14  17
ATOM     15  O   UNL     1     -37.283  24.708   4.380  0.00  0.00    -0.273 OA
ATOM     16  N   UNL     1     -36.659  26.602   5.520  0.00  0.00    -0.327 N 
ATOM     17  C   UNL     1     -36.414  25.380   4.931  0.00  0.00    +0.240 C 
ATOM     18  H   UNL     1     -37.561  26.994   5.483  0.00  0.00    +0.145 HD
ATOM     19  H   UNL     1     -35.931  27.082   5.977  0.00  0.00    +0.145 HD
ENDBRANCH  14  17
BRANCH  14  21
ATOM     20  O   UNL     1     -35.752  22.455   6.388  0.00  0.00    -0.275 OA
ATOM     21  N   UNL     1     -34.876  23.590   4.554  0.00  0.00    -0.296 N 
ATOM     22  C   UNL     1     -35.278  22.465   5.255  0.00  0.00    +0.223 C 
ATOM     23  C   UNL     1     -35.099  21.199   4.460  0.00  0.00    +0.095 C 
ATOM     24  H   UNL     1     -34.511  23.471   3.647  0.00  0.00    +0.150 HD
ENDBRANCH  14  21
ENDBRANCH   1  14
TORSDOF 5
ENDMDL
