MODEL 1
REMARK VINA RESULT:      -5.9      0.000      0.000
REMARK  Name = 192904
REMARK  12 active torsions:
REMARK  status: ('A' for Active; 'I' for Inactive)
REMARK    1  A    between atoms: N_2  and  CA_5
REMARK    2  A    between atoms: C_3  and  CA_18
REMARK    3  A    between atoms: CA_5  and  C_7
REMARK    4  A    between atoms: CA_5  and  CB_10
REMARK    5  A    between atoms: C_7  and  O_8
REMARK    6  A    between atoms: CB_10  and  CG_11
REMARK    7  A    between atoms: CG_11  and  CD_12
REMARK    8  A    between atoms: CD_12  and  CE_13
REMARK    9  A    between atoms: CE_13  and  NZ_14
REMARK   10  A    between atoms: CA_18  and  N_20
REMARK   11  A    between atoms: CA_18  and  CB_24
REMARK   12  A    between atoms: CB_24  and  CG_25
REMARK                            x       y       z     vdW  Elec       q    Type
REMARK                         _______ _______ _______ _____ _____    ______ ____
ROOT
ATOM      1  O   PHE A   1     -35.173  20.582   4.113  0.00  0.00    -0.273 OA
ATOM      2  N   PHE A   1     -36.032  22.354   2.881  0.00  0.00    -0.295 N 
ATOM      3  C   PHE A   1     -35.530  21.067   3.043  0.00  0.00    +0.241 C 
ATOM      4  H   PHE A   1     -36.288  22.644   1.976  0.00  0.00    +0.150 HD
ENDROOT
BRANCH   2   5
ATOM      5  CA  PHE A   1     -36.196  23.285   3.968  0.00  0.00    +0.171 C 
BRANCH   5   7
ATOM      6  OXT PHE A   1     -38.315  24.487   3.906  0.00  0.00    -0.248 OA
ATOM      7  C   PHE A   1     -37.174  24.339   3.487  0.00  0.00    +0.332 C 
BRANCH   7   8
ATOM      8  O   PHE A   1     -36.656  25.090   2.479  0.00  0.00    -0.479 OA
ATOM      9  H   PHE A   1     -36.367  25.965   2.649  0.00  0.00    +0.295 HD
ENDBRANCH   7   8
ENDBRANCH   5   7
BRANCH   5  10
ATOM     10  CB  PHE A   1     -34.876  23.938   4.382  0.00  0.00    +0.031 C 
BRANCH  10  11
ATOM     11  CG  PHE A   1     -34.987  24.917   5.558  0.00  0.00    +0.000 C 
BRANCH  11  12
ATOM     12  CD  PHE A   1     -33.980  26.069   5.484  0.00  0.00    -0.024 C 
BRANCH  12  13
ATOM     13  CE  PHE A   1     -34.042  26.832   4.158  0.00  0.00    -0.086 C 
BRANCH  13  14
ATOM     14  NZ  PHE A   1     -35.339  27.464   3.954  0.00  0.00    +0.380 N 
ATOM     15  HZ1 PHE A   1     -36.078  26.830   4.258  0.00  0.00    -0.089 HD
ATOM     16  HZ2 PHE A   1     -35.461  27.679   2.964  0.00  0.00    -0.089 HD
ATOM     17  HZ3 PHE A   1     -35.388  28.326   4.497  0.00  0.00    -0.089 HD
ENDBRANCH  13  14
ENDBRANCH  12  13
ENDBRANCH  11  12
ENDBRANCH  10  11
ENDBRANCH   5  10
ENDBRANCH   2   5
BRANCH   3  18
ATOM     18  CA  PHE A   1     -35.414  20.325   1.716  0.00  0.00    +0.153 C 
BRANCH  18  20
ATOM     19  O   UNK A   0     -36.634  18.419  -0.102  0.00  0.00    -0.275 OA
ATOM     20  N   PHE A   1     -36.688  20.440   1.051  0.00  0.00    -0.298 N 
ATOM     21  C   UNK A   0     -37.190  19.473   0.195  0.00  0.00    +0.223 C 
ATOM     22  C   UNK A   0     -38.549  19.834  -0.343  0.00  0.00    +0.095 C 
ATOM     23  H   PHE A   1     -37.227  21.248   1.212  0.00  0.00    +0.150 HD
ENDBRANCH  18  20
BRANCH  18  24
ATOM     24  CB  PHE A   1     -34.268  20.903   0.879  0.00  0.00    +0.055 C 
BRANCH  24  25
ATOM     25  CG  PHE A   1     -33.092  19.965   0.770  0.00  0.00    -0.020 C 
ATOM     26  CD1 PHE A   1     -33.157  18.720   1.379  0.00  0.00    -0.004 C 
ATOM     27  CD2 PHE A   1     -31.967  20.362   0.064  0.00  0.00    -0.004 C 
ATOM     28  CE1 PHE A   1     -32.068  17.853   1.278  0.00  0.00    -0.000 C 
ATOM     29  CE2 PHE A   1     -30.880  19.495  -0.037  0.00  0.00    -0.000 C 
ATOM     30  CZ  PHE A   1     -30.930  18.240   0.571  0.00  0.00    -0.000 C 
ENDBRANCH  24  25
ENDBRANCH  18  24
ENDBRANCH   3  18
TORSDOF 12
ENDMDL
MODEL 2
REMARK VINA RESULT:      -5.9      1.639      1.925
REMARK  Name = 192904
REMARK  12 active torsions:
REMARK  status: ('A' for Active; 'I' for Inactive)
REMARK    1  A    between atoms: N_2  and  CA_5
REMARK    2  A    between atoms: C_3  and  CA_18
REMARK    3  A    between atoms: CA_5  and  C_7
REMARK    4  A    between atoms: CA_5  and  CB_10
REMARK    5  A    between atoms: C_7  and  O_8
REMARK    6  A    between atoms: CB_10  and  CG_11
REMARK    7  A    between atoms: CG_11  and  CD_12
REMARK    8  A    between atoms: CD_12  and  CE_13
REMARK    9  A    between atoms: CE_13  and  NZ_14
REMARK   10  A    between atoms: CA_18  and  N_20
REMARK   11  A    between atoms: CA_18  and  CB_24
REMARK   12  A    between atoms: CB_24  and  CG_25
REMARK                            x       y       z     vdW  Elec       q    Type
REMARK                         _______ _______ _______ _____ _____    ______ ____
ROOT
ATOM      1  O   PHE A   1     -35.214  21.143   4.891  0.00  0.00    -0.273 OA
ATOM      2  N   PHE A   1     -35.772  22.963   3.561  0.00  0.00    -0.295 N 
ATOM      3  C   PHE A   1     -35.603  21.608   3.823  0.00  0.00    +0.241 C 
ATOM      4  H   PHE A   1     -36.089  23.230   2.668  0.00  0.00    +0.150 HD
ENDROOT
BRANCH   2   5
ATOM      5  CA  PHE A   1     -35.506  23.998   4.526  0.00  0.00    +0.171 C 
BRANCH   5   7
ATOM      6  OXT PHE A   1     -37.833  24.579   4.091  0.00  0.00    -0.248 OA
ATOM      7  C   PHE A   1     -36.747  24.869   4.575  0.00  0.00    +0.332 C 
BRANCH   7   8
ATOM      8  O   PHE A   1     -36.507  26.060   5.185  0.00  0.00    -0.479 OA
ATOM      9  H   PHE A   1     -36.831  26.216   6.051  0.00  0.00    +0.295 HD
ENDBRANCH   7   8
ENDBRANCH   5   7
BRANCH   5  10
ATOM     10  CB  PHE A   1     -34.284  24.841   4.159  0.00  0.00    +0.031 C 
BRANCH  10  11
ATOM     11  CG  PHE A   1     -34.035  24.986   2.653  0.00  0.00    +0.000 C 
BRANCH  11  12
ATOM     12  CD  PHE A   1     -34.454  26.352   2.099  0.00  0.00    -0.024 C 
BRANCH  12  13
ATOM     13  CE  PHE A   1     -34.099  27.511   3.034  0.00  0.00    -0.086 C 
BRANCH  13  14
ATOM     14  NZ  PHE A   1     -35.276  28.279   3.419  0.00  0.00    +0.380 N 
ATOM     15  HZ1 PHE A   1     -35.276  29.172   2.926  0.00  0.00    -0.089 HD
ATOM     16  HZ2 PHE A   1     -35.259  28.446   4.426  0.00  0.00    -0.089 HD
ATOM     17  HZ3 PHE A   1     -36.118  27.757   3.176  0.00  0.00    -0.089 HD
ENDBRANCH  13  14
ENDBRANCH  12  13
ENDBRANCH  11  12
ENDBRANCH  10  11
ENDBRANCH   5  10
ENDBRANCH   2   5
BRANCH   3  18
ATOM     18  CA  PHE A   1     -35.905  20.744   2.603  0.00  0.00    +0.153 C 
BRANCH  18  20
ATOM     19  O   UNK A   0     -37.541  22.756   1.297  0.00  0.00    -0.275 OA
ATOM     20  N   PHE A   1     -37.336  20.734   2.432  0.00  0.00    -0.298 N 
ATOM     21  C   UNK A   0     -38.034  21.745   1.791  0.00  0.00    +0.223 C 
ATOM     22  C   UNK A   0     -39.513  21.472   1.729  0.00  0.00    +0.095 C 
ATOM     23  H   PHE A   1     -37.844  19.970   2.790  0.00  0.00    +0.150 HD
ENDBRANCH  18  20
BRANCH  18  24
ATOM     24  CB  PHE A   1     -35.178  21.291   1.370  0.00  0.00    +0.055 C 
BRANCH  24  25
ATOM     25  CG  PHE A   1     -33.931  20.510   1.033  0.00  0.00    -0.020 C 
ATOM     26  CD1 PHE A   1     -33.764  19.237   1.556  0.00  0.00    -0.004 C 
ATOM     27  CD2 PHE A   1     -32.976  21.079   0.205  0.00  0.00    -0.004 C 
ATOM     28  CE1 PHE A   1     -32.611  18.516   1.244  0.00  0.00    -0.000 C 
ATOM     29  CE2 PHE A   1     -31.824  20.358  -0.107  0.00  0.00    -0.000 C 
ATOM     30  CZ  PHE A   1     -31.641  19.076   0.413  0.00  0.00    -0.000 C 
ENDBRANCH  24  25
ENDBRANCH  18  24
ENDBRANCH   3  18
TORSDOF 12
ENDMDL
MODEL 3
REMARK VINA RESULT:      -5.9      2.567      4.639
REMARK  Name = 192904
REMARK  12 active torsions:
REMARK  status: ('A' for Active; 'I' for Inactive)
REMARK    1  A    between atoms: N_2  and  CA_5
REMARK    2  A    between atoms: C_3  and  CA_18
REMARK    3  A    between atoms: CA_5  and  C_7
REMARK    4  A    between atoms: CA_5  and  CB_10
REMARK    5  A    between atoms: C_7  and  O_8
REMARK    6  A    between atoms: CB_10  and  CG_11
REMARK    7  A    between atoms: CG_11  and  CD_12
REMARK    8  A    between atoms: CD_12  and  CE_13
REMARK    9  A    between atoms: CE_13  and  NZ_14
REMARK   10  A    between atoms: CA_18  and  N_20
REMARK   11  A    between atoms: CA_18  and  CB_24
REMARK   12  A    between atoms: CB_24  and  CG_25
REMARK                            x       y       z     vdW  Elec       q    Type
REMARK                         _______ _______ _______ _____ _____    ______ ____
ROOT
ATOM      1  O   PHE A   1     -37.729  23.347   3.485  0.00  0.00    -0.273 OA
ATOM      2  N   PHE A   1     -37.831  22.044   1.564  0.00  0.00    -0.295 N 
ATOM      3  C   PHE A   1     -37.250  22.489   2.747  0.00  0.00    +0.241 C 
ATOM      4  H   PHE A   1     -37.362  21.352   1.046  0.00  0.00    +0.150 HD
ENDROOT
BRANCH   2   5
ATOM      5  CA  PHE A   1     -39.082  22.545   1.056  0.00  0.00    +0.171 C 
BRANCH   5   7
ATOM      6  OXT PHE A   1     -40.414  20.848  -0.079  0.00  0.00    -0.248 OA
ATOM      7  C   PHE A   1     -40.016  21.354   0.963  0.00  0.00    +0.332 C 
BRANCH   7   8
ATOM      8  O   PHE A   1     -40.416  20.926   2.189  0.00  0.00    -0.479 OA
ATOM      9  H   PHE A   1     -40.305  20.027   2.430  0.00  0.00    +0.295 HD
ENDBRANCH   7   8
ENDBRANCH   5   7
BRANCH   5  10
ATOM     10  CB  PHE A   1     -38.934  23.209  -0.314  0.00  0.00    +0.031 C 
BRANCH  10  11
ATOM     11  CG  PHE A   1     -38.990  24.741  -0.293  0.00  0.00    +0.000 C 
BRANCH  11  12
ATOM     12  CD  PHE A   1     -39.490  25.310   1.038  0.00  0.00    -0.024 C 
BRANCH  12  13
ATOM     13  CE  PHE A   1     -38.467  26.224   1.719  0.00  0.00    -0.086 C 
BRANCH  13  14
ATOM     14  NZ  PHE A   1     -38.569  26.167   3.172  0.00  0.00    +0.380 N 
ATOM     15  HZ1 PHE A   1     -37.702  26.509   3.587  0.00  0.00    -0.089 HD
ATOM     16  HZ2 PHE A   1     -38.729  25.202   3.464  0.00  0.00    -0.089 HD
ATOM     17  HZ3 PHE A   1     -39.347  26.749   3.482  0.00  0.00    -0.089 HD
ENDBRANCH  13  14
ENDBRANCH  12  13
ENDBRANCH  11  12
ENDBRANCH  10  11
ENDBRANCH   5  10
ENDBRANCH   2   5
BRANCH   3  18
ATOM     18  CA  PHE A   1     -35.902  21.827   3.010  0.00  0.00    +0.153 C 
BRANCH  18  20
ATOM     19  O   UNK A   0     -34.578  23.541   4.942  0.00  0.00    -0.275 OA
ATOM     20  N   PHE A   1     -35.797  21.625   4.433  0.00  0.00    -0.298 N 
ATOM     21  C   UNK A   0     -35.141  22.504   5.281  0.00  0.00    +0.223 C 
ATOM     22  C   UNK A   0     -35.203  22.066   6.720  0.00  0.00    +0.095 C 
ATOM     23  H   PHE A   1     -36.212  20.821   4.822  0.00  0.00    +0.150 HD
ENDBRANCH  18  20
BRANCH  18  24
ATOM     24  CB  PHE A   1     -35.792  20.513   2.228  0.00  0.00    +0.055 C 
BRANCH  24  25
ATOM     25  CG  PHE A   1     -34.495  20.393   1.468  0.00  0.00    -0.020 C 
ATOM     26  CD1 PHE A   1     -33.744  19.232   1.584  0.00  0.00    -0.004 C 
ATOM     27  CD2 PHE A   1     -34.075  21.443   0.667  0.00  0.00    -0.004 C 
ATOM     28  CE1 PHE A   1     -32.544  19.122   0.881  0.00  0.00    -0.000 C 
ATOM     29  CE2 PHE A   1     -32.876  21.332  -0.036  0.00  0.00    -0.000 C 
ATOM     30  CZ  PHE A   1     -32.110  20.171   0.071  0.00  0.00    -0.000 C 
ENDBRANCH  24  25
ENDBRANCH  18  24
ENDBRANCH   3  18
TORSDOF 12
ENDMDL
MODEL 4
REMARK VINA RESULT:      -5.8      1.785      2.541
REMARK  Name = 192904
REMARK  12 active torsions:
REMARK  status: ('A' for Active; 'I' for Inactive)
REMARK    1  A    between atoms: N_2  and  CA_5
REMARK    2  A    between atoms: C_3  and  CA_18
REMARK    3  A    between atoms: CA_5  and  C_7
REMARK    4  A    between atoms: CA_5  and  CB_10
REMARK    5  A    between atoms: C_7  and  O_8
REMARK    6  A    between atoms: CB_10  and  CG_11
REMARK    7  A    between atoms: CG_11  and  CD_12
REMARK    8  A    between atoms: CD_12  and  CE_13
REMARK    9  A    between atoms: CE_13  and  NZ_14
REMARK   10  A    between atoms: CA_18  and  N_20
REMARK   11  A    between atoms: CA_18  and  CB_24
REMARK   12  A    between atoms: CB_24  and  CG_25
REMARK                            x       y       z     vdW  Elec       q    Type
REMARK                         _______ _______ _______ _____ _____    ______ ____
ROOT
ATOM      1  O   PHE A   1     -34.449  23.766   1.970  0.00  0.00    -0.273 OA
ATOM      2  N   PHE A   1     -35.458  22.208   3.367  0.00  0.00    -0.295 N 
ATOM      3  C   PHE A   1     -35.015  22.689   2.140  0.00  0.00    +0.241 C 
ATOM      4  H   PHE A   1     -35.902  21.330   3.392  0.00  0.00    +0.150 HD
ENDROOT
BRANCH   2   5
ATOM      5  CA  PHE A   1     -35.303  22.928   4.605  0.00  0.00    +0.171 C 
BRANCH   5   7
ATOM      6  OXT PHE A   1     -36.046  22.175   6.801  0.00  0.00    -0.248 OA
ATOM      7  C   PHE A   1     -35.533  21.924   5.718  0.00  0.00    +0.332 C 
BRANCH   7   8
ATOM      8  O   PHE A   1     -35.052  20.693   5.399  0.00  0.00    -0.479 OA
ATOM      9  H   PHE A   1     -34.291  20.614   4.857  0.00  0.00    +0.295 HD
ENDBRANCH   7   8
ENDBRANCH   5   7
BRANCH   5  10
ATOM     10  CB  PHE A   1     -36.287  24.092   4.732  0.00  0.00    +0.031 C 
BRANCH  10  11
ATOM     11  CG  PHE A   1     -35.717  25.341   5.415  0.00  0.00    +0.000 C 
BRANCH  11  12
ATOM     12  CD  PHE A   1     -34.189  25.430   5.337  0.00  0.00    -0.024 C 
BRANCH  12  13
ATOM     13  CE  PHE A   1     -33.702  26.415   4.271  0.00  0.00    -0.086 C 
BRANCH  13  14
ATOM     14  NZ  PHE A   1     -33.333  27.701   4.846  0.00  0.00    +0.380 N 
ATOM     15  HZ1 PHE A   1     -34.167  28.164   5.209  0.00  0.00    -0.089 HD
ATOM     16  HZ2 PHE A   1     -32.905  28.286   4.127  0.00  0.00    -0.089 HD
ATOM     17  HZ3 PHE A   1     -32.668  27.557   5.606  0.00  0.00    -0.089 HD
ENDBRANCH  13  14
ENDBRANCH  12  13
ENDBRANCH  11  12
ENDBRANCH  10  11
ENDBRANCH   5  10
ENDBRANCH   2   5
BRANCH   3  18
ATOM     18  CA  PHE A   1     -35.361  21.745   0.994  0.00  0.00    +0.153 C 
BRANCH  18  20
ATOM     19  O   UNK A   0     -38.129  21.343   1.773  0.00  0.00    -0.275 OA
ATOM     20  N   PHE A   1     -36.538  22.271   0.349  0.00  0.00    -0.298 N 
ATOM     21  C   UNK A   0     -37.827  22.023   0.797  0.00  0.00    +0.223 C 
ATOM     22  C   UNK A   0     -38.868  22.713  -0.044  0.00  0.00    +0.095 C 
ATOM     23  H   PHE A   1     -36.421  22.834  -0.450  0.00  0.00    +0.150 HD
ENDBRANCH  18  20
BRANCH  18  24
ATOM     24  CB  PHE A   1     -34.178  21.621   0.028  0.00  0.00    +0.055 C 
BRANCH  24  25
ATOM     25  CG  PHE A   1     -33.271  20.462   0.360  0.00  0.00    -0.020 C 
ATOM     26  CD1 PHE A   1     -31.968  20.459  -0.115  0.00  0.00    -0.004 C 
ATOM     27  CD2 PHE A   1     -33.755  19.420   1.136  0.00  0.00    -0.004 C 
ATOM     28  CE1 PHE A   1     -31.131  19.387   0.193  0.00  0.00    -0.000 C 
ATOM     29  CE2 PHE A   1     -32.918  18.348   1.443  0.00  0.00    -0.000 C 
ATOM     30  CZ  PHE A   1     -31.605  18.332   0.971  0.00  0.00    -0.000 C 
ENDBRANCH  24  25
ENDBRANCH  18  24
ENDBRANCH   3  18
TORSDOF 12
ENDMDL
MODEL 5
REMARK VINA RESULT:      -5.8      1.715      2.033
REMARK  Name = 192904
REMARK  12 active torsions:
REMARK  status: ('A' for Active; 'I' for Inactive)
REMARK    1  A    between atoms: N_2  and  CA_5
REMARK    2  A    between atoms: C_3  and  CA_18
REMARK    3  A    between atoms: CA_5  and  C_7
REMARK    4  A    between atoms: CA_5  and  CB_10
REMARK    5  A    between atoms: C_7  and  O_8
REMARK    6  A    between atoms: CB_10  and  CG_11
REMARK    7  A    between atoms: CG_11  and  CD_12
REMARK    8  A    between atoms: CD_12  and  CE_13
REMARK    9  A    between atoms: CE_13  and  NZ_14
REMARK   10  A    between atoms: CA_18  and  N_20
REMARK   11  A    between atoms: CA_18  and  CB_24
REMARK   12  A    between atoms: CB_24  and  CG_25
REMARK                            x       y       z     vdW  Elec       q    Type
REMARK                         _______ _______ _______ _____ _____    ______ ____
ROOT
ATOM      1  O   PHE A   1     -35.385  20.626   3.659  0.00  0.00    -0.273 OA
ATOM      2  N   PHE A   1     -36.615  21.891   2.148  0.00  0.00    -0.295 N 
ATOM      3  C   PHE A   1     -35.809  20.822   2.523  0.00  0.00    +0.241 C 
ATOM      4  H   PHE A   1     -36.898  21.955   1.208  0.00  0.00    +0.150 HD
ENDROOT
BRANCH   2   5
ATOM      5  CA  PHE A   1     -37.056  22.912   3.063  0.00  0.00    +0.171 C 
BRANCH   5   7
ATOM      6  OXT PHE A   1     -39.169  24.120   3.193  0.00  0.00    -0.248 OA
ATOM      7  C   PHE A   1     -38.488  23.237   2.687  0.00  0.00    +0.332 C 
BRANCH   7   8
ATOM      8  O   PHE A   1     -38.968  22.391   1.737  0.00  0.00    -0.479 OA
ATOM      9  H   PHE A   1     -38.937  21.465   1.877  0.00  0.00    +0.295 HD
ENDBRANCH   7   8
ENDBRANCH   5   7
BRANCH   5  10
ATOM     10  CB  PHE A   1     -36.192  24.173   2.994  0.00  0.00    +0.031 C 
BRANCH  10  11
ATOM     11  CG  PHE A   1     -35.054  24.226   4.020  0.00  0.00    +0.000 C 
BRANCH  11  12
ATOM     12  CD  PHE A   1     -35.534  24.069   5.467  0.00  0.00    -0.024 C 
BRANCH  12  13
ATOM     13  CE  PHE A   1     -35.005  22.798   6.137  0.00  0.00    -0.086 C 
BRANCH  13  14
ATOM     14  NZ  PHE A   1     -36.055  21.805   6.326  0.00  0.00    +0.380 N 
ATOM     15  HZ1 PHE A   1     -35.647  20.871   6.305  0.00  0.00    -0.089 HD
ATOM     16  HZ2 PHE A   1     -36.745  21.893   5.579  0.00  0.00    -0.089 HD
ATOM     17  HZ3 PHE A   1     -36.510  21.957   7.227  0.00  0.00    -0.089 HD
ENDBRANCH  13  14
ENDBRANCH  12  13
ENDBRANCH  11  12
ENDBRANCH  10  11
ENDBRANCH   5  10
ENDBRANCH   2   5
BRANCH   3  18
ATOM     18  CA  PHE A   1     -35.452  19.929   1.339  0.00  0.00    +0.153 C 
BRANCH  18  20
ATOM     19  O   UNK A   0     -36.162  17.615  -0.264  0.00  0.00    -0.275 OA
ATOM     20  N   PHE A   1     -36.660  19.728   0.578  0.00  0.00    -0.298 N 
ATOM     21  C   UNK A   0     -36.911  18.583  -0.161  0.00  0.00    +0.223 C 
ATOM     22  C   UNK A   0     -38.256  18.622  -0.838  0.00  0.00    +0.095 C 
ATOM     23  H   PHE A   1     -37.339  20.440   0.584  0.00  0.00    +0.150 HD
ENDBRANCH  18  20
BRANCH  18  24
ATOM     24  CB  PHE A   1     -34.340  20.572   0.502  0.00  0.00    +0.055 C 
BRANCH  24  25
ATOM     25  CG  PHE A   1     -33.049  19.792   0.548  0.00  0.00    -0.020 C 
ATOM     26  CD1 PHE A   1     -32.997  18.606   1.264  0.00  0.00    -0.004 C 
ATOM     27  CD2 PHE A   1     -31.939  20.275  -0.126  0.00  0.00    -0.004 C 
ATOM     28  CE1 PHE A   1     -31.803  17.886   1.306  0.00  0.00    -0.000 C 
ATOM     29  CE2 PHE A   1     -30.746  19.555  -0.084  0.00  0.00    -0.000 C 
ATOM     30  CZ  PHE A   1     -30.677  18.359   0.633  0.00  0.00    -0.000 C 
ENDBRANCH  24  25
ENDBRANCH  18  24
ENDBRANCH   3  18
TORSDOF 12
ENDMDL
MODEL 6
REMARK VINA RESULT:      -5.7      2.181      3.655
REMARK  Name = 192904
REMARK  12 active torsions:
REMARK  status: ('A' for Active; 'I' for Inactive)
REMARK    1  A    between atoms: N_2  and  CA_5
REMARK    2  A    between atoms: C_3  and  CA_18
REMARK    3  A    between atoms: CA_5  and  C_7
REMARK    4  A    between atoms: CA_5  and  CB_10
REMARK    5  A    between atoms: C_7  and  O_8
REMARK    6  A    between atoms: CB_10  and  CG_11
REMARK    7  A    between atoms: CG_11  and  CD_12
REMARK    8  A    between atoms: CD_12  and  CE_13
REMARK    9  A    between atoms: CE_13  and  NZ_14
REMARK   10  A    between atoms: CA_18  and  N_20
REMARK   11  A    between atoms: CA_18  and  CB_24
REMARK   12  A    between atoms: CB_24  and  CG_25
REMARK                            x       y       z     vdW  Elec       q    Type
REMARK                         _______ _______ _______ _____ _____    ______ ____
ROOT
ATOM      1  O   PHE A   1     -36.731  22.637   0.908  0.00  0.00    -0.273 OA
ATOM      2  N   PHE A   1     -37.543  22.678   3.084  0.00  0.00    -0.295 N 
ATOM      3  C   PHE A   1     -36.615  22.358   2.098  0.00  0.00    +0.241 C 
ATOM      4  H   PHE A   1     -37.352  22.405   4.010  0.00  0.00    +0.150 HD
ENDROOT
BRANCH   2   5
ATOM      5  CA  PHE A   1     -38.769  23.385   2.820  0.00  0.00    +0.171 C 
BRANCH   5   7
ATOM      6  OXT PHE A   1     -40.056  21.424   2.160  0.00  0.00    -0.248 OA
ATOM      7  C   PHE A   1     -39.574  22.513   1.877  0.00  0.00    +0.332 C 
BRANCH   7   8
ATOM      8  O   PHE A   1     -39.664  23.057   0.634  0.00  0.00    -0.479 OA
ATOM      9  H   PHE A   1     -40.124  23.864   0.509  0.00  0.00    +0.295 HD
ENDBRANCH   7   8
ENDBRANCH   5   7
BRANCH   5  10
ATOM     10  CB  PHE A   1     -38.529  24.759   2.193  0.00  0.00    +0.031 C 
BRANCH  10  11
ATOM     11  CG  PHE A   1     -37.786  25.753   3.094  0.00  0.00    +0.000 C 
BRANCH  11  12
ATOM     12  CD  PHE A   1     -36.466  26.245   2.492  0.00  0.00    -0.024 C 
BRANCH  12  13
ATOM     13  CE  PHE A   1     -35.482  26.757   3.548  0.00  0.00    -0.086 C 
BRANCH  13  14
ATOM     14  NZ  PHE A   1     -35.962  26.513   4.902  0.00  0.00    +0.380 N 
ATOM     15  HZ1 PHE A   1     -35.943  25.511   5.094  0.00  0.00    -0.089 HD
ATOM     16  HZ2 PHE A   1     -36.917  26.859   4.992  0.00  0.00    -0.089 HD
ATOM     17  HZ3 PHE A   1     -35.361  26.997   5.569  0.00  0.00    -0.089 HD
ENDBRANCH  13  14
ENDBRANCH  12  13
ENDBRANCH  11  12
ENDBRANCH  10  11
ENDBRANCH   5  10
ENDBRANCH   2   5
BRANCH   3  18
ATOM     18  CA  PHE A   1     -35.440  21.560   2.653  0.00  0.00    +0.153 C 
BRANCH  18  20
ATOM     19  O   UNK A   0     -34.726  23.507   4.684  0.00  0.00    -0.275 OA
ATOM     20  N   PHE A   1     -35.633  21.451   4.077  0.00  0.00    -0.298 N 
ATOM     21  C   UNK A   0     -35.258  22.439   4.974  0.00  0.00    +0.223 C 
ATOM     22  C   UNK A   0     -35.596  22.080   6.396  0.00  0.00    +0.095 C 
ATOM     23  H   PHE A   1     -36.052  20.633   4.430  0.00  0.00    +0.150 HD
ENDBRANCH  18  20
BRANCH  18  24
ATOM     24  CB  PHE A   1     -35.358  20.189   1.972  0.00  0.00    +0.055 C 
BRANCH  24  25
ATOM     25  CG  PHE A   1     -34.016  19.934   1.332  0.00  0.00    -0.020 C 
ATOM     26  CD1 PHE A   1     -33.463  20.899   0.503  0.00  0.00    -0.004 C 
ATOM     27  CD2 PHE A   1     -33.358  18.740   1.583  0.00  0.00    -0.004 C 
ATOM     28  CE1 PHE A   1     -32.223  20.662  -0.089  0.00  0.00    -0.000 C 
ATOM     29  CE2 PHE A   1     -32.118  18.504   0.991  0.00  0.00    -0.000 C 
ATOM     30  CZ  PHE A   1     -31.550  19.465   0.155  0.00  0.00    -0.000 C 
ENDBRANCH  24  25
ENDBRANCH  18  24
ENDBRANCH   3  18
TORSDOF 12
ENDMDL
MODEL 7
REMARK VINA RESULT:      -5.5      2.522      4.280
REMARK  Name = 192904
REMARK  12 active torsions:
REMARK  status: ('A' for Active; 'I' for Inactive)
REMARK    1  A    between atoms: N_2  and  CA_5
REMARK    2  A    between atoms: C_3  and  CA_18
REMARK    3  A    between atoms: CA_5  and  C_7
REMARK    4  A    between atoms: CA_5  and  CB_10
REMARK    5  A    between atoms: C_7  and  O_8
REMARK    6  A    between atoms: CB_10  and  CG_11
REMARK    7  A    between atoms: CG_11  and  CD_12
REMARK    8  A    between atoms: CD_12  and  CE_13
REMARK    9  A    between atoms: CE_13  and  NZ_14
REMARK   10  A    between atoms: CA_18  and  N_20
REMARK   11  A    between atoms: CA_18  and  CB_24
REMARK   12  A    between atoms: CB_24  and  CG_25
REMARK                            x       y       z     vdW  Elec       q    Type
REMARK                         _______ _______ _______ _____ _____    ______ ____
ROOT
ATOM      1  O   PHE A   1     -37.688  21.976   1.727  0.00  0.00    -0.273 OA
ATOM      2  N   PHE A   1     -36.497  23.824   2.478  0.00  0.00    -0.295 N 
ATOM      3  C   PHE A   1     -36.684  22.467   2.237  0.00  0.00    +0.241 C 
ATOM      4  H   PHE A   1     -35.653  24.112   2.894  0.00  0.00    +0.150 HD
ENDROOT
BRANCH   2   5
ATOM      5  CA  PHE A   1     -37.475  24.830   2.153  0.00  0.00    +0.171 C 
BRANCH   5   7
ATOM      6  OXT PHE A   1     -35.512  26.273   2.100  0.00  0.00    -0.248 OA
ATOM      7  C   PHE A   1     -36.729  26.149   2.091  0.00  0.00    +0.332 C 
BRANCH   7   8
ATOM      8  O   PHE A   1     -37.578  27.211   2.076  0.00  0.00    -0.479 OA
ATOM      9  H   PHE A   1     -38.468  27.103   2.348  0.00  0.00    +0.295 HD
ENDBRANCH   7   8
ENDBRANCH   5   7
BRANCH   5  10
ATOM     10  CB  PHE A   1     -38.601  24.908   3.186  0.00  0.00    +0.031 C 
BRANCH  10  11
ATOM     11  CG  PHE A   1     -39.999  24.608   2.633  0.00  0.00    +0.000 C 
BRANCH  11  12
ATOM     12  CD  PHE A   1     -40.683  25.834   2.019  0.00  0.00    -0.024 C 
BRANCH  12  13
ATOM     13  CE  PHE A   1     -41.867  26.336   2.848  0.00  0.00    -0.086 C 
BRANCH  13  14
ATOM     14  NZ  PHE A   1     -41.442  26.877   4.133  0.00  0.00    +0.380 N 
ATOM     15  HZ1 PHE A   1     -42.215  27.387   4.560  0.00  0.00    -0.089 HD
ATOM     16  HZ2 PHE A   1     -40.654  27.510   3.991  0.00  0.00    -0.089 HD
ATOM     17  HZ3 PHE A   1     -41.158  26.114   4.747  0.00  0.00    -0.089 HD
ENDBRANCH  13  14
ENDBRANCH  12  13
ENDBRANCH  11  12
ENDBRANCH  10  11
ENDBRANCH   5  10
ENDBRANCH   2   5
BRANCH   3  18
ATOM     18  CA  PHE A   1     -35.511  21.628   2.732  0.00  0.00    +0.153 C 
BRANCH  18  20
ATOM     19  O   UNK A   0     -34.653  23.414   4.854  0.00  0.00    -0.275 OA
ATOM     20  N   PHE A   1     -35.685  21.449   4.152  0.00  0.00    -0.298 N 
ATOM     21  C   UNK A   0     -35.239  22.362   5.095  0.00  0.00    +0.223 C 
ATOM     22  C   UNK A   0     -35.571  21.942   6.502  0.00  0.00    +0.095 C 
ATOM     23  H   PHE A   1     -36.143  20.637   4.468  0.00  0.00    +0.150 HD
ENDBRANCH  18  20
BRANCH  18  24
ATOM     24  CB  PHE A   1     -35.456  20.293   1.982  0.00  0.00    +0.055 C 
BRANCH  24  25
ATOM     25  CG  PHE A   1     -34.118  20.043   1.332  0.00  0.00    -0.020 C 
ATOM     26  CD1 PHE A   1     -33.445  18.859   1.593  0.00  0.00    -0.004 C 
ATOM     27  CD2 PHE A   1     -33.584  21.001   0.484  0.00  0.00    -0.004 C 
ATOM     28  CE1 PHE A   1     -32.208  18.629   0.991  0.00  0.00    -0.000 C 
ATOM     29  CE2 PHE A   1     -32.348  20.771  -0.118  0.00  0.00    -0.000 C 
ATOM     30  CZ  PHE A   1     -31.659  19.584   0.135  0.00  0.00    -0.000 C 
ENDBRANCH  24  25
ENDBRANCH  18  24
ENDBRANCH   3  18
TORSDOF 12
ENDMDL
MODEL 8
REMARK VINA RESULT:      -5.5      2.402      4.749
REMARK  Name = 192904
REMARK  12 active torsions:
REMARK  status: ('A' for Active; 'I' for Inactive)
REMARK    1  A    between atoms: N_2  and  CA_5
REMARK    2  A    between atoms: C_3  and  CA_18
REMARK    3  A    between atoms: CA_5  and  C_7
REMARK    4  A    between atoms: CA_5  and  CB_10
REMARK    5  A    between atoms: C_7  and  O_8
REMARK    6  A    between atoms: CB_10  and  CG_11
REMARK    7  A    between atoms: CG_11  and  CD_12
REMARK    8  A    between atoms: CD_12  and  CE_13
REMARK    9  A    between atoms: CE_13  and  NZ_14
REMARK   10  A    between atoms: CA_18  and  N_20
REMARK   11  A    between atoms: CA_18  and  CB_24
REMARK   12  A    between atoms: CB_24  and  CG_25
REMARK                            x       y       z     vdW  Elec       q    Type
REMARK                         _______ _______ _______ _____ _____    ______ ____
ROOT
ATOM      1  O   PHE A   1     -35.923  23.365   0.870  0.00  0.00    -0.273 OA
ATOM      2  N   PHE A   1     -37.335  23.052   2.688  0.00  0.00    -0.295 N 
ATOM      3  C   PHE A   1     -36.172  22.843   1.954  0.00  0.00    +0.241 C 
ATOM      4  H   PHE A   1     -37.436  22.581   3.546  0.00  0.00    +0.150 HD
ENDROOT
BRANCH   2   5
ATOM      5  CA  PHE A   1     -38.402  23.918   2.257  0.00  0.00    +0.171 C 
BRANCH   5   7
ATOM      6  OXT PHE A   1     -38.918  26.180   3.003  0.00  0.00    -0.248 OA
ATOM      7  C   PHE A   1     -38.432  25.080   3.231  0.00  0.00    +0.332 C 
BRANCH   7   8
ATOM      8  O   PHE A   1     -37.801  24.780   4.397  0.00  0.00    -0.479 OA
ATOM      9  H   PHE A   1     -38.272  24.360   5.090  0.00  0.00    +0.295 HD
ENDBRANCH   7   8
ENDBRANCH   5   7
BRANCH   5  10
ATOM     10  CB  PHE A   1     -39.758  23.211   2.236  0.00  0.00    +0.031 C 
BRANCH  10  11
ATOM     11  CG  PHE A   1     -39.698  21.719   1.888  0.00  0.00    +0.000 C 
BRANCH  11  12
ATOM     12  CD  PHE A   1     -40.191  21.407   0.472  0.00  0.00    -0.024 C 
BRANCH  12  13
ATOM     13  CE  PHE A   1     -39.237  21.907  -0.617  0.00  0.00    -0.086 C 
BRANCH  13  14
ATOM     14  NZ  PHE A   1     -37.936  21.254  -0.542  0.00  0.00    +0.380 N 
ATOM     15  HZ1 PHE A   1     -37.275  21.744  -1.146  0.00  0.00    -0.089 HD
ATOM     16  HZ2 PHE A   1     -38.024  20.285  -0.849  0.00  0.00    -0.089 HD
ATOM     17  HZ3 PHE A   1     -37.598  21.277   0.420  0.00  0.00    -0.089 HD
ENDBRANCH  13  14
ENDBRANCH  12  13
ENDBRANCH  11  12
ENDBRANCH  10  11
ENDBRANCH   5  10
ENDBRANCH   2   5
BRANCH   3  18
ATOM     18  CA  PHE A   1     -35.244  21.835   2.622  0.00  0.00    +0.153 C 
BRANCH  18  20
ATOM     19  O   UNK A   0     -34.319  23.436   4.860  0.00  0.00    -0.275 OA
ATOM     20  N   PHE A   1     -35.650  21.731   4.001  0.00  0.00    -0.298 N 
ATOM     21  C   UNK A   0     -35.150  22.545   5.006  0.00  0.00    +0.223 C 
ATOM     22  C   UNK A   0     -35.761  22.240   6.347  0.00  0.00    +0.095 C 
ATOM     23  H   PHE A   1     -36.316  21.047   4.241  0.00  0.00    +0.150 HD
ENDBRANCH  18  20
BRANCH  18  24
ATOM     24  CB  PHE A   1     -35.308  20.487   1.895  0.00  0.00    +0.055 C 
BRANCH  24  25
ATOM     25  CG  PHE A   1     -33.984  20.083   1.295  0.00  0.00    -0.020 C 
ATOM     26  CD1 PHE A   1     -33.331  20.956   0.439  0.00  0.00    -0.004 C 
ATOM     27  CD2 PHE A   1     -33.443  18.847   1.611  0.00  0.00    -0.004 C 
ATOM     28  CE1 PHE A   1     -32.107  20.581  -0.116  0.00  0.00    -0.000 C 
ATOM     29  CE2 PHE A   1     -32.220  18.473   1.058  0.00  0.00    -0.000 C 
ATOM     30  CZ  PHE A   1     -31.551  19.341   0.193  0.00  0.00    -0.000 C 
ENDBRANCH  24  25
ENDBRANCH  18  24
ENDBRANCH   3  18
TORSDOF 12
ENDMDL
MODEL 9
REMARK VINA RESULT:      -5.5      2.736      5.707
REMARK  Name = 192904
REMARK  12 active torsions:
REMARK  status: ('A' for Active; 'I' for Inactive)
REMARK    1  A    between atoms: N_2  and  CA_5
REMARK    2  A    between atoms: C_3  and  CA_18
REMARK    3  A    between atoms: CA_5  and  C_7
REMARK    4  A    between atoms: CA_5  and  CB_10
REMARK    5  A    between atoms: C_7  and  O_8
REMARK    6  A    between atoms: CB_10  and  CG_11
REMARK    7  A    between atoms: CG_11  and  CD_12
REMARK    8  A    between atoms: CD_12  and  CE_13
REMARK    9  A    between atoms: CE_13  and  NZ_14
REMARK   10  A    between atoms: CA_18  and  N_20
REMARK   11  A    between atoms: CA_18  and  CB_24
REMARK   12  A    between atoms: CB_24  and  CG_25
REMARK                            x       y       z     vdW  Elec       q    Type
REMARK                         _______ _______ _______ _____ _____    ______ ____
ROOT
ATOM      1  O   PHE A   1     -35.036  23.362   1.834  0.00  0.00    -0.273 OA
ATOM      2  N   PHE A   1     -36.374  22.750   3.631  0.00  0.00    -0.295 N 
ATOM      3  C   PHE A   1     -36.093  22.923   2.280  0.00  0.00    +0.241 C 
ATOM      4  H   PHE A   1     -37.256  22.391   3.882  0.00  0.00    +0.150 HD
ENDROOT
BRANCH   2   5
ATOM      5  CA  PHE A   1     -35.445  23.069   4.684  0.00  0.00    +0.171 C 
BRANCH   5   7
ATOM      6  OXT PHE A   1     -35.903  22.047   6.848  0.00  0.00    -0.248 OA
ATOM      7  C   PHE A   1     -35.528  21.936   5.689  0.00  0.00    +0.332 C 
BRANCH   7   8
ATOM      8  O   PHE A   1     -35.081  20.763   5.168  0.00  0.00    -0.479 OA
ATOM      9  H   PHE A   1     -34.691  20.747   4.317  0.00  0.00    +0.295 HD
ENDBRANCH   7   8
ENDBRANCH   5   7
BRANCH   5  10
ATOM     10  CB  PHE A   1     -35.765  24.402   5.363  0.00  0.00    +0.031 C 
BRANCH  10  11
ATOM     11  CG  PHE A   1     -34.576  25.364   5.477  0.00  0.00    +0.000 C 
BRANCH  11  12
ATOM     12  CD  PHE A   1     -33.807  25.535   4.164  0.00  0.00    -0.024 C 
BRANCH  12  13
ATOM     13  CE  PHE A   1     -34.421  26.595   3.245  0.00  0.00    -0.086 C 
BRANCH  13  14
ATOM     14  NZ  PHE A   1     -35.235  27.551   3.986  0.00  0.00    +0.380 N 
ATOM     15  HZ1 PHE A   1     -34.634  28.272   4.384  0.00  0.00    -0.089 HD
ATOM     16  HZ2 PHE A   1     -35.729  27.067   4.736  0.00  0.00    -0.089 HD
ATOM     17  HZ3 PHE A   1     -35.912  27.982   3.356  0.00  0.00    -0.089 HD
ENDBRANCH  13  14
ENDBRANCH  12  13
ENDBRANCH  11  12
ENDBRANCH  10  11
ENDBRANCH   5  10
ENDBRANCH   2   5
BRANCH   3  18
ATOM     18  CA  PHE A   1     -37.278  22.556   1.394  0.00  0.00    +0.153 C 
BRANCH  18  20
ATOM     19  O   UNK A   0     -36.338  20.037   2.489  0.00  0.00    -0.275 OA
ATOM     20  N   PHE A   1     -36.914  21.366   0.667  0.00  0.00    -0.298 N 
ATOM     21  C   UNK A   0     -36.474  20.204   1.280  0.00  0.00    +0.223 C 
ATOM     22  C   UNK A   0     -36.186  19.108   0.289  0.00  0.00    +0.095 C 
ATOM     23  H   PHE A   1     -36.982  21.381  -0.315  0.00  0.00    +0.150 HD
ENDBRANCH  18  20
BRANCH  18  24
ATOM     24  CB  PHE A   1     -38.537  22.354   2.245  0.00  0.00    +0.055 C 
BRANCH  24  25
ATOM     25  CG  PHE A   1     -39.500  23.511   2.149  0.00  0.00    -0.020 C 
ATOM     26  CD1 PHE A   1     -40.414  23.551   1.107  0.00  0.00    -0.004 C 
ATOM     27  CD2 PHE A   1     -39.455  24.515   3.104  0.00  0.00    -0.004 C 
ATOM     28  CE1 PHE A   1     -41.303  24.621   1.019  0.00  0.00    -0.000 C 
ATOM     29  CE2 PHE A   1     -40.344  25.585   3.016  0.00  0.00    -0.000 C 
ATOM     30  CZ  PHE A   1     -41.269  25.638   1.972  0.00  0.00    -0.000 C 
ENDBRANCH  24  25
ENDBRANCH  18  24
ENDBRANCH   3  18
TORSDOF 12
ENDMDL
