MODEL 1
REMARK VINA RESULT:      -6.4      0.000      0.000
REMARK  Name = 195218
REMARK  9 active torsions:
REMARK  status: ('A' for Active; 'I' for Inactive)
REMARK    1  A    between atoms: N_1  and  N_2
REMARK    2  A    between atoms: N_1  and  C_4
REMARK    3  A    between atoms: N_2  and  C_16
REMARK    4  A    between atoms: C_3  and  S_9
REMARK    5  A    between atoms: C_6  and  N_15
REMARK    6  A    between atoms: C_17  and  O_22
REMARK    7  A    between atoms: O_22  and  P_23
REMARK    8  A    between atoms: P_23  and  O_25
REMARK    9  A    between atoms: P_23  and  O_27
REMARK                            x       y       z     vdW  Elec       q    Type
REMARK                         _______ _______ _______ _____ _____    ______ ____
ROOT
ATOM      1  N   UNL     1     -37.355  24.715   4.193  0.00  0.00    -0.127 NA
ENDROOT
BRANCH   1   3
ATOM      2  C   UNL     1     -37.406  22.734   2.780  0.00  0.00    +0.124 C 
ATOM      3  C   UNL     1     -38.022  23.877   3.284  0.00  0.00    +0.106 C 
ATOM      4  C   UNL     1     -38.090  21.918   1.878  0.00  0.00    +0.044 C 
ATOM      5  C   UNL     1     -39.386  22.248   1.483  0.00  0.00    +0.144 C 
ATOM      6  C   UNL     1     -39.316  24.209   2.892  0.00  0.00    +0.021 C 
ATOM      7  C   UNL     1     -39.999  23.393   1.990  0.00  0.00    +0.026 C 
BRANCH   2   8
ATOM      8  S   UNL     1     -35.780  22.292   3.254  0.00  0.00    +0.012 S 
ATOM      9  O   UNL     1     -34.859  23.183   2.566  0.00  0.00    -0.169 OA
ATOM     10  O   UNL     1     -35.732  22.175   4.703  0.00  0.00    -0.169 OA
ATOM     11  C   UNL     1     -35.562  20.657   2.592  0.00  0.00    +0.182 C 
ENDBRANCH   2   8
BRANCH   5  14
ATOM     12  O   UNL     1     -39.545  20.348   0.186  0.00  0.00    -0.126 OA
ATOM     13  O   UNL     1     -41.214  21.774   0.160  0.00  0.00    -0.126 OA
ATOM     14  N   UNL     1     -40.082  21.418   0.565  0.00  0.00    +0.058 N 
ENDBRANCH   5  14
ENDBRANCH   1   3
BRANCH   1  15
ATOM     15  N   UNL     1     -37.045  25.793   3.634  0.00  0.00    -0.128 NA
BRANCH  15  16
ATOM     16  C   UNL     1     -35.783  26.212   4.069  0.00  0.00    +0.089 C 
ATOM     17  C   UNL     1     -33.265  27.042   4.937  0.00  0.00    +0.149 C 
ATOM     18  C   UNL     1     -34.984  26.998   3.239  0.00  0.00    +0.021 C 
ATOM     19  C   UNL     1     -35.323  25.840   5.332  0.00  0.00    +0.021 C 
ATOM     20  C   UNL     1     -33.725  27.413   3.673  0.00  0.00    +0.039 C 
ATOM     21  C   UNL     1     -34.064  26.256   5.767  0.00  0.00    +0.039 C 
BRANCH  17  22
ATOM     22  O   UNL     1     -32.036  27.447   5.360  0.00  0.00    -0.403 OA
BRANCH  22  23
ATOM     23  P   UNL     1     -31.705  28.891   6.014  0.00  0.00    +0.528 P 
ATOM     24  O   UNL     1     -32.440  30.052   5.410  0.00  0.00    -0.216 OA
BRANCH  23  25
ATOM     25  O   UNL     1     -31.928  28.667   7.600  0.00  0.00    -0.293 OA
ATOM     26  H   UNL     1     -32.875  28.722   7.805  0.00  0.00    +0.223 HD
ENDBRANCH  23  25
BRANCH  23  27
ATOM     27  O   UNL     1     -30.094  28.980   5.885  0.00  0.00    -0.293 OA
ATOM     28  H   UNL     1     -29.737  29.483   6.634  0.00  0.00    +0.223 HD
ENDBRANCH  23  27
ENDBRANCH  22  23
ENDBRANCH  17  22
ENDBRANCH  15  16
ENDBRANCH   1  15
TORSDOF 9
ENDMDL
MODEL 2
REMARK VINA RESULT:      -6.1      3.436      8.449
REMARK  Name = 195218
REMARK  9 active torsions:
REMARK  status: ('A' for Active; 'I' for Inactive)
REMARK    1  A    between atoms: N_1  and  N_2
REMARK    2  A    between atoms: N_1  and  C_4
REMARK    3  A    between atoms: N_2  and  C_16
REMARK    4  A    between atoms: C_3  and  S_9
REMARK    5  A    between atoms: C_6  and  N_15
REMARK    6  A    between atoms: C_17  and  O_22
REMARK    7  A    between atoms: O_22  and  P_23
REMARK    8  A    between atoms: P_23  and  O_25
REMARK    9  A    between atoms: P_23  and  O_27
REMARK                            x       y       z     vdW  Elec       q    Type
REMARK                         _______ _______ _______ _____ _____    ______ ____
ROOT
ATOM      1  N   UNL     1     -37.019  24.433   4.365  0.00  0.00    -0.127 NA
ENDROOT
BRANCH   1   3
ATOM      2  C   UNL     1     -35.638  26.241   3.501  0.00  0.00    +0.124 C 
ATOM      3  C   UNL     1     -35.904  25.281   4.474  0.00  0.00    +0.106 C 
ATOM      4  C   UNL     1     -34.525  27.071   3.632  0.00  0.00    +0.044 C 
ATOM      5  C   UNL     1     -33.681  26.938   4.735  0.00  0.00    +0.144 C 
ATOM      6  C   UNL     1     -35.065  25.146   5.577  0.00  0.00    +0.021 C 
ATOM      7  C   UNL     1     -33.951  25.976   5.707  0.00  0.00    +0.026 C 
BRANCH   2   8
ATOM      8  S   UNL     1     -36.675  26.433   2.104  0.00  0.00    +0.012 S 
ATOM      9  O   UNL     1     -36.355  25.370   1.164  0.00  0.00    -0.169 OA
ATOM     10  O   UNL     1     -38.044  26.612   2.560  0.00  0.00    -0.169 OA
ATOM     11  C   UNL     1     -36.159  27.975   1.386  0.00  0.00    +0.182 C 
ENDBRANCH   2   8
BRANCH   5  14
ATOM     12  O   UNL     1     -31.616  27.687   4.034  0.00  0.00    -0.126 OA
ATOM     13  O   UNL     1     -32.510  28.605   5.816  0.00  0.00    -0.126 OA
ATOM     14  N   UNL     1     -32.548  27.783   4.869  0.00  0.00    +0.058 N 
ENDBRANCH   5  14
ENDBRANCH   1   3
BRANCH   1  15
ATOM     15  N   UNL     1     -36.672  23.243   4.556  0.00  0.00    -0.128 NA
BRANCH  15  16
ATOM     16  C   UNL     1     -36.709  22.535   3.349  0.00  0.00    +0.089 C 
ATOM     17  C   UNL     1     -36.784  21.129   0.941  0.00  0.00    +0.149 C 
ATOM     18  C   UNL     1     -35.602  21.791   2.943  0.00  0.00    +0.021 C 
ATOM     19  C   UNL     1     -37.853  22.577   2.553  0.00  0.00    +0.021 C 
ATOM     20  C   UNL     1     -35.639  21.087   1.739  0.00  0.00    +0.039 C 
ATOM     21  C   UNL     1     -37.891  21.873   1.349  0.00  0.00    +0.039 C 
BRANCH  17  22
ATOM     22  O   UNL     1     -36.820  20.442  -0.233  0.00  0.00    -0.403 OA
BRANCH  22  23
ATOM     23  P   UNL     1     -37.650  19.076  -0.490  0.00  0.00    +0.528 P 
ATOM     24  O   UNL     1     -39.142  19.235  -0.549  0.00  0.00    -0.216 OA
BRANCH  23  25
ATOM     25  O   UNL     1     -36.960  18.435  -1.805  0.00  0.00    -0.293 OA
ATOM     26  H   UNL     1     -37.647  18.182  -2.440  0.00  0.00    +0.223 HD
ENDBRANCH  23  25
BRANCH  23  27
ATOM     27  O   UNL     1     -37.127  18.111   0.699  0.00  0.00    -0.293 OA
ATOM     28  H   UNL     1     -37.270  18.546   1.555  0.00  0.00    +0.223 HD
ENDBRANCH  23  27
ENDBRANCH  22  23
ENDBRANCH  17  22
ENDBRANCH  15  16
ENDBRANCH   1  15
TORSDOF 9
ENDMDL
MODEL 3
REMARK VINA RESULT:      -6.1      4.144      9.205
REMARK  Name = 195218
REMARK  9 active torsions:
REMARK  status: ('A' for Active; 'I' for Inactive)
REMARK    1  A    between atoms: N_1  and  N_2
REMARK    2  A    between atoms: N_1  and  C_4
REMARK    3  A    between atoms: N_2  and  C_16
REMARK    4  A    between atoms: C_3  and  S_9
REMARK    5  A    between atoms: C_6  and  N_15
REMARK    6  A    between atoms: C_17  and  O_22
REMARK    7  A    between atoms: O_22  and  P_23
REMARK    8  A    between atoms: P_23  and  O_25
REMARK    9  A    between atoms: P_23  and  O_27
REMARK                            x       y       z     vdW  Elec       q    Type
REMARK                         _______ _______ _______ _____ _____    ______ ____
ROOT
ATOM      1  N   UNL     1     -33.384  27.610   4.926  0.00  0.00    -0.127 NA
ENDROOT
BRANCH   1   3
ATOM      2  C   UNL     1     -31.147  28.227   4.193  0.00  0.00    +0.124 C 
ATOM      3  C   UNL     1     -32.130  28.193   5.178  0.00  0.00    +0.106 C 
ATOM      4  C   UNL     1     -29.910  28.812   4.468  0.00  0.00    +0.044 C 
ATOM      5  C   UNL     1     -29.662  29.360   5.727  0.00  0.00    +0.144 C 
ATOM      6  C   UNL     1     -31.886  28.739   6.436  0.00  0.00    +0.021 C 
ATOM      7  C   UNL     1     -30.649  29.324   6.710  0.00  0.00    +0.026 C 
BRANCH   2   8
ATOM      8  S   UNL     1     -31.425  27.547   2.604  0.00  0.00    +0.012 S 
ATOM      9  O   UNL     1     -31.568  26.107   2.756  0.00  0.00    -0.169 OA
ATOM     10  O   UNL     1     -32.469  28.316   1.944  0.00  0.00    -0.169 OA
ATOM     11  C   UNL     1     -29.912  27.860   1.725  0.00  0.00    +0.182 C 
ENDBRANCH   2   8
BRANCH   5  14
ATOM     12  O   UNL     1     -28.100  30.205   7.198  0.00  0.00    -0.126 OA
ATOM     13  O   UNL     1     -27.628  30.214   5.054  0.00  0.00    -0.126 OA
ATOM     14  N   UNL     1     -28.404  29.955   6.006  0.00  0.00    +0.058 N 
ENDBRANCH   5  14
ENDBRANCH   1   3
BRANCH   1  15
ATOM     15  N   UNL     1     -33.664  26.789   5.832  0.00  0.00    -0.128 NA
BRANCH  15  16
ATOM     16  C   UNL     1     -34.518  25.800   5.333  0.00  0.00    +0.089 C 
ATOM     17  C   UNL     1     -36.221  23.825   4.341  0.00  0.00    +0.149 C 
ATOM     18  C   UNL     1     -35.865  26.087   5.114  0.00  0.00    +0.021 C 
ATOM     19  C   UNL     1     -34.023  24.526   5.056  0.00  0.00    +0.021 C 
ATOM     20  C   UNL     1     -36.717  25.100   4.618  0.00  0.00    +0.039 C 
ATOM     21  C   UNL     1     -34.874  23.538   4.560  0.00  0.00    +0.039 C 
BRANCH  17  22
ATOM     22  O   UNL     1     -37.053  22.862   3.857  0.00  0.00    -0.403 OA
BRANCH  22  23
ATOM     23  P   UNL     1     -36.701  21.851   2.642  0.00  0.00    +0.528 P 
ATOM     24  O   UNL     1     -36.047  22.486   1.449  0.00  0.00    -0.216 OA
BRANCH  23  25
ATOM     25  O   UNL     1     -35.867  20.660   3.349  0.00  0.00    -0.293 OA
ATOM     26  H   UNL     1     -36.453  20.158   3.936  0.00  0.00    +0.223 HD
ENDBRANCH  23  25
BRANCH  23  27
ATOM     27  O   UNL     1     -38.129  21.157   2.331  0.00  0.00    -0.293 OA
ATOM     28  H   UNL     1     -38.019  20.490   1.635  0.00  0.00    +0.223 HD
ENDBRANCH  23  27
ENDBRANCH  22  23
ENDBRANCH  17  22
ENDBRANCH  15  16
ENDBRANCH   1  15
TORSDOF 9
ENDMDL
MODEL 4
REMARK VINA RESULT:      -6.0      4.504      6.290
REMARK  Name = 195218
REMARK  9 active torsions:
REMARK  status: ('A' for Active; 'I' for Inactive)
REMARK    1  A    between atoms: N_1  and  N_2
REMARK    2  A    between atoms: N_1  and  C_4
REMARK    3  A    between atoms: N_2  and  C_16
REMARK    4  A    between atoms: C_3  and  S_9
REMARK    5  A    between atoms: C_6  and  N_15
REMARK    6  A    between atoms: C_17  and  O_22
REMARK    7  A    between atoms: O_22  and  P_23
REMARK    8  A    between atoms: P_23  and  O_25
REMARK    9  A    between atoms: P_23  and  O_27
REMARK                            x       y       z     vdW  Elec       q    Type
REMARK                         _______ _______ _______ _____ _____    ______ ____
ROOT
ATOM      1  N   UNL     1     -35.418  20.466   1.444  0.00  0.00    -0.127 NA
ENDROOT
BRANCH   1   3
ATOM      2  C   UNL     1     -35.088  18.660  -0.154  0.00  0.00    +0.124 C 
ATOM      3  C   UNL     1     -34.662  19.387   0.955  0.00  0.00    +0.106 C 
ATOM      4  C   UNL     1     -34.319  17.594  -0.620  0.00  0.00    +0.044 C 
ATOM      5  C   UNL     1     -33.128  17.257   0.024  0.00  0.00    +0.144 C 
ATOM      6  C   UNL     1     -33.474  19.054   1.601  0.00  0.00    +0.021 C 
ATOM      7  C   UNL     1     -32.706  17.987   1.134  0.00  0.00    +0.026 C 
BRANCH   2   8
ATOM      8  S   UNL     1     -36.577  19.055  -0.986  0.00  0.00    +0.012 S 
ATOM      9  O   UNL     1     -37.681  18.729  -0.097  0.00  0.00    -0.169 OA
ATOM     10  O   UNL     1     -36.461  20.395  -1.540  0.00  0.00    -0.169 OA
ATOM     11  C   UNL     1     -36.623  17.926  -2.358  0.00  0.00    +0.182 C 
ENDBRANCH   2   8
BRANCH   5  14
ATOM     12  O   UNL     1     -32.254  15.983  -1.688  0.00  0.00    -0.126 OA
ATOM     13  O   UNL     1     -31.767  15.430   0.380  0.00  0.00    -0.126 OA
ATOM     14  N   UNL     1     -32.347  16.171  -0.450  0.00  0.00    +0.058 N 
ENDBRANCH   5  14
ENDBRANCH   1   3
BRANCH   1  15
ATOM     15  N   UNL     1     -35.763  20.246   2.629  0.00  0.00    -0.128 NA
BRANCH  15  16
ATOM     16  C   UNL     1     -35.667  21.421   3.381  0.00  0.00    +0.089 C 
ATOM     17  C   UNL     1     -35.471  23.765   4.881  0.00  0.00    +0.149 C 
ATOM     18  C   UNL     1     -36.084  22.635   2.835  0.00  0.00    +0.021 C 
ATOM     19  C   UNL     1     -35.152  21.379   4.676  0.00  0.00    +0.021 C 
ATOM     20  C   UNL     1     -35.987  23.807   3.585  0.00  0.00    +0.039 C 
ATOM     21  C   UNL     1     -35.054  22.551   5.427  0.00  0.00    +0.039 C 
BRANCH  17  22
ATOM     22  O   UNL     1     -35.377  24.909   5.613  0.00  0.00    -0.403 OA
BRANCH  22  23
ATOM     23  P   UNL     1     -34.307  26.096   5.354  0.00  0.00    +0.528 P 
ATOM     24  O   UNL     1     -33.661  26.656   6.588  0.00  0.00    -0.216 OA
BRANCH  23  25
ATOM     25  O   UNL     1     -33.296  25.483   4.250  0.00  0.00    -0.293 OA
ATOM     26  H   UNL     1     -32.603  26.131   4.049  0.00  0.00    +0.223 HD
ENDBRANCH  23  25
BRANCH  23  27
ATOM     27  O   UNL     1     -35.164  27.171   4.502  0.00  0.00    -0.293 OA
ATOM     28  H   UNL     1     -35.984  27.382   4.978  0.00  0.00    +0.223 HD
ENDBRANCH  23  27
ENDBRANCH  22  23
ENDBRANCH  17  22
ENDBRANCH  15  16
ENDBRANCH   1  15
TORSDOF 9
ENDMDL
MODEL 5
REMARK VINA RESULT:      -6.0      4.966      9.566
REMARK  Name = 195218
REMARK  9 active torsions:
REMARK  status: ('A' for Active; 'I' for Inactive)
REMARK    1  A    between atoms: N_1  and  N_2
REMARK    2  A    between atoms: N_1  and  C_4
REMARK    3  A    between atoms: N_2  and  C_16
REMARK    4  A    between atoms: C_3  and  S_9
REMARK    5  A    between atoms: C_6  and  N_15
REMARK    6  A    between atoms: C_17  and  O_22
REMARK    7  A    between atoms: O_22  and  P_23
REMARK    8  A    between atoms: P_23  and  O_25
REMARK    9  A    between atoms: P_23  and  O_27
REMARK                            x       y       z     vdW  Elec       q    Type
REMARK                         _______ _______ _______ _____ _____    ______ ____
ROOT
ATOM      1  N   UNL     1     -31.666  28.806   3.798  0.00  0.00    -0.127 NA
ENDROOT
BRANCH   1   3
ATOM      2  C   UNL     1     -29.455  28.275   4.665  0.00  0.00    +0.124 C 
ATOM      3  C   UNL     1     -30.715  28.845   4.831  0.00  0.00    +0.106 C 
ATOM      4  C   UNL     1     -28.528  28.327   5.707  0.00  0.00    +0.044 C 
ATOM      5  C   UNL     1     -28.864  28.947   6.910  0.00  0.00    +0.144 C 
ATOM      6  C   UNL     1     -31.053  29.465   6.031  0.00  0.00    +0.021 C 
ATOM      7  C   UNL     1     -30.126  29.517   7.072  0.00  0.00    +0.026 C 
BRANCH   2   8
ATOM      8  S   UNL     1     -29.001  27.487   3.169  0.00  0.00    +0.012 S 
ATOM      9  O   UNL     1     -29.873  26.337   2.991  0.00  0.00    -0.169 OA
ATOM     10  O   UNL     1     -28.903  28.493   2.123  0.00  0.00    -0.169 OA
ATOM     11  C   UNL     1     -27.355  26.888   3.473  0.00  0.00    +0.182 C 
ENDBRANCH   2   8
BRANCH   5  14
ATOM     12  O   UNL     1     -28.095  29.825   8.899  0.00  0.00    -0.126 OA
ATOM     13  O   UNL     1     -26.938  28.219   7.949  0.00  0.00    -0.126 OA
ATOM     14  N   UNL     1     -27.920  29.000   7.969  0.00  0.00    +0.058 N 
ENDBRANCH   5  14
ENDBRANCH   1   3
BRANCH   1  15
ATOM     15  N   UNL     1     -32.820  28.723   4.281  0.00  0.00    -0.128 NA
BRANCH  15  16
ATOM     16  C   UNL     1     -33.282  27.405   4.191  0.00  0.00    +0.089 C 
ATOM     17  C   UNL     1     -34.199  24.777   4.010  0.00  0.00    +0.149 C 
ATOM     18  C   UNL     1     -33.618  26.704   5.348  0.00  0.00    +0.021 C 
ATOM     19  C   UNL     1     -33.403  26.794   2.944  0.00  0.00    +0.021 C 
ATOM     20  C   UNL     1     -34.078  25.389   5.258  0.00  0.00    +0.039 C 
ATOM     21  C   UNL     1     -33.862  25.479   2.852  0.00  0.00    +0.039 C 
BRANCH  17  22
ATOM     22  O   UNL     1     -34.647  23.495   3.922  0.00  0.00    -0.403 OA
BRANCH  22  23
ATOM     23  P   UNL     1     -36.056  22.957   4.511  0.00  0.00    +0.528 P 
ATOM     24  O   UNL     1     -36.052  22.623   5.975  0.00  0.00    -0.216 OA
BRANCH  23  25
ATOM     25  O   UNL     1     -37.130  24.074   4.049  0.00  0.00    -0.293 OA
ATOM     26  H   UNL     1     -37.583  23.775   3.245  0.00  0.00    +0.223 HD
ENDBRANCH  23  25
BRANCH  23  27
ATOM     27  O   UNL     1     -36.394  21.707   3.541  0.00  0.00    -0.293 OA
ATOM     28  H   UNL     1     -37.226  21.294   3.823  0.00  0.00    +0.223 HD
ENDBRANCH  23  27
ENDBRANCH  22  23
ENDBRANCH  17  22
ENDBRANCH  15  16
ENDBRANCH   1  15
TORSDOF 9
ENDMDL
MODEL 6
REMARK VINA RESULT:      -6.0      4.754      7.213
REMARK  Name = 195218
REMARK  9 active torsions:
REMARK  status: ('A' for Active; 'I' for Inactive)
REMARK    1  A    between atoms: N_1  and  N_2
REMARK    2  A    between atoms: N_1  and  C_4
REMARK    3  A    between atoms: N_2  and  C_16
REMARK    4  A    between atoms: C_3  and  S_9
REMARK    5  A    between atoms: C_6  and  N_15
REMARK    6  A    between atoms: C_17  and  O_22
REMARK    7  A    between atoms: O_22  and  P_23
REMARK    8  A    between atoms: P_23  and  O_25
REMARK    9  A    between atoms: P_23  and  O_27
REMARK                            x       y       z     vdW  Elec       q    Type
REMARK                         _______ _______ _______ _____ _____    ______ ____
ROOT
ATOM      1  N   UNL     1     -35.117  20.071   0.477  0.00  0.00    -0.127 NA
ENDROOT
BRANCH   1   3
ATOM      2  C   UNL     1     -32.755  20.404  -0.007  0.00  0.00    +0.124 C 
ATOM      3  C   UNL     1     -33.786  19.623   0.511  0.00  0.00    +0.106 C 
ATOM      4  C   UNL     1     -31.441  19.936   0.039  0.00  0.00    +0.044 C 
ATOM      5  C   UNL     1     -31.163  18.691   0.602  0.00  0.00    +0.144 C 
ATOM      6  C   UNL     1     -33.511  18.379   1.074  0.00  0.00    +0.021 C 
ATOM      7  C   UNL     1     -32.197  17.913   1.119  0.00  0.00    +0.026 C 
BRANCH   2   8
ATOM      8  S   UNL     1     -33.070  21.971  -0.721  0.00  0.00    +0.012 S 
ATOM      9  O   UNL     1     -33.773  21.753  -1.976  0.00  0.00    -0.169 OA
ATOM     10  O   UNL     1     -33.646  22.839   0.294  0.00  0.00    -0.169 OA
ATOM     11  C   UNL     1     -31.455  22.611  -1.098  0.00  0.00    +0.182 C 
ENDBRANCH   2   8
BRANCH   5  14
ATOM     12  O   UNL     1     -29.596  17.095   1.163  0.00  0.00    -0.126 OA
ATOM     13  O   UNL     1     -28.910  18.929   0.171  0.00  0.00    -0.126 OA
ATOM     14  N   UNL     1     -29.826  18.216   0.648  0.00  0.00    +0.058 N 
ENDBRANCH   5  14
ENDBRANCH   1   3
BRANCH   1  15
ATOM     15  N   UNL     1     -35.705  19.747   1.536  0.00  0.00    -0.128 NA
BRANCH  15  16
ATOM     16  C   UNL     1     -36.042  20.892   2.266  0.00  0.00    +0.089 C 
ATOM     17  C   UNL     1     -36.719  23.173   3.722  0.00  0.00    +0.149 C 
ATOM     18  C   UNL     1     -35.336  21.214   3.424  0.00  0.00    +0.021 C 
ATOM     19  C   UNL     1     -37.087  21.709   1.835  0.00  0.00    +0.021 C 
ATOM     20  C   UNL     1     -35.673  22.355   4.152  0.00  0.00    +0.039 C 
ATOM     21  C   UNL     1     -37.426  22.850   2.563  0.00  0.00    +0.039 C 
BRANCH  17  22
ATOM     22  O   UNL     1     -37.048  24.286   4.432  0.00  0.00    -0.403 OA
BRANCH  22  23
ATOM     23  P   UNL     1     -36.743  25.809   3.974  0.00  0.00    +0.528 P 
ATOM     24  O   UNL     1     -35.627  25.969   2.984  0.00  0.00    -0.216 OA
BRANCH  23  25
ATOM     25  O   UNL     1     -38.184  26.376   3.505  0.00  0.00    -0.293 OA
ATOM     26  H   UNL     1     -38.777  25.634   3.310  0.00  0.00    +0.223 HD
ENDBRANCH  23  25
BRANCH  23  27
ATOM     27  O   UNL     1     -36.499  26.564   5.385  0.00  0.00    -0.293 OA
ATOM     28  H   UNL     1     -36.542  27.524   5.249  0.00  0.00    +0.223 HD
ENDBRANCH  23  27
ENDBRANCH  22  23
ENDBRANCH  17  22
ENDBRANCH  15  16
ENDBRANCH   1  15
TORSDOF 9
ENDMDL
MODEL 7
REMARK VINA RESULT:      -5.9      4.476      6.507
REMARK  Name = 195218
REMARK  9 active torsions:
REMARK  status: ('A' for Active; 'I' for Inactive)
REMARK    1  A    between atoms: N_1  and  N_2
REMARK    2  A    between atoms: N_1  and  C_4
REMARK    3  A    between atoms: N_2  and  C_16
REMARK    4  A    between atoms: C_3  and  S_9
REMARK    5  A    between atoms: C_6  and  N_15
REMARK    6  A    between atoms: C_17  and  O_22
REMARK    7  A    between atoms: O_22  and  P_23
REMARK    8  A    between atoms: P_23  and  O_25
REMARK    9  A    between atoms: P_23  and  O_27
REMARK                            x       y       z     vdW  Elec       q    Type
REMARK                         _______ _______ _______ _____ _____    ______ ____
ROOT
ATOM      1  N   UNL     1     -35.174  20.790   0.923  0.00  0.00    -0.127 NA
ENDROOT
BRANCH   1   3
ATOM      2  C   UNL     1     -32.875  20.706   0.131  0.00  0.00    +0.124 C 
ATOM      3  C   UNL     1     -33.933  20.138   0.836  0.00  0.00    +0.106 C 
ATOM      4  C   UNL     1     -31.652  20.038   0.060  0.00  0.00    +0.044 C 
ATOM      5  C   UNL     1     -31.491  18.805   0.692  0.00  0.00    +0.144 C 
ATOM      6  C   UNL     1     -33.776  18.908   1.470  0.00  0.00    +0.021 C 
ATOM      7  C   UNL     1     -32.553  18.241   1.397  0.00  0.00    +0.026 C 
BRANCH   2   8
ATOM      8  S   UNL     1     -33.042  22.250  -0.676  0.00  0.00    +0.012 S 
ATOM      9  O   UNL     1     -33.935  22.064  -1.810  0.00  0.00    -0.169 OA
ATOM     10  O   UNL     1     -33.336  23.268   0.321  0.00  0.00    -0.169 OA
ATOM     11  C   UNL     1     -31.416  22.592  -1.306  0.00  0.00    +0.182 C 
ENDBRANCH   2   8
BRANCH   5  14
ATOM     12  O   UNL     1     -29.224  18.767   0.272  0.00  0.00    -0.126 OA
ATOM     13  O   UNL     1     -30.201  16.906   0.906  0.00  0.00    -0.126 OA
ATOM     14  N   UNL     1     -30.246  18.127   0.620  0.00  0.00    +0.058 N 
ENDBRANCH   5  14
ENDBRANCH   1   3
BRANCH   1  15
ATOM     15  N   UNL     1     -35.729  20.510   2.012  0.00  0.00    -0.128 NA
BRANCH  15  16
ATOM     16  C   UNL     1     -35.644  21.599   2.886  0.00  0.00    +0.089 C 
ATOM     17  C   UNL     1     -35.479  23.771   4.629  0.00  0.00    +0.149 C 
ATOM     18  C   UNL     1     -35.193  21.411   4.192  0.00  0.00    +0.021 C 
ATOM     19  C   UNL     1     -36.013  22.871   2.451  0.00  0.00    +0.021 C 
ATOM     20  C   UNL     1     -35.109  22.498   5.064  0.00  0.00    +0.039 C 
ATOM     21  C   UNL     1     -35.931  23.958   3.322  0.00  0.00    +0.039 C 
BRANCH  17  22
ATOM     22  O   UNL     1     -35.398  24.831   5.479  0.00  0.00    -0.403 OA
BRANCH  22  23
ATOM     23  P   UNL     1     -34.362  26.066   5.333  0.00  0.00    +0.528 P 
ATOM     24  O   UNL     1     -33.780  26.570   6.622  0.00  0.00    -0.216 OA
BRANCH  23  25
ATOM     25  O   UNL     1     -33.292  25.557   4.232  0.00  0.00    -0.293 OA
ATOM     26  H   UNL     1     -32.866  24.745   4.546  0.00  0.00    +0.223 HD
ENDBRANCH  23  25
BRANCH  23  27
ATOM     27  O   UNL     1     -35.227  27.163   4.516  0.00  0.00    -0.293 OA
ATOM     28  H   UNL     1     -36.173  26.976   4.627  0.00  0.00    +0.223 HD
ENDBRANCH  23  27
ENDBRANCH  22  23
ENDBRANCH  17  22
ENDBRANCH  15  16
ENDBRANCH   1  15
TORSDOF 9
ENDMDL
MODEL 8
REMARK VINA RESULT:      -5.9      2.431      3.573
REMARK  Name = 195218
REMARK  9 active torsions:
REMARK  status: ('A' for Active; 'I' for Inactive)
REMARK    1  A    between atoms: N_1  and  N_2
REMARK    2  A    between atoms: N_1  and  C_4
REMARK    3  A    between atoms: N_2  and  C_16
REMARK    4  A    between atoms: C_3  and  S_9
REMARK    5  A    between atoms: C_6  and  N_15
REMARK    6  A    between atoms: C_17  and  O_22
REMARK    7  A    between atoms: O_22  and  P_23
REMARK    8  A    between atoms: P_23  and  O_25
REMARK    9  A    between atoms: P_23  and  O_27
REMARK                            x       y       z     vdW  Elec       q    Type
REMARK                         _______ _______ _______ _____ _____    ______ ____
ROOT
ATOM      1  N   UNL     1     -37.042  22.847   3.556  0.00  0.00    -0.127 NA
ENDROOT
BRANCH   1   3
ATOM      2  C   UNL     1     -37.610  21.563   1.569  0.00  0.00    +0.124 C 
ATOM      3  C   UNL     1     -36.763  21.815   2.645  0.00  0.00    +0.106 C 
ATOM      4  C   UNL     1     -37.310  20.532   0.677  0.00  0.00    +0.044 C 
ATOM      5  C   UNL     1     -36.166  19.758   0.864  0.00  0.00    +0.144 C 
ATOM      6  C   UNL     1     -35.619  21.044   2.835  0.00  0.00    +0.021 C 
ATOM      7  C   UNL     1     -35.320  20.014   1.943  0.00  0.00    +0.026 C 
BRANCH   2   8
ATOM      8  S   UNL     1     -39.055  22.515   1.305  0.00  0.00    +0.012 S 
ATOM      9  O   UNL     1     -40.054  22.082   2.271  0.00  0.00    -0.169 OA
ATOM     10  O   UNL     1     -38.682  23.918   1.224  0.00  0.00    -0.169 OA
ATOM     11  C   UNL     1     -39.609  22.029  -0.313  0.00  0.00    +0.182 C 
ENDBRANCH   2   8
BRANCH   5  14
ATOM     12  O   UNL     1     -36.724  17.825  -0.262  0.00  0.00    -0.126 OA
ATOM     13  O   UNL     1     -34.738  18.697  -0.603  0.00  0.00    -0.126 OA
ATOM     14  N   UNL     1     -35.861  18.710  -0.043  0.00  0.00    +0.058 N 
ENDBRANCH   5  14
ENDBRANCH   1   3
BRANCH   1  15
ATOM     15  N   UNL     1     -36.201  22.836   4.486  0.00  0.00    -0.128 NA
BRANCH  15  16
ATOM     16  C   UNL     1     -35.559  24.076   4.564  0.00  0.00    +0.089 C 
ATOM     17  C   UNL     1     -34.277  26.549   4.724  0.00  0.00    +0.149 C 
ATOM     18  C   UNL     1     -34.424  24.324   3.792  0.00  0.00    +0.021 C 
ATOM     19  C   UNL     1     -36.052  25.063   5.417  0.00  0.00    +0.021 C 
ATOM     20  C   UNL     1     -33.783  25.560   3.871  0.00  0.00    +0.039 C 
ATOM     21  C   UNL     1     -35.412  26.300   5.497  0.00  0.00    +0.039 C 
BRANCH  17  22
ATOM     22  O   UNL     1     -33.651  27.755   4.801  0.00  0.00    -0.403 OA
BRANCH  22  23
ATOM     23  P   UNL     1     -32.186  28.007   5.442  0.00  0.00    +0.528 P 
ATOM     24  O   UNL     1     -31.030  27.720   4.529  0.00  0.00    -0.216 OA
BRANCH  23  25
ATOM     25  O   UNL     1     -32.263  29.514   6.024  0.00  0.00    -0.293 OA
ATOM     26  H   UNL     1     -33.188  29.748   6.197  0.00  0.00    +0.223 HD
ENDBRANCH  23  25
BRANCH  23  27
ATOM     27  O   UNL     1     -32.221  27.100   6.782  0.00  0.00    -0.293 OA
ATOM     28  H   UNL     1     -31.703  26.292   6.639  0.00  0.00    +0.223 HD
ENDBRANCH  23  27
ENDBRANCH  22  23
ENDBRANCH  17  22
ENDBRANCH  15  16
ENDBRANCH   1  15
TORSDOF 9
ENDMDL
MODEL 9
REMARK VINA RESULT:      -5.9      4.065      8.684
REMARK  Name = 195218
REMARK  9 active torsions:
REMARK  status: ('A' for Active; 'I' for Inactive)
REMARK    1  A    between atoms: N_1  and  N_2
REMARK    2  A    between atoms: N_1  and  C_4
REMARK    3  A    between atoms: N_2  and  C_16
REMARK    4  A    between atoms: C_3  and  S_9
REMARK    5  A    between atoms: C_6  and  N_15
REMARK    6  A    between atoms: C_17  and  O_22
REMARK    7  A    between atoms: O_22  and  P_23
REMARK    8  A    between atoms: P_23  and  O_25
REMARK    9  A    between atoms: P_23  and  O_27
REMARK                            x       y       z     vdW  Elec       q    Type
REMARK                         _______ _______ _______ _____ _____    ______ ____
ROOT
ATOM      1  N   UNL     1     -32.768  27.045   4.824  0.00  0.00    -0.127 NA
ENDROOT
BRANCH   1   3
ATOM      2  C   UNL     1     -32.039  29.366   4.765  0.00  0.00    +0.124 C 
ATOM      3  C   UNL     1     -32.843  28.338   4.279  0.00  0.00    +0.106 C 
ATOM      4  C   UNL     1     -32.131  30.641   4.207  0.00  0.00    +0.044 C 
ATOM      5  C   UNL     1     -33.028  30.885   3.166  0.00  0.00    +0.144 C 
ATOM      6  C   UNL     1     -33.739  28.577   3.240  0.00  0.00    +0.021 C 
ATOM      7  C   UNL     1     -33.831  29.852   2.683  0.00  0.00    +0.026 C 
BRANCH   2   8
ATOM      8  S   UNL     1     -30.904  29.096   6.070  0.00  0.00    +0.012 S 
ATOM      9  O   UNL     1     -31.587  29.392   7.320  0.00  0.00    -0.169 OA
ATOM     10  O   UNL     1     -30.270  27.801   5.877  0.00  0.00    -0.169 OA
ATOM     11  C   UNL     1     -29.651  30.332   5.822  0.00  0.00    +0.182 C 
ENDBRANCH   2   8
BRANCH   5  14
ATOM     12  O   UNL     1     -32.090  32.893   2.532  0.00  0.00    -0.126 OA
ATOM     13  O   UNL     1     -34.234  32.583   2.177  0.00  0.00    -0.126 OA
ATOM     14  N   UNL     1     -33.122  32.182   2.598  0.00  0.00    +0.058 N 
ENDBRANCH   5  14
ENDBRANCH   1   3
BRANCH   1  15
ATOM     15  N   UNL     1     -33.706  26.868   5.637  0.00  0.00    -0.128 NA
BRANCH  15  16
ATOM     16  C   UNL     1     -34.549  25.849   5.180  0.00  0.00    +0.089 C 
ATOM     17  C   UNL     1     -36.230  23.820   4.265  0.00  0.00    +0.149 C 
ATOM     18  C   UNL     1     -34.019  24.603   4.845  0.00  0.00    +0.021 C 
ATOM     19  C   UNL     1     -35.918  26.081   5.056  0.00  0.00    +0.021 C 
ATOM     20  C   UNL     1     -34.859  23.588   4.388  0.00  0.00    +0.039 C 
ATOM     21  C   UNL     1     -36.760  25.067   4.599  0.00  0.00    +0.039 C 
BRANCH  17  22
ATOM     22  O   UNL     1     -37.050  22.829   3.819  0.00  0.00    -0.403 OA
BRANCH  22  23
ATOM     23  P   UNL     1     -36.717  21.823   2.595  0.00  0.00    +0.528 P 
ATOM     24  O   UNL     1     -36.091  22.464   1.390  0.00  0.00    -0.216 OA
BRANCH  23  25
ATOM     25  O   UNL     1     -35.860  20.636   3.282  0.00  0.00    -0.293 OA
ATOM     26  H   UNL     1     -36.334  20.302   4.060  0.00  0.00    +0.223 HD
ENDBRANCH  23  25
BRANCH  23  27
ATOM     27  O   UNL     1     -38.146  21.120   2.312  0.00  0.00    -0.293 OA
ATOM     28  H   UNL     1     -38.335  21.143   1.360  0.00  0.00    +0.223 HD
ENDBRANCH  23  27
ENDBRANCH  22  23
ENDBRANCH  17  22
ENDBRANCH  15  16
ENDBRANCH   1  15
TORSDOF 9
ENDMDL
