MODEL 1
REMARK VINA RESULT:      -5.8      0.000      0.000
REMARK  Name = 60200071
REMARK  8 active torsions:
REMARK  status: ('A' for Active; 'I' for Inactive)
REMARK    1  A    between atoms: C_1  and  N_13
REMARK    2  A    between atoms: C_2  and  O_7
REMARK    3  A    between atoms: C_5  and  C_10
REMARK    4  A    between atoms: C_10  and  O_11
REMARK    5  A    between atoms: N_13  and  C_15
REMARK    6  A    between atoms: C_15  and  C_16
REMARK    7  A    between atoms: C_16  and  C_19
REMARK    8  A    between atoms: C_19  and  O_20
REMARK                            x       y       z     vdW  Elec       q    Type
REMARK                         _______ _______ _______ _____ _____    ______ ____
ROOT
ATOM      1  C   UNL     1     -35.740  22.036   3.658  0.00  0.00    +0.079 C 
ATOM      2  C   UNL     1     -35.479  22.107   5.026  0.00  0.00    +0.147 C 
ATOM      3  C   UNL     1     -35.892  23.207   2.915  0.00  0.00    +0.018 C 
ATOM      4  C   UNL     1     -35.371  23.348   5.652  0.00  0.00    +0.044 C 
ATOM      5  C   UNL     1     -35.524  24.520   4.910  0.00  0.00    +0.079 C 
ATOM      6  C   UNL     1     -35.785  24.449   3.541  0.00  0.00    +0.008 C 
ENDROOT
BRANCH   2   7
ATOM      7  O   UNL     1     -35.328  20.974   5.769  0.00  0.00    -0.504 OA
ATOM      8  H   UNL     1     -34.480  20.726   6.080  0.00  0.00    +0.292 HD
ENDBRANCH   2   7
BRANCH   5  10
ATOM      9  O   UNL     1     -34.404  26.242   6.134  0.00  0.00    -0.245 OA
ATOM     10  C   UNL     1     -35.411  25.814   5.562  0.00  0.00    +0.338 C 
BRANCH  10  11
ATOM     11  O   UNL     1     -36.560  26.540   5.479  0.00  0.00    -0.477 OA
ATOM     12  H   UNL     1     -36.543  27.464   5.637  0.00  0.00    +0.295 HD
ENDBRANCH  10  11
ENDBRANCH   5  10
BRANCH   1  13
ATOM     13  N   UNL     1     -35.852  20.808   3.023  0.00  0.00    -0.330 N 
ATOM     14  H   UNL     1     -36.725  20.355   3.039  0.00  0.00    +0.147 HD
BRANCH  13  15
ATOM     15  C   UNL     1     -34.760  20.158   2.339  0.00  0.00    +0.098 C 
BRANCH  15  16
ATOM     16  C   UNL     1     -35.073  20.002   0.850  0.00  0.00    +0.118 C 
ATOM     17  C   UNL     1     -34.362  18.793   0.238  0.00  0.00    +0.013 C 
BRANCH  16  19
ATOM     18  O   UNL     1     -37.316  20.766   0.277  0.00  0.00    -0.250 OA
ATOM     19  C   UNL     1     -36.577  19.871   0.664  0.00  0.00    +0.315 C 
BRANCH  19  20
ATOM     20  O   UNL     1     -37.028  18.633   0.993  0.00  0.00    -0.480 OA
ATOM     21  H   UNL     1     -37.750  18.539   1.584  0.00  0.00    +0.295 HD
ENDBRANCH  19  20
ENDBRANCH  16  19
ENDBRANCH  15  16
ENDBRANCH  13  15
ENDBRANCH   1  13
TORSDOF 8
ENDMDL
MODEL 2
REMARK VINA RESULT:      -5.8      1.965      2.788
REMARK  Name = 60200071
REMARK  8 active torsions:
REMARK  status: ('A' for Active; 'I' for Inactive)
REMARK    1  A    between atoms: C_1  and  N_13
REMARK    2  A    between atoms: C_2  and  O_7
REMARK    3  A    between atoms: C_5  and  C_10
REMARK    4  A    between atoms: C_10  and  O_11
REMARK    5  A    between atoms: N_13  and  C_15
REMARK    6  A    between atoms: C_15  and  C_16
REMARK    7  A    between atoms: C_16  and  C_19
REMARK    8  A    between atoms: C_19  and  O_20
REMARK                            x       y       z     vdW  Elec       q    Type
REMARK                         _______ _______ _______ _____ _____    ______ ____
ROOT
ATOM      1  C   UNL     1     -36.130  23.627   4.246  0.00  0.00    +0.079 C 
ATOM      2  C   UNL     1     -36.667  24.875   4.564  0.00  0.00    +0.147 C 
ATOM      3  C   UNL     1     -34.769  23.386   4.432  0.00  0.00    +0.018 C 
ATOM      4  C   UNL     1     -35.843  25.882   5.067  0.00  0.00    +0.044 C 
ATOM      5  C   UNL     1     -34.481  25.640   5.253  0.00  0.00    +0.079 C 
ATOM      6  C   UNL     1     -33.944  24.393   4.936  0.00  0.00    +0.008 C 
ENDROOT
BRANCH   2   7
ATOM      7  O   UNL     1     -37.995  25.130   4.388  0.00  0.00    -0.504 OA
ATOM      8  H   UNL     1     -38.269  25.800   3.794  0.00  0.00    +0.292 HD
ENDBRANCH   2   7
BRANCH   5  10
ATOM      9  O   UNL     1     -33.001  26.639   6.844  0.00  0.00    -0.245 OA
ATOM     10  C   UNL     1     -33.623  26.689   5.778  0.00  0.00    +0.338 C 
BRANCH  10  11
ATOM     11  O   UNL     1     -33.562  27.773   4.955  0.00  0.00    -0.477 OA
ATOM     12  H   UNL     1     -32.798  28.315   4.951  0.00  0.00    +0.295 HD
ENDBRANCH  10  11
ENDBRANCH   5  10
BRANCH   1  13
ATOM     13  N   UNL     1     -36.938  22.619   3.743  0.00  0.00    -0.330 N 
ATOM     14  H   UNL     1     -37.224  21.904   4.356  0.00  0.00    +0.147 HD
BRANCH  13  15
ATOM     15  C   UNL     1     -37.384  22.559   2.372  0.00  0.00    +0.098 C 
BRANCH  15  16
ATOM     16  C   UNL     1     -36.458  21.667   1.542  0.00  0.00    +0.118 C 
ATOM     17  C   UNL     1     -35.254  22.441   1.000  0.00  0.00    +0.013 C 
BRANCH  16  19
ATOM     18  O   UNL     1     -34.832  20.313   2.752  0.00  0.00    -0.250 OA
ATOM     19  C   UNL     1     -35.987  20.500   2.395  0.00  0.00    +0.315 C 
BRANCH  19  20
ATOM     20  O   UNL     1     -37.003  19.656   2.715  0.00  0.00    -0.480 OA
ATOM     21  H   UNL     1     -36.814  18.815   3.084  0.00  0.00    +0.295 HD
ENDBRANCH  19  20
ENDBRANCH  16  19
ENDBRANCH  15  16
ENDBRANCH  13  15
ENDBRANCH   1  13
TORSDOF 8
ENDMDL
MODEL 3
REMARK VINA RESULT:      -5.7      1.333      1.534
REMARK  Name = 60200071
REMARK  8 active torsions:
REMARK  status: ('A' for Active; 'I' for Inactive)
REMARK    1  A    between atoms: C_1  and  N_13
REMARK    2  A    between atoms: C_2  and  O_7
REMARK    3  A    between atoms: C_5  and  C_10
REMARK    4  A    between atoms: C_10  and  O_11
REMARK    5  A    between atoms: N_13  and  C_15
REMARK    6  A    between atoms: C_15  and  C_16
REMARK    7  A    between atoms: C_16  and  C_19
REMARK    8  A    between atoms: C_19  and  O_20
REMARK                            x       y       z     vdW  Elec       q    Type
REMARK                         _______ _______ _______ _____ _____    ______ ____
ROOT
ATOM      1  C   UNL     1     -35.680  21.997   3.733  0.00  0.00    +0.079 C 
ATOM      2  C   UNL     1     -35.448  22.104   5.105  0.00  0.00    +0.147 C 
ATOM      3  C   UNL     1     -35.808  23.148   2.956  0.00  0.00    +0.018 C 
ATOM      4  C   UNL     1     -35.344  23.361   5.699  0.00  0.00    +0.044 C 
ATOM      5  C   UNL     1     -35.473  24.513   4.921  0.00  0.00    +0.079 C 
ATOM      6  C   UNL     1     -35.705  24.406   3.550  0.00  0.00    +0.008 C 
ENDROOT
BRANCH   2   7
ATOM      7  O   UNL     1     -35.320  20.991   5.881  0.00  0.00    -0.504 OA
ATOM      8  H   UNL     1     -35.929  20.830   6.575  0.00  0.00    +0.292 HD
ENDBRANCH   2   7
BRANCH   5  10
ATOM      9  O   UNL     1     -34.366  26.261   6.121  0.00  0.00    -0.245 OA
ATOM     10  C   UNL     1     -35.365  25.823   5.540  0.00  0.00    +0.338 C 
BRANCH  10  11
ATOM     11  O   UNL     1     -36.507  26.554   5.415  0.00  0.00    -0.477 OA
ATOM     12  H   UNL     1     -37.284  26.289   5.868  0.00  0.00    +0.295 HD
ENDBRANCH  10  11
ENDBRANCH   5  10
BRANCH   1  13
ATOM     13  N   UNL     1     -35.786  20.753   3.131  0.00  0.00    -0.330 N 
ATOM     14  H   UNL     1     -35.292  20.000   3.528  0.00  0.00    +0.147 HD
BRANCH  13  15
ATOM     15  C   UNL     1     -36.583  20.498   1.954  0.00  0.00    +0.098 C 
BRANCH  15  16
ATOM     16  C   UNL     1     -35.801  19.651   0.947  0.00  0.00    +0.118 C 
ATOM     17  C   UNL     1     -36.185  19.980  -0.497  0.00  0.00    +0.013 C 
BRANCH  16  19
ATOM     18  O   UNL     1     -33.690  20.859   0.782  0.00  0.00    -0.250 OA
ATOM     19  C   UNL     1     -34.311  19.872   1.154  0.00  0.00    +0.315 C 
BRANCH  19  20
ATOM     20  O   UNL     1     -33.723  18.830   1.797  0.00  0.00    -0.480 OA
ATOM     21  H   UNL     1     -33.999  18.598   2.663  0.00  0.00    +0.295 HD
ENDBRANCH  19  20
ENDBRANCH  16  19
ENDBRANCH  15  16
ENDBRANCH  13  15
ENDBRANCH   1  13
TORSDOF 8
ENDMDL
MODEL 4
REMARK VINA RESULT:      -5.6      2.674      3.128
REMARK  Name = 60200071
REMARK  8 active torsions:
REMARK  status: ('A' for Active; 'I' for Inactive)
REMARK    1  A    between atoms: C_1  and  N_13
REMARK    2  A    between atoms: C_2  and  O_7
REMARK    3  A    between atoms: C_5  and  C_10
REMARK    4  A    between atoms: C_10  and  O_11
REMARK    5  A    between atoms: N_13  and  C_15
REMARK    6  A    between atoms: C_15  and  C_16
REMARK    7  A    between atoms: C_16  and  C_19
REMARK    8  A    between atoms: C_19  and  O_20
REMARK                            x       y       z     vdW  Elec       q    Type
REMARK                         _______ _______ _______ _____ _____    ______ ____
ROOT
ATOM      1  C   UNL     1     -36.392  23.603   4.027  0.00  0.00    +0.079 C 
ATOM      2  C   UNL     1     -36.888  24.862   4.363  0.00  0.00    +0.147 C 
ATOM      3  C   UNL     1     -35.031  23.330   4.165  0.00  0.00    +0.018 C 
ATOM      4  C   UNL     1     -36.024  25.849   4.838  0.00  0.00    +0.044 C 
ATOM      5  C   UNL     1     -34.662  25.576   4.975  0.00  0.00    +0.079 C 
ATOM      6  C   UNL     1     -34.166  24.317   4.639  0.00  0.00    +0.008 C 
ENDROOT
BRANCH   2   7
ATOM      7  O   UNL     1     -38.215  25.149   4.235  0.00  0.00    -0.504 OA
ATOM      8  H   UNL     1     -38.829  24.461   4.068  0.00  0.00    +0.292 HD
ENDBRANCH   2   7
BRANCH   5  10
ATOM      9  O   UNL     1     -33.114  26.545   6.520  0.00  0.00    -0.245 OA
ATOM     10  C   UNL     1     -33.762  26.605   5.469  0.00  0.00    +0.338 C 
BRANCH  10  11
ATOM     11  O   UNL     1     -33.692  27.680   4.636  0.00  0.00    -0.477 OA
ATOM     12  H   UNL     1     -32.860  27.981   4.329  0.00  0.00    +0.295 HD
ENDBRANCH  10  11
ENDBRANCH   5  10
BRANCH   1  13
ATOM     13  N   UNL     1     -37.240  22.614   3.553  0.00  0.00    -0.330 N 
ATOM     14  H   UNL     1     -38.075  22.443   4.045  0.00  0.00    +0.147 HD
BRANCH  13  15
ATOM     15  C   UNL     1     -36.968  21.821   2.378  0.00  0.00    +0.098 C 
BRANCH  15  16
ATOM     16  C   UNL     1     -38.077  22.000   1.339  0.00  0.00    +0.118 C 
ATOM     17  C   UNL     1     -38.166  20.807   0.385  0.00  0.00    +0.013 C 
BRANCH  16  19
ATOM     18  O   UNL     1     -39.814  23.266   2.490  0.00  0.00    -0.250 OA
ATOM     19  C   UNL     1     -39.406  22.198   2.051  0.00  0.00    +0.315 C 
BRANCH  19  20
ATOM     20  O   UNL     1     -40.105  21.039   2.165  0.00  0.00    -0.480 OA
ATOM     21  H   UNL     1     -40.942  21.036   2.588  0.00  0.00    +0.295 HD
ENDBRANCH  19  20
ENDBRANCH  16  19
ENDBRANCH  15  16
ENDBRANCH  13  15
ENDBRANCH   1  13
TORSDOF 8
ENDMDL
MODEL 5
REMARK VINA RESULT:      -5.4      3.383      5.548
REMARK  Name = 60200071
REMARK  8 active torsions:
REMARK  status: ('A' for Active; 'I' for Inactive)
REMARK    1  A    between atoms: C_1  and  N_13
REMARK    2  A    between atoms: C_2  and  O_7
REMARK    3  A    between atoms: C_5  and  C_10
REMARK    4  A    between atoms: C_10  and  O_11
REMARK    5  A    between atoms: N_13  and  C_15
REMARK    6  A    between atoms: C_15  and  C_16
REMARK    7  A    between atoms: C_16  and  C_19
REMARK    8  A    between atoms: C_19  and  O_20
REMARK                            x       y       z     vdW  Elec       q    Type
REMARK                         _______ _______ _______ _____ _____    ______ ____
ROOT
ATOM      1  C   UNL     1     -37.867  23.012   3.014  0.00  0.00    +0.079 C 
ATOM      2  C   UNL     1     -38.810  22.272   2.301  0.00  0.00    +0.147 C 
ATOM      3  C   UNL     1     -38.031  24.388   3.166  0.00  0.00    +0.018 C 
ATOM      4  C   UNL     1     -39.918  22.909   1.740  0.00  0.00    +0.044 C 
ATOM      5  C   UNL     1     -40.081  24.286   1.892  0.00  0.00    +0.079 C 
ATOM      6  C   UNL     1     -39.137  25.026   2.605  0.00  0.00    +0.008 C 
ENDROOT
BRANCH   2   7
ATOM      7  O   UNL     1     -38.668  20.926   2.140  0.00  0.00    -0.504 OA
ATOM      8  H   UNL     1     -38.305  20.406   2.830  0.00  0.00    +0.292 HD
ENDBRANCH   2   7
BRANCH   5  10
ATOM      9  O   UNL     1     -41.378  26.172   1.197  0.00  0.00    -0.245 OA
ATOM     10  C   UNL     1     -41.234  24.950   1.308  0.00  0.00    +0.338 C 
BRANCH  10  11
ATOM     11  O   UNL     1     -42.179  24.068   0.877  0.00  0.00    -0.477 OA
ATOM     12  H   UNL     1     -42.290  23.912  -0.041  0.00  0.00    +0.295 HD
ENDBRANCH  10  11
ENDBRANCH   5  10
BRANCH   1  13
ATOM     13  N   UNL     1     -36.761  22.391   3.575  0.00  0.00    -0.330 N 
ATOM     14  H   UNL     1     -36.893  21.526   4.026  0.00  0.00    +0.147 HD
BRANCH  13  15
ATOM     15  C   UNL     1     -35.427  22.940   3.533  0.00  0.00    +0.098 C 
BRANCH  15  16
ATOM     16  C   UNL     1     -34.843  23.045   4.943  0.00  0.00    +0.118 C 
ATOM     17  C   UNL     1     -35.118  24.411   5.576  0.00  0.00    +0.013 C 
BRANCH  16  19
ATOM     18  O   UNL     1     -36.151  22.120   6.781  0.00  0.00    -0.250 OA
ATOM     19  C   UNL     1     -35.425  21.941   5.812  0.00  0.00    +0.315 C 
BRANCH  19  20
ATOM     20  O   UNL     1     -35.035  20.706   5.401  0.00  0.00    -0.480 OA
ATOM     21  H   UNL     1     -34.175  20.579   5.048  0.00  0.00    +0.295 HD
ENDBRANCH  19  20
ENDBRANCH  16  19
ENDBRANCH  15  16
ENDBRANCH  13  15
ENDBRANCH   1  13
TORSDOF 8
ENDMDL
MODEL 6
REMARK VINA RESULT:      -5.4      3.683      6.207
REMARK  Name = 60200071
REMARK  8 active torsions:
REMARK  status: ('A' for Active; 'I' for Inactive)
REMARK    1  A    between atoms: C_1  and  N_13
REMARK    2  A    between atoms: C_2  and  O_7
REMARK    3  A    between atoms: C_5  and  C_10
REMARK    4  A    between atoms: C_10  and  O_11
REMARK    5  A    between atoms: N_13  and  C_15
REMARK    6  A    between atoms: C_15  and  C_16
REMARK    7  A    between atoms: C_16  and  C_19
REMARK    8  A    between atoms: C_19  and  O_20
REMARK                            x       y       z     vdW  Elec       q    Type
REMARK                         _______ _______ _______ _____ _____    ______ ____
ROOT
ATOM      1  C   UNL     1     -35.290  26.219   4.251  0.00  0.00    +0.079 C 
ATOM      2  C   UNL     1     -36.521  25.564   4.210  0.00  0.00    +0.147 C 
ATOM      3  C   UNL     1     -34.144  25.525   4.638  0.00  0.00    +0.018 C 
ATOM      4  C   UNL     1     -36.605  24.216   4.557  0.00  0.00    +0.044 C 
ATOM      5  C   UNL     1     -35.459  23.522   4.945  0.00  0.00    +0.079 C 
ATOM      6  C   UNL     1     -34.228  24.177   4.986  0.00  0.00    +0.008 C 
ENDROOT
BRANCH   2   7
ATOM      7  O   UNL     1     -37.652  26.225   3.834  0.00  0.00    -0.504 OA
ATOM      8  H   UNL     1     -37.945  26.185   2.945  0.00  0.00    +0.292 HD
ENDBRANCH   2   7
BRANCH   5  10
ATOM      9  O   UNL     1     -35.155  21.173   4.613  0.00  0.00    -0.245 OA
ATOM     10  C   UNL     1     -35.547  22.117   5.306  0.00  0.00    +0.338 C 
BRANCH  10  11
ATOM     11  O   UNL     1     -36.121  21.928   6.527  0.00  0.00    -0.477 OA
ATOM     12  H   UNL     1     -36.180  22.641   7.132  0.00  0.00    +0.295 HD
ENDBRANCH  10  11
ENDBRANCH   5  10
BRANCH   1  13
ATOM     13  N   UNL     1     -35.192  27.559   3.910  0.00  0.00    -0.330 N 
ATOM     14  H   UNL     1     -35.839  28.187   4.305  0.00  0.00    +0.147 HD
BRANCH  13  15
ATOM     15  C   UNL     1     -34.194  28.086   3.011  0.00  0.00    +0.098 C 
BRANCH  15  16
ATOM     16  C   UNL     1     -34.752  28.196   1.590  0.00  0.00    +0.118 C 
ATOM     17  C   UNL     1     -34.598  26.887   0.812  0.00  0.00    +0.013 C 
BRANCH  16  19
ATOM     18  O   UNL     1     -37.159  27.848   1.414  0.00  0.00    -0.250 OA
ATOM     19  C   UNL     1     -36.219  28.593   1.656  0.00  0.00    +0.315 C 
BRANCH  19  20
ATOM     20  O   UNL     1     -36.382  29.896   2.004  0.00  0.00    -0.480 OA
ATOM     21  H   UNL     1     -37.228  30.295   1.942  0.00  0.00    +0.295 HD
ENDBRANCH  19  20
ENDBRANCH  16  19
ENDBRANCH  15  16
ENDBRANCH  13  15
ENDBRANCH   1  13
TORSDOF 8
ENDMDL
MODEL 7
REMARK VINA RESULT:      -5.4      2.359      2.734
REMARK  Name = 60200071
REMARK  8 active torsions:
REMARK  status: ('A' for Active; 'I' for Inactive)
REMARK    1  A    between atoms: C_1  and  N_13
REMARK    2  A    between atoms: C_2  and  O_7
REMARK    3  A    between atoms: C_5  and  C_10
REMARK    4  A    between atoms: C_10  and  O_11
REMARK    5  A    between atoms: N_13  and  C_15
REMARK    6  A    between atoms: C_15  and  C_16
REMARK    7  A    between atoms: C_16  and  C_19
REMARK    8  A    between atoms: C_19  and  O_20
REMARK                            x       y       z     vdW  Elec       q    Type
REMARK                         _______ _______ _______ _____ _____    ______ ____
ROOT
ATOM      1  C   UNL     1     -36.475  23.312   3.714  0.00  0.00    +0.079 C 
ATOM      2  C   UNL     1     -35.857  23.192   4.959  0.00  0.00    +0.147 C 
ATOM      3  C   UNL     1     -36.174  24.394   2.887  0.00  0.00    +0.018 C 
ATOM      4  C   UNL     1     -34.938  24.155   5.377  0.00  0.00    +0.044 C 
ATOM      5  C   UNL     1     -34.638  25.238   4.550  0.00  0.00    +0.079 C 
ATOM      6  C   UNL     1     -35.256  25.357   3.305  0.00  0.00    +0.008 C 
ENDROOT
BRANCH   2   7
ATOM      7  O   UNL     1     -36.138  22.142   5.782  0.00  0.00    -0.504 OA
ATOM      8  H   UNL     1     -35.770  22.109   6.642  0.00  0.00    +0.292 HD
ENDBRANCH   2   7
BRANCH   5  10
ATOM      9  O   UNL     1     -32.808  26.754   4.277  0.00  0.00    -0.245 OA
ATOM     10  C   UNL     1     -33.680  26.241   4.985  0.00  0.00    +0.338 C 
BRANCH  10  11
ATOM     11  O   UNL     1     -33.840  26.579   6.295  0.00  0.00    -0.477 OA
ATOM     12  H   UNL     1     -33.733  27.469   6.566  0.00  0.00    +0.295 HD
ENDBRANCH  10  11
ENDBRANCH   5  10
BRANCH   1  13
ATOM     13  N   UNL     1     -37.391  22.362   3.287  0.00  0.00    -0.330 N 
ATOM     14  H   UNL     1     -38.197  22.217   3.832  0.00  0.00    +0.147 HD
BRANCH  13  15
ATOM     15  C   UNL     1     -37.230  21.576   2.088  0.00  0.00    +0.098 C 
BRANCH  15  16
ATOM     16  C   UNL     1     -38.369  21.854   1.104  0.00  0.00    +0.118 C 
ATOM     17  C   UNL     1     -38.552  20.711   0.104  0.00  0.00    +0.013 C 
BRANCH  16  19
ATOM     18  O   UNL     1     -40.177  23.171   2.072  0.00  0.00    -0.250 OA
ATOM     19  C   UNL     1     -39.658  22.080   1.879  0.00  0.00    +0.315 C 
BRANCH  19  20
ATOM     20  O   UNL     1     -40.178  20.921   2.358  0.00  0.00    -0.480 OA
ATOM     21  H   UNL     1     -39.623  20.177   2.491  0.00  0.00    +0.295 HD
ENDBRANCH  19  20
ENDBRANCH  16  19
ENDBRANCH  15  16
ENDBRANCH  13  15
ENDBRANCH   1  13
TORSDOF 8
ENDMDL
MODEL 8
REMARK VINA RESULT:      -5.3      3.666      7.063
REMARK  Name = 60200071
REMARK  8 active torsions:
REMARK  status: ('A' for Active; 'I' for Inactive)
REMARK    1  A    between atoms: C_1  and  N_13
REMARK    2  A    between atoms: C_2  and  O_7
REMARK    3  A    between atoms: C_5  and  C_10
REMARK    4  A    between atoms: C_10  and  O_11
REMARK    5  A    between atoms: N_13  and  C_15
REMARK    6  A    between atoms: C_15  and  C_16
REMARK    7  A    between atoms: C_16  and  C_19
REMARK    8  A    between atoms: C_19  and  O_20
REMARK                            x       y       z     vdW  Elec       q    Type
REMARK                         _______ _______ _______ _____ _____    ______ ____
ROOT
ATOM      1  C   UNL     1     -35.303  26.234   4.321  0.00  0.00    +0.079 C 
ATOM      2  C   UNL     1     -36.529  25.573   4.258  0.00  0.00    +0.147 C 
ATOM      3  C   UNL     1     -34.154  25.538   4.696  0.00  0.00    +0.018 C 
ATOM      4  C   UNL     1     -36.607  24.216   4.570  0.00  0.00    +0.044 C 
ATOM      5  C   UNL     1     -35.458  23.519   4.946  0.00  0.00    +0.079 C 
ATOM      6  C   UNL     1     -34.231  24.181   5.009  0.00  0.00    +0.008 C 
ENDROOT
BRANCH   2   7
ATOM      7  O   UNL     1     -37.663  26.236   3.894  0.00  0.00    -0.504 OA
ATOM      8  H   UNL     1     -38.410  26.233   4.460  0.00  0.00    +0.292 HD
ENDBRANCH   2   7
BRANCH   5  10
ATOM      9  O   UNL     1     -35.145  21.181   4.553  0.00  0.00    -0.245 OA
ATOM     10  C   UNL     1     -35.539  22.105   5.272  0.00  0.00    +0.338 C 
BRANCH  10  11
ATOM     11  O   UNL     1     -36.108  21.883   6.489  0.00  0.00    -0.477 OA
ATOM     12  H   UNL     1     -36.793  21.250   6.577  0.00  0.00    +0.295 HD
ENDBRANCH  10  11
ENDBRANCH   5  10
BRANCH   1  13
ATOM     13  N   UNL     1     -35.212  27.583   4.014  0.00  0.00    -0.330 N 
ATOM     14  H   UNL     1     -35.253  28.231   4.753  0.00  0.00    +0.147 HD
BRANCH  13  15
ATOM     15  C   UNL     1     -35.059  28.091   2.672  0.00  0.00    +0.098 C 
BRANCH  15  16
ATOM     16  C   UNL     1     -34.124  29.302   2.657  0.00  0.00    +0.118 C 
ATOM     17  C   UNL     1     -34.867  30.602   2.974  0.00  0.00    +0.013 C 
BRANCH  16  19
ATOM     18  O   UNL     1     -32.874  29.697   4.712  0.00  0.00    -0.250 OA
ATOM     19  C   UNL     1     -33.003  29.084   3.661  0.00  0.00    +0.315 C 
BRANCH  19  20
ATOM     20  O   UNL     1     -32.130  28.127   3.254  0.00  0.00    -0.480 OA
ATOM     21  H   UNL     1     -31.302  28.034   3.685  0.00  0.00    +0.295 HD
ENDBRANCH  19  20
ENDBRANCH  16  19
ENDBRANCH  15  16
ENDBRANCH  13  15
ENDBRANCH   1  13
TORSDOF 8
ENDMDL
MODEL 9
REMARK VINA RESULT:      -5.3      1.951      6.293
REMARK  Name = 60200071
REMARK  8 active torsions:
REMARK  status: ('A' for Active; 'I' for Inactive)
REMARK    1  A    between atoms: C_1  and  N_13
REMARK    2  A    between atoms: C_2  and  O_7
REMARK    3  A    between atoms: C_5  and  C_10
REMARK    4  A    between atoms: C_10  and  O_11
REMARK    5  A    between atoms: N_13  and  C_15
REMARK    6  A    between atoms: C_15  and  C_16
REMARK    7  A    between atoms: C_16  and  C_19
REMARK    8  A    between atoms: C_19  and  O_20
REMARK                            x       y       z     vdW  Elec       q    Type
REMARK                         _______ _______ _______ _____ _____    ______ ____
ROOT
ATOM      1  C   UNL     1     -36.307  22.613   3.932  0.00  0.00    +0.079 C 
ATOM      2  C   UNL     1     -37.361  22.719   3.024  0.00  0.00    +0.147 C 
ATOM      3  C   UNL     1     -35.337  21.626   3.760  0.00  0.00    +0.018 C 
ATOM      4  C   UNL     1     -37.445  21.839   1.945  0.00  0.00    +0.044 C 
ATOM      5  C   UNL     1     -36.474  20.852   1.774  0.00  0.00    +0.079 C 
ATOM      6  C   UNL     1     -35.420  20.745   2.682  0.00  0.00    +0.008 C 
ENDROOT
BRANCH   2   7
ATOM      7  O   UNL     1     -38.320  23.677   3.175  0.00  0.00    -0.504 OA
ATOM      8  H   UNL     1     -38.180  24.392   3.764  0.00  0.00    +0.292 HD
ENDBRANCH   2   7
BRANCH   5  10
ATOM      9  O   UNL     1     -36.176  20.172  -0.500  0.00  0.00    -0.245 OA
ATOM     10  C   UNL     1     -36.561  19.935   0.650  0.00  0.00    +0.338 C 
BRANCH  10  11
ATOM     11  O   UNL     1     -37.125  18.743   0.993  0.00  0.00    -0.477 OA
ATOM     12  H   UNL     1     -37.530  18.211   0.336  0.00  0.00    +0.295 HD
ENDBRANCH  10  11
ENDBRANCH   5  10
BRANCH   1  13
ATOM     13  N   UNL     1     -36.213  23.480   5.009  0.00  0.00    -0.330 N 
ATOM     14  H   UNL     1     -37.031  23.677   5.519  0.00  0.00    +0.147 HD
BRANCH  13  15
ATOM     15  C   UNL     1     -34.983  24.109   5.426  0.00  0.00    +0.098 C 
BRANCH  15  16
ATOM     16  C   UNL     1     -35.191  25.610   5.643  0.00  0.00    +0.118 C 
ATOM     17  C   UNL     1     -33.878  26.331   5.952  0.00  0.00    +0.013 C 
BRANCH  16  19
ATOM     18  O   UNL     1     -35.230  26.706   3.466  0.00  0.00    -0.250 OA
ATOM     19  C   UNL     1     -35.839  26.211   4.406  0.00  0.00    +0.315 C 
BRANCH  19  20
ATOM     20  O   UNL     1     -37.195  26.155   4.458  0.00  0.00    -0.480 OA
ATOM     21  H   UNL     1     -37.692  26.101   3.665  0.00  0.00    +0.295 HD
ENDBRANCH  19  20
ENDBRANCH  16  19
ENDBRANCH  15  16
ENDBRANCH  13  15
ENDBRANCH   1  13
TORSDOF 8
ENDMDL
