MODEL 1
REMARK VINA RESULT:      -5.6      0.000      0.000
REMARK  Name = 5486884
REMARK  7 active torsions:
REMARK  status: ('A' for Active; 'I' for Inactive)
REMARK    1  A    between atoms: C_1  and  S_2
REMARK    2  A    between atoms: C_1  and  C_14
REMARK    3  A    between atoms: S_2  and  C_3
REMARK    4  A    between atoms: C_3  and  C_6
REMARK    5  A    between atoms: C_5  and  C_9
REMARK    6  A    between atoms: C_9  and  N_10
REMARK    7  A    between atoms: C_14  and  N_17
REMARK                            x       y       z     vdW  Elec       q    Type
REMARK                         _______ _______ _______ _____ _____    ______ ____
ROOT
ATOM      1  C   UNL     1     -39.736  23.485   1.751  0.00  0.00    +0.079 C 
ENDROOT
BRANCH   1   2
ATOM      2  S   UNL     1     -39.227  21.803   2.163  0.00  0.00    -0.130 S 
BRANCH   2   3
ATOM      3  C   UNL     1     -38.132  21.512   0.728  0.00  0.00    +0.122 C 
BRANCH   3   6
ATOM      4  O   UNL     1     -36.259  20.103   0.196  0.00  0.00    -0.463 OA
ATOM      5  C   UNL     1     -35.127  19.671   0.777  0.00  0.00    +0.102 C 
ATOM      6  C   UNL     1     -36.853  20.902   1.121  0.00  0.00    +0.133 C 
ATOM      7  C   UNL     1     -34.959  20.152   2.029  0.00  0.00    +0.034 C 
ATOM      8  C   UNL     1     -36.093  20.966   2.265  0.00  0.00    +0.037 C 
BRANCH   5   9
ATOM      9  C   UNL     1     -34.289  18.755  -0.073  0.00  0.00    -0.011 C 
BRANCH   9  10
ATOM     10  N   UNL     1     -33.829  17.599   0.695  0.00  0.00    +0.389 N 
ATOM     11  C   UNL     1     -34.079  16.362  -0.043  0.00  0.00    -0.100 C 
ATOM     12  C   UNL     1     -32.406  17.728   1.010  0.00  0.00    -0.100 C 
ATOM     13  H   UNL     1     -34.351  17.564   1.570  0.00  0.00    -0.079 HD
ENDBRANCH   9  10
ENDBRANCH   5   9
ENDBRANCH   3   6
ENDBRANCH   2   3
ENDBRANCH   1   2
BRANCH   1  14
ATOM     14  C   UNL     1     -38.941  24.535   2.517  0.00  0.00    +0.100 C 
BRANCH  14  17
ATOM     15  S   UNL     1     -34.798  25.863   4.025  0.00  0.00    +0.270 S 
ATOM     16  O   UNL     1     -35.123  26.895   5.065  0.00  0.00    -0.208 OA
ATOM     17  N   UNL     1     -38.017  23.923   3.444  0.00  0.00    -0.314 N 
ATOM     18  N   UNL     1     -36.352  25.616   3.350  0.00  0.00    -0.148 NA
ATOM     19  N   UNL     1     -36.255  22.595   5.315  0.00  0.00    -0.314 N 
ATOM     20  N   UNL     1     -34.806  24.449   4.992  0.00  0.00    -0.148 NA
ATOM     21  C   UNL     1     -36.818  24.484   3.780  0.00  0.00    +0.173 A 
ATOM     22  C   UNL     1     -35.898  23.790   4.757  0.00  0.00    +0.173 A 
ATOM     23  C   UNL     1     -35.427  21.910   6.262  0.00  0.00    +0.110 C 
ATOM     24  H   UNL     1     -38.263  23.061   3.851  0.00  0.00    +0.148 HD
ATOM     25  H   UNL     1     -37.115  22.191   5.055  0.00  0.00    +0.148 HD
ENDBRANCH  14  17
ENDBRANCH   1  14
TORSDOF 7
ENDMDL
MODEL 2
REMARK VINA RESULT:      -5.4      5.059      9.448
REMARK  Name = 5486884
REMARK  7 active torsions:
REMARK  status: ('A' for Active; 'I' for Inactive)
REMARK    1  A    between atoms: C_1  and  S_2
REMARK    2  A    between atoms: C_1  and  C_14
REMARK    3  A    between atoms: S_2  and  C_3
REMARK    4  A    between atoms: C_3  and  C_6
REMARK    5  A    between atoms: C_5  and  C_9
REMARK    6  A    between atoms: C_9  and  N_10
REMARK    7  A    between atoms: C_14  and  N_17
REMARK                            x       y       z     vdW  Elec       q    Type
REMARK                         _______ _______ _______ _____ _____    ______ ____
ROOT
ATOM      1  C   UNL     1     -39.367  25.097   2.202  0.00  0.00    +0.079 C 
ENDROOT
BRANCH   1   2
ATOM      2  S   UNL     1     -41.070  25.672   2.040  0.00  0.00    -0.130 S 
BRANCH   2   3
ATOM      3  C   UNL     1     -41.225  26.470   3.678  0.00  0.00    +0.122 C 
BRANCH   3   6
ATOM      4  O   UNL     1     -42.391  28.301   4.707  0.00  0.00    -0.463 OA
ATOM      5  C   UNL     1     -43.576  28.926   4.603  0.00  0.00    +0.102 C 
ATOM      6  C   UNL     1     -42.423  27.316   3.771  0.00  0.00    +0.133 C 
ATOM      7  C   UNL     1     -44.371  28.395   3.647  0.00  0.00    +0.034 C 
ATOM      8  C   UNL     1     -43.618  27.332   3.092  0.00  0.00    +0.037 C 
BRANCH   5   9
ATOM      9  C   UNL     1     -43.774  30.072   5.557  0.00  0.00    -0.011 C 
BRANCH   9  10
ATOM     10  N   UNL     1     -44.432  29.628   6.785  0.00  0.00    +0.389 N 
ATOM     11  C   UNL     1     -43.846  30.292   7.948  0.00  0.00    -0.100 C 
ATOM     12  C   UNL     1     -45.870  29.889   6.718  0.00  0.00    -0.100 C 
ATOM     13  H   UNL     1     -44.290  28.623   6.881  0.00  0.00    -0.079 HD
ENDBRANCH   9  10
ENDBRANCH   5   9
ENDBRANCH   3   6
ENDBRANCH   2   3
ENDBRANCH   1   2
BRANCH   1  14
ATOM     14  C   UNL     1     -38.649  25.739   3.383  0.00  0.00    +0.100 C 
BRANCH  14  17
ATOM     15  S   UNL     1     -34.178  25.848   4.480  0.00  0.00    +0.270 S 
ATOM     16  O   UNL     1     -34.143  26.722   5.698  0.00  0.00    -0.208 OA
ATOM     17  N   UNL     1     -37.807  24.786   4.068  0.00  0.00    -0.314 N 
ATOM     18  N   UNL     1     -35.807  26.067   3.999  0.00  0.00    -0.148 NA
ATOM     19  N   UNL     1     -36.228  22.795   5.452  0.00  0.00    -0.314 N 
ATOM     20  N   UNL     1     -34.422  24.320   5.213  0.00  0.00    -0.148 NA
ATOM     21  C   UNL     1     -36.482  25.004   4.314  0.00  0.00    +0.173 A 
ATOM     22  C   UNL     1     -35.657  23.964   5.037  0.00  0.00    +0.173 A 
ATOM     23  C   UNL     1     -35.494  21.789   6.159  0.00  0.00    +0.110 C 
ATOM     24  H   UNL     1     -38.207  23.939   4.371  0.00  0.00    +0.148 HD
ATOM     25  H   UNL     1     -37.181  22.639   5.257  0.00  0.00    +0.148 HD
ENDBRANCH  14  17
ENDBRANCH   1  14
TORSDOF 7
ENDMDL
MODEL 3
REMARK VINA RESULT:      -5.4      3.553      7.123
REMARK  Name = 5486884
REMARK  7 active torsions:
REMARK  status: ('A' for Active; 'I' for Inactive)
REMARK    1  A    between atoms: C_1  and  S_2
REMARK    2  A    between atoms: C_1  and  C_14
REMARK    3  A    between atoms: S_2  and  C_3
REMARK    4  A    between atoms: C_3  and  C_6
REMARK    5  A    between atoms: C_5  and  C_9
REMARK    6  A    between atoms: C_9  and  N_10
REMARK    7  A    between atoms: C_14  and  N_17
REMARK                            x       y       z     vdW  Elec       q    Type
REMARK                         _______ _______ _______ _____ _____    ______ ____
ROOT
ATOM      1  C   UNL     1     -38.147  25.050   1.419  0.00  0.00    +0.079 C 
ENDROOT
BRANCH   1   2
ATOM      2  S   UNL     1     -37.629  26.193   2.716  0.00  0.00    -0.130 S 
BRANCH   2   3
ATOM      3  C   UNL     1     -35.838  26.201   2.345  0.00  0.00    +0.122 C 
BRANCH   3   6
ATOM      4  O   UNL     1     -33.948  27.159   3.478  0.00  0.00    -0.463 OA
ATOM      5  C   UNL     1     -33.370  27.111   4.689  0.00  0.00    +0.102 C 
ATOM      6  C   UNL     1     -35.021  26.329   3.560  0.00  0.00    +0.133 C 
ATOM      7  C   UNL     1     -34.015  26.293   5.550  0.00  0.00    +0.034 C 
ATOM      8  C   UNL     1     -35.106  25.772   4.814  0.00  0.00    +0.037 C 
BRANCH   5   9
ATOM      9  C   UNL     1     -32.141  27.966   4.839  0.00  0.00    -0.011 C 
BRANCH   9  10
ATOM     10  N   UNL     1     -32.456  29.231   5.501  0.00  0.00    +0.389 N 
ATOM     11  C   UNL     1     -31.581  29.439   6.652  0.00  0.00    -0.100 C 
ATOM     12  C   UNL     1     -32.336  30.345   4.559  0.00  0.00    -0.100 C 
ATOM     13  H   UNL     1     -33.421  29.191   5.831  0.00  0.00    -0.079 HD
ENDBRANCH   9  10
ENDBRANCH   5   9
ENDBRANCH   3   6
ENDBRANCH   2   3
ENDBRANCH   1   2
BRANCH   1  14
ATOM     14  C   UNL     1     -38.642  23.723   1.980  0.00  0.00    +0.100 C 
BRANCH  14  17
ATOM     15  S   UNL     1     -35.494  20.363   2.003  0.00  0.00    +0.270 S 
ATOM     16  O   UNL     1     -34.308  20.996   1.338  0.00  0.00    -0.208 OA
ATOM     17  N   UNL     1     -37.770  23.234   3.023  0.00  0.00    -0.314 N 
ATOM     18  N   UNL     1     -36.676  21.571   1.726  0.00  0.00    -0.148 NA
ATOM     19  N   UNL     1     -36.077  22.347   5.194  0.00  0.00    -0.314 N 
ATOM     20  N   UNL     1     -35.190  20.792   3.632  0.00  0.00    -0.148 NA
ATOM     21  C   UNL     1     -36.880  22.216   2.832  0.00  0.00    +0.173 A 
ATOM     22  C   UNL     1     -35.995  21.753   3.967  0.00  0.00    +0.173 A 
ATOM     23  C   UNL     1     -35.246  21.958   6.294  0.00  0.00    +0.110 C 
ATOM     24  H   UNL     1     -37.820  23.653   3.912  0.00  0.00    +0.148 HD
ATOM     25  H   UNL     1     -36.733  23.070   5.327  0.00  0.00    +0.148 HD
ENDBRANCH  14  17
ENDBRANCH   1  14
TORSDOF 7
ENDMDL
MODEL 4
REMARK VINA RESULT:      -5.4      1.318      1.639
REMARK  Name = 5486884
REMARK  7 active torsions:
REMARK  status: ('A' for Active; 'I' for Inactive)
REMARK    1  A    between atoms: C_1  and  S_2
REMARK    2  A    between atoms: C_1  and  C_14
REMARK    3  A    between atoms: S_2  and  C_3
REMARK    4  A    between atoms: C_3  and  C_6
REMARK    5  A    between atoms: C_5  and  C_9
REMARK    6  A    between atoms: C_9  and  N_10
REMARK    7  A    between atoms: C_14  and  N_17
REMARK                            x       y       z     vdW  Elec       q    Type
REMARK                         _______ _______ _______ _____ _____    ______ ____
ROOT
ATOM      1  C   UNL     1     -39.753  24.545   2.316  0.00  0.00    +0.079 C 
ENDROOT
BRANCH   1   2
ATOM      2  S   UNL     1     -39.248  22.820   2.155  0.00  0.00    -0.130 S 
BRANCH   2   3
ATOM      3  C   UNL     1     -38.193  23.002   0.673  0.00  0.00    +0.122 C 
BRANCH   3   6
ATOM      4  O   UNL     1     -36.462  21.405   1.150  0.00  0.00    -0.463 OA
ATOM      5  C   UNL     1     -35.141  21.394   1.391  0.00  0.00    +0.102 C 
ATOM      6  C   UNL     1     -36.781  22.712   0.959  0.00  0.00    +0.133 C 
ATOM      7  C   UNL     1     -34.589  22.627   1.365  0.00  0.00    +0.034 C 
ATOM      8  C   UNL     1     -35.663  23.504   1.080  0.00  0.00    +0.037 C 
BRANCH   5   9
ATOM      9  C   UNL     1     -34.553  20.031   1.637  0.00  0.00    -0.011 C 
BRANCH   9  10
ATOM     10  N   UNL     1     -33.879  19.524   0.442  0.00  0.00    +0.389 N 
ATOM     11  C   UNL     1     -32.437  19.737   0.539  0.00  0.00    -0.100 C 
ATOM     12  C   UNL     1     -34.175  18.104   0.252  0.00  0.00    -0.100 C 
ATOM     13  H   UNL     1     -34.229  20.037  -0.367  0.00  0.00    -0.079 HD
ENDBRANCH   9  10
ENDBRANCH   5   9
ENDBRANCH   3   6
ENDBRANCH   2   3
ENDBRANCH   1   2
BRANCH   1  14
ATOM     14  C   UNL     1     -38.814  25.342   3.212  0.00  0.00    +0.100 C 
BRANCH  14  17
ATOM     15  S   UNL     1     -34.362  25.803   4.295  0.00  0.00    +0.270 S 
ATOM     16  O   UNL     1     -34.388  26.719   5.482  0.00  0.00    -0.208 OA
ATOM     17  N   UNL     1     -37.907  24.475   3.928  0.00  0.00    -0.314 N 
ATOM     18  N   UNL     1     -36.002  25.891   3.810  0.00  0.00    -0.148 NA
ATOM     19  N   UNL     1     -36.193  22.650   5.376  0.00  0.00    -0.314 N 
ATOM     20  N   UNL     1     -34.498  24.288   5.080  0.00  0.00    -0.148 NA
ATOM     21  C   UNL     1     -36.601  24.795   4.163  0.00  0.00    +0.173 A 
ATOM     22  C   UNL     1     -35.705  23.841   4.919  0.00  0.00    +0.173 A 
ATOM     23  C   UNL     1     -35.389  21.723   6.116  0.00  0.00    +0.110 C 
ATOM     24  H   UNL     1     -38.246  23.613   4.261  0.00  0.00    +0.148 HD
ATOM     25  H   UNL     1     -37.132  22.420   5.189  0.00  0.00    +0.148 HD
ENDBRANCH  14  17
ENDBRANCH   1  14
TORSDOF 7
ENDMDL
MODEL 5
REMARK VINA RESULT:      -5.4      5.907      7.974
REMARK  Name = 5486884
REMARK  7 active torsions:
REMARK  status: ('A' for Active; 'I' for Inactive)
REMARK    1  A    between atoms: C_1  and  S_2
REMARK    2  A    between atoms: C_1  and  C_14
REMARK    3  A    between atoms: S_2  and  C_3
REMARK    4  A    between atoms: C_3  and  C_6
REMARK    5  A    between atoms: C_5  and  C_9
REMARK    6  A    between atoms: C_9  and  N_10
REMARK    7  A    between atoms: C_14  and  N_17
REMARK                            x       y       z     vdW  Elec       q    Type
REMARK                         _______ _______ _______ _____ _____    ______ ____
ROOT
ATOM      1  C   UNL     1     -42.194  26.629   2.150  0.00  0.00    +0.079 C 
ENDROOT
BRANCH   1   2
ATOM      2  S   UNL     1     -40.574  26.144   1.518  0.00  0.00    -0.130 S 
BRANCH   2   3
ATOM      3  C   UNL     1     -39.996  25.219   2.985  0.00  0.00    +0.122 C 
BRANCH   3   6
ATOM      4  O   UNL     1     -38.003  24.588   4.170  0.00  0.00    -0.463 OA
ATOM      5  C   UNL     1     -36.695  24.896   4.177  0.00  0.00    +0.102 C 
ATOM      6  C   UNL     1     -38.549  25.366   3.199  0.00  0.00    +0.133 C 
ATOM      7  C   UNL     1     -36.369  25.833   3.259  0.00  0.00    +0.034 C 
ATOM      8  C   UNL     1     -37.586  26.149   2.608  0.00  0.00    +0.037 C 
BRANCH   5   9
ATOM      9  C   UNL     1     -35.873  24.146   5.189  0.00  0.00    -0.011 C 
BRANCH   9  10
ATOM     10  N   UNL     1     -36.144  22.710   5.129  0.00  0.00    +0.389 N 
ATOM     11  C   UNL     1     -35.656  22.150   3.871  0.00  0.00    -0.100 C 
ATOM     12  C   UNL     1     -35.530  22.026   6.267  0.00  0.00    -0.100 C 
ATOM     13  H   UNL     1     -37.154  22.570   5.176  0.00  0.00    -0.079 HD
ENDBRANCH   9  10
ENDBRANCH   5   9
ENDBRANCH   3   6
ENDBRANCH   2   3
ENDBRANCH   1   2
BRANCH   1  14
ATOM     14  C   UNL     1     -42.126  27.142   3.583  0.00  0.00    +0.100 C 
BRANCH  14  17
ATOM     15  S   UNL     1     -43.630  30.588   6.240  0.00  0.00    +0.270 S 
ATOM     16  O   UNL     1     -43.751  31.736   5.282  0.00  0.00    -0.208 OA
ATOM     17  N   UNL     1     -43.441  27.456   4.092  0.00  0.00    -0.314 N 
ATOM     18  N   UNL     1     -42.836  29.445   5.243  0.00  0.00    -0.148 NA
ATOM     19  N   UNL     1     -46.121  27.974   5.049  0.00  0.00    -0.314 N 
ATOM     20  N   UNL     1     -45.189  29.899   6.083  0.00  0.00    -0.148 NA
ATOM     21  C   UNL     1     -43.697  28.548   4.871  0.00  0.00    +0.173 A 
ATOM     22  C   UNL     1     -45.097  28.818   5.371  0.00  0.00    +0.173 A 
ATOM     23  C   UNL     1     -47.468  28.199   5.481  0.00  0.00    +0.110 C 
ATOM     24  H   UNL     1     -44.187  26.854   3.868  0.00  0.00    +0.148 HD
ATOM     25  H   UNL     1     -45.925  27.180   4.500  0.00  0.00    +0.148 HD
ENDBRANCH  14  17
ENDBRANCH   1  14
TORSDOF 7
ENDMDL
MODEL 6
REMARK VINA RESULT:      -5.3      4.119      6.967
REMARK  Name = 5486884
REMARK  7 active torsions:
REMARK  status: ('A' for Active; 'I' for Inactive)
REMARK    1  A    between atoms: C_1  and  S_2
REMARK    2  A    between atoms: C_1  and  C_14
REMARK    3  A    between atoms: S_2  and  C_3
REMARK    4  A    between atoms: C_3  and  C_6
REMARK    5  A    between atoms: C_5  and  C_9
REMARK    6  A    between atoms: C_9  and  N_10
REMARK    7  A    between atoms: C_14  and  N_17
REMARK                            x       y       z     vdW  Elec       q    Type
REMARK                         _______ _______ _______ _____ _____    ______ ____
ROOT
ATOM      1  C   UNL     1     -39.519  23.200   2.190  0.00  0.00    +0.079 C 
ENDROOT
BRANCH   1   2
ATOM      2  S   UNL     1     -37.812  23.225   1.605  0.00  0.00    -0.130 S 
BRANCH   2   3
ATOM      3  C   UNL     1     -37.115  22.037   2.808  0.00  0.00    +0.122 C 
BRANCH   3   6
ATOM      4  O   UNL     1     -36.712  24.014   4.113  0.00  0.00    -0.463 OA
ATOM      5  C   UNL     1     -35.936  24.402   5.140  0.00  0.00    +0.102 C 
ATOM      6  C   UNL     1     -36.394  22.710   3.898  0.00  0.00    +0.133 C 
ATOM      7  C   UNL     1     -35.135  23.415   5.599  0.00  0.00    +0.034 C 
ATOM      8  C   UNL     1     -35.431  22.294   4.786  0.00  0.00    +0.037 C 
BRANCH   5   9
ATOM      9  C   UNL     1     -36.116  25.834   5.563  0.00  0.00    -0.011 C 
BRANCH   9  10
ATOM     10  N   UNL     1     -34.969  26.649   5.164  0.00  0.00    +0.389 N 
ATOM     11  C   UNL     1     -33.795  26.309   5.966  0.00  0.00    -0.100 C 
ATOM     12  C   UNL     1     -34.685  26.470   3.740  0.00  0.00    -0.100 C 
ATOM     13  H   UNL     1     -35.198  27.630   5.326  0.00  0.00    -0.079 HD
ENDBRANCH   9  10
ENDBRANCH   5   9
ENDBRANCH   3   6
ENDBRANCH   2   3
ENDBRANCH   1   2
BRANCH   1  14
ATOM     14  C   UNL     1     -39.866  24.430   3.018  0.00  0.00    +0.100 C 
BRANCH  14  17
ATOM     15  S   UNL     1     -42.798  27.863   3.924  0.00  0.00    +0.270 S 
ATOM     16  O   UNL     1     -41.945  28.865   4.645  0.00  0.00    -0.208 OA
ATOM     17  N   UNL     1     -40.380  25.496   2.189  0.00  0.00    -0.314 N 
ATOM     18  N   UNL     1     -41.715  26.539   3.855  0.00  0.00    -0.148 NA
ATOM     19  N   UNL     1     -41.335  27.580   0.425  0.00  0.00    -0.314 N 
ATOM     20  N   UNL     1     -42.553  28.368   2.307  0.00  0.00    -0.148 NA
ATOM     21  C   UNL     1     -41.250  26.443   2.648  0.00  0.00    +0.173 A 
ATOM     22  C   UNL     1     -41.749  27.532   1.726  0.00  0.00    +0.173 A 
ATOM     23  C   UNL     1     -41.763  28.604  -0.480  0.00  0.00    +0.110 C 
ATOM     24  H   UNL     1     -40.090  25.540   1.249  0.00  0.00    +0.148 HD
ATOM     25  H   UNL     1     -40.720  26.884   0.099  0.00  0.00    +0.148 HD
ENDBRANCH  14  17
ENDBRANCH   1  14
TORSDOF 7
ENDMDL
MODEL 7
REMARK VINA RESULT:      -5.2      3.292      8.325
REMARK  Name = 5486884
REMARK  7 active torsions:
REMARK  status: ('A' for Active; 'I' for Inactive)
REMARK    1  A    between atoms: C_1  and  S_2
REMARK    2  A    between atoms: C_1  and  C_14
REMARK    3  A    between atoms: S_2  and  C_3
REMARK    4  A    between atoms: C_3  and  C_6
REMARK    5  A    between atoms: C_5  and  C_9
REMARK    6  A    between atoms: C_9  and  N_10
REMARK    7  A    between atoms: C_14  and  N_17
REMARK                            x       y       z     vdW  Elec       q    Type
REMARK                         _______ _______ _______ _____ _____    ______ ____
ROOT
ATOM      1  C   UNL     1     -34.035  20.790   0.773  0.00  0.00    +0.079 C 
ENDROOT
BRANCH   1   2
ATOM      2  S   UNL     1     -35.255  21.914   1.483  0.00  0.00    -0.130 S 
BRANCH   2   3
ATOM      3  C   UNL     1     -35.652  20.944   2.981  0.00  0.00    +0.122 C 
BRANCH   3   6
ATOM      4  O   UNL     1     -35.715  23.073   4.092  0.00  0.00    -0.463 OA
ATOM      5  C   UNL     1     -35.526  23.572   5.325  0.00  0.00    +0.102 C 
ATOM      6  C   UNL     1     -35.505  21.736   4.210  0.00  0.00    +0.133 C 
ATOM      7  C   UNL     1     -35.205  22.624   6.234  0.00  0.00    +0.034 C 
ATOM      8  C   UNL     1     -35.190  21.409   5.508  0.00  0.00    +0.037 C 
BRANCH   5   9
ATOM      9  C   UNL     1     -35.708  25.061   5.441  0.00  0.00    -0.011 C 
BRANCH   9  10
ATOM     10  N   UNL     1     -34.542  25.776   4.923  0.00  0.00    +0.389 N 
ATOM     11  C   UNL     1     -34.955  26.800   3.965  0.00  0.00    -0.100 C 
ATOM     12  C   UNL     1     -33.782  26.377   6.019  0.00  0.00    -0.100 C 
ATOM     13  H   UNL     1     -33.941  25.107   4.442  0.00  0.00    -0.079 HD
ENDBRANCH   9  10
ENDBRANCH   5   9
ENDBRANCH   3   6
ENDBRANCH   2   3
ENDBRANCH   1   2
BRANCH   1  14
ATOM     14  C   UNL     1     -34.026  19.433   1.464  0.00  0.00    +0.100 C 
BRANCH  14  17
ATOM     15  S   UNL     1     -32.769  15.431  -0.435  0.00  0.00    +0.270 S 
ATOM     16  O   UNL     1     -32.720  15.744  -1.901  0.00  0.00    -0.208 OA
ATOM     17  N   UNL     1     -32.738  18.790   1.347  0.00  0.00    -0.314 N 
ATOM     18  N   UNL     1     -33.479  16.872   0.158  0.00  0.00    -0.148 NA
ATOM     19  N   UNL     1     -30.102  17.609   1.180  0.00  0.00    -0.314 N 
ATOM     20  N   UNL     1     -31.166  15.835   0.012  0.00  0.00    -0.148 NA
ATOM     21  C   UNL     1     -32.559  17.586   0.729  0.00  0.00    +0.173 A 
ATOM     22  C   UNL     1     -31.182  16.969   0.642  0.00  0.00    +0.173 A 
ATOM     23  C   UNL     1     -28.775  17.076   1.105  0.00  0.00    +0.110 C 
ATOM     24  H   UNL     1     -31.952  19.241   1.733  0.00  0.00    +0.148 HD
ATOM     25  H   UNL     1     -30.242  18.470   1.638  0.00  0.00    +0.148 HD
ENDBRANCH  14  17
ENDBRANCH   1  14
TORSDOF 7
ENDMDL
MODEL 8
REMARK VINA RESULT:      -5.2      4.434      6.060
REMARK  Name = 5486884
REMARK  7 active torsions:
REMARK  status: ('A' for Active; 'I' for Inactive)
REMARK    1  A    between atoms: C_1  and  S_2
REMARK    2  A    between atoms: C_1  and  C_14
REMARK    3  A    between atoms: S_2  and  C_3
REMARK    4  A    between atoms: C_3  and  C_6
REMARK    5  A    between atoms: C_5  and  C_9
REMARK    6  A    between atoms: C_9  and  N_10
REMARK    7  A    between atoms: C_14  and  N_17
REMARK                            x       y       z     vdW  Elec       q    Type
REMARK                         _______ _______ _______ _____ _____    ______ ____
ROOT
ATOM      1  C   UNL     1     -35.263  26.723   3.216  0.00  0.00    +0.079 C 
ENDROOT
BRANCH   1   2
ATOM      2  S   UNL     1     -36.659  25.748   3.817  0.00  0.00    -0.130 S 
BRANCH   2   3
ATOM      3  C   UNL     1     -35.853  25.039   5.297  0.00  0.00    +0.122 C 
BRANCH   3   6
ATOM      4  O   UNL     1     -35.652  23.088   3.909  0.00  0.00    -0.463 OA
ATOM      5  C   UNL     1     -35.439  21.769   4.050  0.00  0.00    +0.102 C 
ATOM      6  C   UNL     1     -35.639  23.591   5.172  0.00  0.00    +0.133 C 
ATOM      7  C   UNL     1     -35.287  21.394   5.340  0.00  0.00    +0.034 C 
ATOM      8  C   UNL     1     -35.417  22.589   6.088  0.00  0.00    +0.037 C 
BRANCH   5   9
ATOM      9  C   UNL     1     -35.411  20.990   2.763  0.00  0.00    -0.011 C 
BRANCH   9  10
ATOM     10  N   UNL     1     -36.747  20.511   2.409  0.00  0.00    +0.389 N 
ATOM     11  C   UNL     1     -37.651  21.637   2.184  0.00  0.00    -0.100 C 
ATOM     12  C   UNL     1     -36.685  19.658   1.222  0.00  0.00    -0.100 C 
ATOM     13  H   UNL     1     -37.107  19.957   3.186  0.00  0.00    -0.079 HD
ENDBRANCH   9  10
ENDBRANCH   5   9
ENDBRANCH   3   6
ENDBRANCH   2   3
ENDBRANCH   1   2
BRANCH   1  14
ATOM     14  C   UNL     1     -34.177  26.891   4.272  0.00  0.00    +0.100 C 
BRANCH  14  17
ATOM     15  S   UNL     1     -30.322  28.511   6.198  0.00  0.00    +0.270 S 
ATOM     16  O   UNL     1     -29.234  27.843   5.410  0.00  0.00    -0.208 OA
ATOM     17  N   UNL     1     -33.485  28.150   4.119  0.00  0.00    -0.314 N 
ATOM     18  N   UNL     1     -31.689  27.672   5.598  0.00  0.00    -0.148 NA
ATOM     19  N   UNL     1     -32.195  30.709   3.724  0.00  0.00    -0.314 N 
ATOM     20  N   UNL     1     -30.557  29.919   5.252  0.00  0.00    -0.148 NA
ATOM     21  C   UNL     1     -32.328  28.449   4.779  0.00  0.00    +0.173 A 
ATOM     22  C   UNL     1     -31.654  29.786   4.573  0.00  0.00    +0.173 A 
ATOM     23  C   UNL     1     -31.583  31.981   3.480  0.00  0.00    +0.110 C 
ATOM     24  H   UNL     1     -33.866  28.824   3.510  0.00  0.00    +0.148 HD
ATOM     25  H   UNL     1     -33.038  30.491   3.263  0.00  0.00    +0.148 HD
ENDBRANCH  14  17
ENDBRANCH   1  14
TORSDOF 7
ENDMDL
MODEL 9
REMARK VINA RESULT:      -5.2      5.646     10.088
REMARK  Name = 5486884
REMARK  7 active torsions:
REMARK  status: ('A' for Active; 'I' for Inactive)
REMARK    1  A    between atoms: C_1  and  S_2
REMARK    2  A    between atoms: C_1  and  C_14
REMARK    3  A    between atoms: S_2  and  C_3
REMARK    4  A    between atoms: C_3  and  C_6
REMARK    5  A    between atoms: C_5  and  C_9
REMARK    6  A    between atoms: C_9  and  N_10
REMARK    7  A    between atoms: C_14  and  N_17
REMARK                            x       y       z     vdW  Elec       q    Type
REMARK                         _______ _______ _______ _____ _____    ______ ____
ROOT
ATOM      1  C   UNL     1     -39.839  25.777   2.139  0.00  0.00    +0.079 C 
ENDROOT
BRANCH   1   2
ATOM      2  S   UNL     1     -41.523  26.425   2.110  0.00  0.00    -0.130 S 
BRANCH   2   3
ATOM      3  C   UNL     1     -41.588  27.039   3.831  0.00  0.00    +0.122 C 
BRANCH   3   6
ATOM      4  O   UNL     1     -42.519  28.911   5.015  0.00  0.00    -0.463 OA
ATOM      5  C   UNL     1     -43.648  29.639   5.021  0.00  0.00    +0.102 C 
ATOM      6  C   UNL     1     -42.698  27.978   4.044  0.00  0.00    +0.133 C 
ATOM      7  C   UNL     1     -44.548  29.224   4.101  0.00  0.00    +0.034 C 
ATOM      8  C   UNL     1     -43.929  28.129   3.451  0.00  0.00    +0.037 C 
BRANCH   5   9
ATOM      9  C   UNL     1     -43.681  30.751   6.033  0.00  0.00    -0.011 C 
BRANCH   9  10
ATOM     10  N   UNL     1     -44.574  30.426   7.145  0.00  0.00    +0.389 N 
ATOM     11  C   UNL     1     -43.839  30.426   8.408  0.00  0.00    -0.100 C 
ATOM     12  C   UNL     1     -45.687  31.373   7.200  0.00  0.00    -0.100 C 
ATOM     13  H   UNL     1     -44.953  29.491   6.991  0.00  0.00    -0.079 HD
ENDBRANCH   9  10
ENDBRANCH   5   9
ENDBRANCH   3   6
ENDBRANCH   2   3
ENDBRANCH   1   2
BRANCH   1  14
ATOM     14  C   UNL     1     -39.598  24.843   3.318  0.00  0.00    +0.100 C 
BRANCH  14  17
ATOM     15  S   UNL     1     -35.810  22.235   3.543  0.00  0.00    +0.270 S 
ATOM     16  O   UNL     1     -35.186  22.414   2.191  0.00  0.00    -0.208 OA
ATOM     17  N   UNL     1     -38.307  25.078   3.922  0.00  0.00    -0.314 N 
ATOM     18  N   UNL     1     -37.313  23.016   3.288  0.00  0.00    -0.148 NA
ATOM     19  N   UNL     1     -35.766  25.672   5.171  0.00  0.00    -0.314 N 
ATOM     20  N   UNL     1     -35.083  23.537   4.386  0.00  0.00    -0.148 NA
ATOM     21  C   UNL     1     -37.286  24.173   3.875  0.00  0.00    +0.173 A 
ATOM     22  C   UNL     1     -35.959  24.483   4.528  0.00  0.00    +0.173 A 
ATOM     23  C   UNL     1     -34.520  26.020   5.786  0.00  0.00    +0.110 C 
ATOM     24  H   UNL     1     -38.156  25.932   4.389  0.00  0.00    +0.148 HD
ATOM     25  H   UNL     1     -36.513  26.314   5.213  0.00  0.00    +0.148 HD
ENDBRANCH  14  17
ENDBRANCH   1  14
TORSDOF 7
ENDMDL
