MODEL 1
REMARK VINA RESULT:      -6.1      0.000      0.000
REMARK  Name = 192173
REMARK  12 active torsions:
REMARK  status: ('A' for Active; 'I' for Inactive)
REMARK    1  A    between atoms: C_2  and  O_6
REMARK    2  A    between atoms: C_2  and  N_10
REMARK    3  A    between atoms: C_3  and  O_8
REMARK    4  A    between atoms: C_4  and  C_23
REMARK    5  A    between atoms: N_10  and  N_12
REMARK    6  A    between atoms: N_12  and  C_14
REMARK    7  A    between atoms: C_19  and  O_20
REMARK    8  A    between atoms: O_20  and  C_21
REMARK    9  A    between atoms: C_23  and  O_24
REMARK   10  A    between atoms: C_23  and  C_27
REMARK   11  A    between atoms: C_27  and  O_28
REMARK   12  A    between atoms: O_28  and  C_29
REMARK                            x       y       z     vdW  Elec       q    Type
REMARK                         _______ _______ _______ _____ _____    ______ ____
ROOT
ATOM      1  O   UNL     1     -38.297  21.807   2.028  0.00  0.00    -0.346 OA
ATOM      2  C   UNL     1     -37.648  23.897   2.967  0.00  0.00    +0.203 C 
ATOM      3  C   UNL     1     -36.538  22.878   3.200  0.00  0.00    +0.183 C 
ATOM      4  C   UNL     1     -36.860  21.841   2.125  0.00  0.00    +0.184 C 
ATOM      5  C   UNL     1     -38.834  23.008   2.619  0.00  0.00    +0.188 C 
ENDROOT
BRANCH   2   6
ATOM      6  O   UNL     1     -37.325  24.668   1.808  0.00  0.00    -0.368 OA
ATOM      7  H   UNL     1     -37.857  24.364   1.058  0.00  0.00    +0.212 HD
ENDBRANCH   2   6
BRANCH   3   8
ATOM      8  O   UNL     1     -36.621  22.301   4.500  0.00  0.00    -0.378 OA
ATOM      9  H   UNL     1     -36.802  22.997   5.151  0.00  0.00    +0.211 HD
ENDBRANCH   3   8
BRANCH   2  10
ATOM     10  N   UNL     1     -37.911  24.760   4.104  0.00  0.00    -0.207 NA
ATOM     11  H   UNL     1     -38.919  24.878   4.221  0.00  0.00    +0.147 HD
BRANCH  10  12
ATOM     12  N   UNL     1     -37.320  25.991   3.869  0.00  0.00    -0.277 N 
ATOM     13  H   UNL     1     -37.829  26.679   3.383  0.00  0.00    +0.166 HD
BRANCH  12  14
ATOM     14  C   UNL     1     -36.017  26.284   4.303  0.00  0.00    +0.058 C 
ATOM     15  C   UNL     1     -35.157  27.016   3.484  0.00  0.00    +0.019 C 
ATOM     16  C   UNL     1     -35.585  25.846   5.554  0.00  0.00    +0.019 C 
ATOM     17  C   UNL     1     -33.864  27.308   3.917  0.00  0.00    +0.038 C 
ATOM     18  C   UNL     1     -34.291  26.137   5.986  0.00  0.00    +0.038 C 
ATOM     19  C   UNL     1     -33.430  26.869   5.168  0.00  0.00    +0.139 C 
BRANCH  19  20
ATOM     20  O   UNL     1     -32.168  27.153   5.590  0.00  0.00    -0.475 OA
BRANCH  20  21
ATOM     21  C   UNL     1     -31.719  28.499   5.434  0.00  0.00    +0.206 C 
ATOM     22  C   UNL     1     -31.804  29.205   6.770  0.00  0.00    +0.051 C 
ENDBRANCH  20  21
ENDBRANCH  19  20
ENDBRANCH  12  14
ENDBRANCH  10  12
ENDBRANCH   2  10
BRANCH   4  23
ATOM     23  C   UNL     1     -36.339  20.439   2.387  0.00  0.00    +0.240 C 
BRANCH  23  24
ATOM     24  O   UNL     1     -35.154  20.546   3.159  0.00  0.00    -0.373 OA
ATOM     25  H   UNL     1     -34.389  20.637   2.569  0.00  0.00    +0.211 HD
ENDBRANCH  23  24
BRANCH  23  27
ATOM     26  O   UNL     1     -36.841  19.188   0.367  0.00  0.00    -0.247 OA
ATOM     27  C   UNL     1     -36.012  19.719   1.095  0.00  0.00    +0.347 C 
BRANCH  27  28
ATOM     28  O   UNL     1     -34.668  19.781   0.862  0.00  0.00    -0.447 OA
BRANCH  28  29
ATOM     29  C   UNL     1     -34.067  18.571   0.389  0.00  0.00    +0.209 C 
ATOM     30  C   UNL     1     -32.929  18.192   1.311  0.00  0.00    +0.051 C 
ENDBRANCH  28  29
ENDBRANCH  27  28
ENDBRANCH  23  27
ENDBRANCH   4  23
TORSDOF 12
ENDMDL
MODEL 2
REMARK VINA RESULT:      -5.9      2.628      7.531
REMARK  Name = 192173
REMARK  12 active torsions:
REMARK  status: ('A' for Active; 'I' for Inactive)
REMARK    1  A    between atoms: C_2  and  O_6
REMARK    2  A    between atoms: C_2  and  N_10
REMARK    3  A    between atoms: C_3  and  O_8
REMARK    4  A    between atoms: C_4  and  C_23
REMARK    5  A    between atoms: N_10  and  N_12
REMARK    6  A    between atoms: N_12  and  C_14
REMARK    7  A    between atoms: C_19  and  O_20
REMARK    8  A    between atoms: O_20  and  C_21
REMARK    9  A    between atoms: C_23  and  O_24
REMARK   10  A    between atoms: C_23  and  C_27
REMARK   11  A    between atoms: C_27  and  O_28
REMARK   12  A    between atoms: O_28  and  C_29
REMARK                            x       y       z     vdW  Elec       q    Type
REMARK                         _______ _______ _______ _____ _____    ______ ____
ROOT
ATOM      1  O   UNL     1     -35.642  24.541   3.120  0.00  0.00    -0.346 OA
ATOM      2  C   UNL     1     -36.119  22.225   3.397  0.00  0.00    +0.203 C 
ATOM      3  C   UNL     1     -36.010  22.881   4.769  0.00  0.00    +0.183 C 
ATOM      4  C   UNL     1     -36.246  24.348   4.414  0.00  0.00    +0.184 C 
ATOM      5  C   UNL     1     -35.456  23.256   2.493  0.00  0.00    +0.188 C 
ENDROOT
BRANCH   2   6
ATOM      6  O   UNL     1     -37.499  22.149   3.034  0.00  0.00    -0.368 OA
ATOM      7  H   UNL     1     -37.973  22.909   3.403  0.00  0.00    +0.212 HD
ENDBRANCH   2   6
BRANCH   3   8
ATOM      8  O   UNL     1     -34.716  22.699   5.336  0.00  0.00    -0.378 OA
ATOM      9  H   UNL     1     -34.186  22.129   4.756  0.00  0.00    +0.211 HD
ENDBRANCH   3   8
BRANCH   2  10
ATOM     10  N   UNL     1     -35.489  20.920   3.310  0.00  0.00    -0.207 NA
ATOM     11  H   UNL     1     -34.558  20.957   3.728  0.00  0.00    +0.147 HD
BRANCH  10  12
ATOM     12  N   UNL     1     -35.387  20.569   1.973  0.00  0.00    -0.277 N 
ATOM     13  H   UNL     1     -36.192  20.606   1.407  0.00  0.00    +0.166 HD
BRANCH  12  14
ATOM     14  C   UNL     1     -34.170  20.163   1.402  0.00  0.00    +0.058 C 
ATOM     15  C   UNL     1     -33.629  18.918   1.724  0.00  0.00    +0.019 C 
ATOM     16  C   UNL     1     -33.503  21.005   0.512  0.00  0.00    +0.019 C 
ATOM     17  C   UNL     1     -32.420  18.516   1.156  0.00  0.00    +0.038 C 
ATOM     18  C   UNL     1     -32.294  20.602  -0.056  0.00  0.00    +0.038 C 
ATOM     19  C   UNL     1     -31.752  19.357   0.266  0.00  0.00    +0.139 C 
BRANCH  19  20
ATOM     20  O   UNL     1     -30.574  18.965  -0.288  0.00  0.00    -0.475 OA
BRANCH  20  21
ATOM     21  C   UNL     1     -30.011  17.741   0.182  0.00  0.00    +0.206 C 
ATOM     22  C   UNL     1     -28.673  18.030   0.830  0.00  0.00    +0.051 C 
ENDBRANCH  20  21
ENDBRANCH  19  20
ENDBRANCH  12  14
ENDBRANCH  10  12
ENDBRANCH   2  10
BRANCH   4  23
ATOM     23  C   UNL     1     -35.677  25.361   5.392  0.00  0.00    +0.240 C 
BRANCH  23  24
ATOM     24  O   UNL     1     -36.601  26.431   5.506  0.00  0.00    -0.373 OA
ATOM     25  H   UNL     1     -36.120  27.272   5.542  0.00  0.00    +0.211 HD
ENDBRANCH  23  24
BRANCH  23  27
ATOM     26  O   UNL     1     -33.329  25.253   4.781  0.00  0.00    -0.247 OA
ATOM     27  C   UNL     1     -34.352  25.914   4.908  0.00  0.00    +0.347 C 
BRANCH  27  28
ATOM     28  O   UNL     1     -34.488  27.240   4.615  0.00  0.00    -0.447 OA
BRANCH  28  29
ATOM     29  C   UNL     1     -34.012  27.639   3.326  0.00  0.00    +0.209 C 
ATOM     30  C   UNL     1     -35.187  28.090   2.484  0.00  0.00    +0.051 C 
ENDBRANCH  28  29
ENDBRANCH  27  28
ENDBRANCH  23  27
ENDBRANCH   4  23
TORSDOF 12
ENDMDL
MODEL 3
REMARK VINA RESULT:      -5.9      3.329      7.266
REMARK  Name = 192173
REMARK  12 active torsions:
REMARK  status: ('A' for Active; 'I' for Inactive)
REMARK    1  A    between atoms: C_2  and  O_6
REMARK    2  A    between atoms: C_2  and  N_10
REMARK    3  A    between atoms: C_3  and  O_8
REMARK    4  A    between atoms: C_4  and  C_23
REMARK    5  A    between atoms: N_10  and  N_12
REMARK    6  A    between atoms: N_12  and  C_14
REMARK    7  A    between atoms: C_19  and  O_20
REMARK    8  A    between atoms: O_20  and  C_21
REMARK    9  A    between atoms: C_23  and  O_24
REMARK   10  A    between atoms: C_23  and  C_27
REMARK   11  A    between atoms: C_27  and  O_28
REMARK   12  A    between atoms: O_28  and  C_29
REMARK                            x       y       z     vdW  Elec       q    Type
REMARK                         _______ _______ _______ _____ _____    ______ ____
ROOT
ATOM      1  O   UNL     1     -38.154  22.110   1.596  0.00  0.00    -0.346 OA
ATOM      2  C   UNL     1     -36.427  20.474   1.703  0.00  0.00    +0.203 C 
ATOM      3  C   UNL     1     -35.949  21.752   2.382  0.00  0.00    +0.183 C 
ATOM      4  C   UNL     1     -37.278  22.437   2.693  0.00  0.00    +0.184 C 
ATOM      5  C   UNL     1     -37.623  20.966   0.898  0.00  0.00    +0.188 C 
ENDROOT
BRANCH   2   6
ATOM      6  O   UNL     1     -36.912  19.577   2.703  0.00  0.00    -0.368 OA
ATOM      7  H   UNL     1     -37.122  20.074   3.508  0.00  0.00    +0.212 HD
ENDBRANCH   2   6
BRANCH   3   8
ATOM      8  O   UNL     1     -35.161  22.550   1.503  0.00  0.00    -0.378 OA
ATOM      9  H   UNL     1     -34.636  23.180   2.022  0.00  0.00    +0.211 HD
ENDBRANCH   3   8
BRANCH   2  10
ATOM     10  N   UNL     1     -35.424  19.830   0.874  0.00  0.00    -0.207 NA
ATOM     11  H   UNL     1     -35.803  18.967   0.482  0.00  0.00    +0.147 HD
BRANCH  10  12
ATOM     12  N   UNL     1     -34.321  19.540   1.663  0.00  0.00    -0.277 N 
ATOM     13  H   UNL     1     -34.430  19.511   2.641  0.00  0.00    +0.166 HD
BRANCH  12  14
ATOM     14  C   UNL     1     -33.056  19.288   1.109  0.00  0.00    +0.058 C 
ATOM     15  C   UNL     1     -32.416  20.273   0.356  0.00  0.00    +0.019 C 
ATOM     16  C   UNL     1     -32.440  18.054   1.313  0.00  0.00    +0.019 C 
ATOM     17  C   UNL     1     -31.159  20.022  -0.194  0.00  0.00    +0.038 C 
ATOM     18  C   UNL     1     -31.183  17.803   0.763  0.00  0.00    +0.038 C 
ATOM     19  C   UNL     1     -30.542  18.787   0.009  0.00  0.00    +0.139 C 
BRANCH  19  20
ATOM     20  O   UNL     1     -29.316  18.543  -0.527  0.00  0.00    -0.475 OA
BRANCH  20  21
ATOM     21  C   UNL     1     -28.182  18.800   0.300  0.00  0.00    +0.206 C 
ATOM     22  C   UNL     1     -27.398  19.956  -0.284  0.00  0.00    +0.051 C 
ENDBRANCH  20  21
ENDBRANCH  19  20
ENDBRANCH  12  14
ENDBRANCH  10  12
ENDBRANCH   2  10
BRANCH   4  23
ATOM     23  C   UNL     1     -37.219  23.945   2.857  0.00  0.00    +0.240 C 
BRANCH  23  24
ATOM     24  O   UNL     1     -36.989  24.519   1.580  0.00  0.00    -0.373 OA
ATOM     25  H   UNL     1     -36.942  25.484   1.662  0.00  0.00    +0.211 HD
ENDBRANCH  23  24
BRANCH  23  27
ATOM     26  O   UNL     1     -35.119  25.015   3.441  0.00  0.00    -0.247 OA
ATOM     27  C   UNL     1     -36.093  24.357   3.783  0.00  0.00    +0.347 C 
BRANCH  27  28
ATOM     28  O   UNL     1     -36.349  23.908   5.047  0.00  0.00    -0.447 OA
BRANCH  28  29
ATOM     29  C   UNL     1     -35.206  23.472   5.790  0.00  0.00    +0.209 C 
ATOM     30  C   UNL     1     -35.444  22.057   6.275  0.00  0.00    +0.051 C 
ENDBRANCH  28  29
ENDBRANCH  27  28
ENDBRANCH  23  27
ENDBRANCH   4  23
TORSDOF 12
ENDMDL
MODEL 4
REMARK VINA RESULT:      -5.7      2.151      7.825
REMARK  Name = 192173
REMARK  12 active torsions:
REMARK  status: ('A' for Active; 'I' for Inactive)
REMARK    1  A    between atoms: C_2  and  O_6
REMARK    2  A    between atoms: C_2  and  N_10
REMARK    3  A    between atoms: C_3  and  O_8
REMARK    4  A    between atoms: C_4  and  C_23
REMARK    5  A    between atoms: N_10  and  N_12
REMARK    6  A    between atoms: N_12  and  C_14
REMARK    7  A    between atoms: C_19  and  O_20
REMARK    8  A    between atoms: O_20  and  C_21
REMARK    9  A    between atoms: C_23  and  O_24
REMARK   10  A    between atoms: C_23  and  C_27
REMARK   11  A    between atoms: C_27  and  O_28
REMARK   12  A    between atoms: O_28  and  C_29
REMARK                            x       y       z     vdW  Elec       q    Type
REMARK                         _______ _______ _______ _____ _____    ______ ____
ROOT
ATOM      1  O   UNL     1     -35.072  27.066   3.116  0.00  0.00    -0.346 OA
ATOM      2  C   UNL     1     -35.897  25.680   4.867  0.00  0.00    +0.203 C 
ATOM      3  C   UNL     1     -34.420  25.968   5.110  0.00  0.00    +0.183 C 
ATOM      4  C   UNL     1     -34.222  27.227   4.268  0.00  0.00    +0.184 C 
ATOM      5  C   UNL     1     -36.062  26.056   3.401  0.00  0.00    +0.188 C 
ENDROOT
BRANCH   2   6
ATOM      6  O   UNL     1     -36.676  26.593   5.643  0.00  0.00    -0.368 OA
ATOM      7  H   UNL     1     -36.112  27.013   6.310  0.00  0.00    +0.212 HD
ENDBRANCH   2   6
BRANCH   3   8
ATOM      8  O   UNL     1     -33.594  24.908   4.638  0.00  0.00    -0.378 OA
ATOM      9  H   UNL     1     -33.238  24.414   5.393  0.00  0.00    +0.211 HD
ENDBRANCH   3   8
BRANCH   2  10
ATOM     10  N   UNL     1     -36.288  24.308   5.138  0.00  0.00    -0.207 NA
ATOM     11  H   UNL     1     -35.456  23.722   5.217  0.00  0.00    +0.147 HD
BRANCH  10  12
ATOM     12  N   UNL     1     -37.077  23.861   4.090  0.00  0.00    -0.277 N 
ATOM     13  H   UNL     1     -37.896  24.358   3.864  0.00  0.00    +0.166 HD
BRANCH  12  14
ATOM     14  C   UNL     1     -36.744  22.719   3.344  0.00  0.00    +0.058 C 
ATOM     15  C   UNL     1     -37.537  22.337   2.262  0.00  0.00    +0.019 C 
ATOM     16  C   UNL     1     -35.618  21.969   3.684  0.00  0.00    +0.019 C 
ATOM     17  C   UNL     1     -37.204  21.203   1.520  0.00  0.00    +0.038 C 
ATOM     18  C   UNL     1     -35.286  20.835   2.943  0.00  0.00    +0.038 C 
ATOM     19  C   UNL     1     -36.079  20.452   1.860  0.00  0.00    +0.139 C 
BRANCH  19  20
ATOM     20  O   UNL     1     -35.754  19.347   1.137  0.00  0.00    -0.475 OA
BRANCH  20  21
ATOM     21  C   UNL     1     -34.541  19.394   0.388  0.00  0.00    +0.206 C 
ATOM     22  C   UNL     1     -33.473  18.620   1.130  0.00  0.00    +0.051 C 
ENDBRANCH  20  21
ENDBRANCH  19  20
ENDBRANCH  12  14
ENDBRANCH  10  12
ENDBRANCH   2  10
BRANCH   4  23
ATOM     23  C   UNL     1     -32.799  27.496   3.811  0.00  0.00    +0.240 C 
BRANCH  23  24
ATOM     24  O   UNL     1     -31.942  27.356   4.933  0.00  0.00    -0.373 OA
ATOM     25  H   UNL     1     -31.276  28.061   4.921  0.00  0.00    +0.211 HD
ENDBRANCH  23  24
BRANCH  23  27
ATOM     26  O   UNL     1     -32.063  29.178   2.222  0.00  0.00    -0.247 OA
ATOM     27  C   UNL     1     -32.651  28.899   3.259  0.00  0.00    +0.347 C 
BRANCH  27  28
ATOM     28  O   UNL     1     -33.291  29.784   4.076  0.00  0.00    -0.447 OA
BRANCH  28  29
ATOM     29  C   UNL     1     -33.778  30.971   3.440  0.00  0.00    +0.209 C 
ATOM     30  C   UNL     1     -35.233  30.771   3.071  0.00  0.00    +0.051 C 
ENDBRANCH  28  29
ENDBRANCH  27  28
ENDBRANCH  23  27
ENDBRANCH   4  23
TORSDOF 12
ENDMDL
MODEL 5
REMARK VINA RESULT:      -5.7      2.496      8.038
REMARK  Name = 192173
REMARK  12 active torsions:
REMARK  status: ('A' for Active; 'I' for Inactive)
REMARK    1  A    between atoms: C_2  and  O_6
REMARK    2  A    between atoms: C_2  and  N_10
REMARK    3  A    between atoms: C_3  and  O_8
REMARK    4  A    between atoms: C_4  and  C_23
REMARK    5  A    between atoms: N_10  and  N_12
REMARK    6  A    between atoms: N_12  and  C_14
REMARK    7  A    between atoms: C_19  and  O_20
REMARK    8  A    between atoms: O_20  and  C_21
REMARK    9  A    between atoms: C_23  and  O_24
REMARK   10  A    between atoms: C_23  and  C_27
REMARK   11  A    between atoms: C_27  and  O_28
REMARK   12  A    between atoms: O_28  and  C_29
REMARK                            x       y       z     vdW  Elec       q    Type
REMARK                         _______ _______ _______ _____ _____    ______ ____
ROOT
ATOM      1  O   UNL     1     -35.627  24.691   3.198  0.00  0.00    -0.346 OA
ATOM      2  C   UNL     1     -36.254  22.431   3.606  0.00  0.00    +0.203 C 
ATOM      3  C   UNL     1     -36.087  23.152   4.938  0.00  0.00    +0.183 C 
ATOM      4  C   UNL     1     -36.229  24.610   4.505  0.00  0.00    +0.184 C 
ATOM      5  C   UNL     1     -35.534  23.364   2.642  0.00  0.00    +0.188 C 
ENDROOT
BRANCH   2   6
ATOM      6  O   UNL     1     -37.640  22.428   3.257  0.00  0.00    -0.368 OA
ATOM      7  H   UNL     1     -38.176  22.486   4.062  0.00  0.00    +0.212 HD
ENDBRANCH   2   6
BRANCH   3   8
ATOM      8  O   UNL     1     -34.802  22.915   5.506  0.00  0.00    -0.378 OA
ATOM      9  H   UNL     1     -34.872  22.912   6.473  0.00  0.00    +0.211 HD
ENDBRANCH   3   8
BRANCH   2  10
ATOM     10  N   UNL     1     -35.714  21.083   3.587  0.00  0.00    -0.207 NA
ATOM     11  H   UNL     1     -34.699  21.121   3.484  0.00  0.00    +0.147 HD
BRANCH  10  12
ATOM     12  N   UNL     1     -36.268  20.403   2.514  0.00  0.00    -0.277 N 
ATOM     13  H   UNL     1     -37.247  20.369   2.425  0.00  0.00    +0.166 HD
BRANCH  12  14
ATOM     14  C   UNL     1     -35.472  19.760   1.551  0.00  0.00    +0.058 C 
ATOM     15  C   UNL     1     -36.058  19.242   0.396  0.00  0.00    +0.019 C 
ATOM     16  C   UNL     1     -34.097  19.643   1.750  0.00  0.00    +0.019 C 
ATOM     17  C   UNL     1     -35.266  18.605  -0.560  0.00  0.00    +0.038 C 
ATOM     18  C   UNL     1     -33.306  19.005   0.794  0.00  0.00    +0.038 C 
ATOM     19  C   UNL     1     -33.891  18.486  -0.362  0.00  0.00    +0.139 C 
BRANCH  19  20
ATOM     20  O   UNL     1     -33.119  17.864  -1.294  0.00  0.00    -0.475 OA
BRANCH  20  21
ATOM     21  C   UNL     1     -33.380  16.483  -1.537  0.00  0.00    +0.206 C 
ATOM     22  C   UNL     1     -32.981  15.684  -0.314  0.00  0.00    +0.051 C 
ENDBRANCH  20  21
ENDBRANCH  19  20
ENDBRANCH  12  14
ENDBRANCH  10  12
ENDBRANCH   2  10
BRANCH   4  23
ATOM     23  C   UNL     1     -35.583  25.634   5.422  0.00  0.00    +0.240 C 
BRANCH  23  24
ATOM     24  O   UNL     1     -36.465  26.739   5.538  0.00  0.00    -0.373 OA
ATOM     25  H   UNL     1     -37.093  26.732   4.798  0.00  0.00    +0.211 HD
ENDBRANCH  23  24
BRANCH  23  27
ATOM     26  O   UNL     1     -33.264  25.429   4.732  0.00  0.00    -0.247 OA
ATOM     27  C   UNL     1     -34.263  26.124   4.862  0.00  0.00    +0.347 C 
BRANCH  27  28
ATOM     28  O   UNL     1     -34.375  27.437   4.505  0.00  0.00    -0.447 OA
BRANCH  28  29
ATOM     29  C   UNL     1     -33.924  27.759   3.185  0.00  0.00    +0.209 C 
ATOM     30  C   UNL     1     -35.104  28.230   2.362  0.00  0.00    +0.051 C 
ENDBRANCH  28  29
ENDBRANCH  27  28
ENDBRANCH  23  27
ENDBRANCH   4  23
TORSDOF 12
ENDMDL
MODEL 6
REMARK VINA RESULT:      -5.7      1.529      2.173
REMARK  Name = 192173
REMARK  12 active torsions:
REMARK  status: ('A' for Active; 'I' for Inactive)
REMARK    1  A    between atoms: C_2  and  O_6
REMARK    2  A    between atoms: C_2  and  N_10
REMARK    3  A    between atoms: C_3  and  O_8
REMARK    4  A    between atoms: C_4  and  C_23
REMARK    5  A    between atoms: N_10  and  N_12
REMARK    6  A    between atoms: N_12  and  C_14
REMARK    7  A    between atoms: C_19  and  O_20
REMARK    8  A    between atoms: O_20  and  C_21
REMARK    9  A    between atoms: C_23  and  O_24
REMARK   10  A    between atoms: C_23  and  C_27
REMARK   11  A    between atoms: C_27  and  O_28
REMARK   12  A    between atoms: O_28  and  C_29
REMARK                            x       y       z     vdW  Elec       q    Type
REMARK                         _______ _______ _______ _____ _____    ______ ____
ROOT
ATOM      1  O   UNL     1     -38.353  20.946   0.657  0.00  0.00    -0.346 OA
ATOM      2  C   UNL     1     -37.276  22.402   2.204  0.00  0.00    +0.203 C 
ATOM      3  C   UNL     1     -36.301  21.307   1.785  0.00  0.00    +0.183 C 
ATOM      4  C   UNL     1     -36.927  20.841   0.472  0.00  0.00    +0.184 C 
ATOM      5  C   UNL     1     -38.617  21.822   1.772  0.00  0.00    +0.188 C 
ENDROOT
BRANCH   2   6
ATOM      6  O   UNL     1     -37.027  23.565   1.411  0.00  0.00    -0.368 OA
ATOM      7  H   UNL     1     -37.066  23.330   0.472  0.00  0.00    +0.212 HD
ENDBRANCH   2   6
BRANCH   3   8
ATOM      8  O   UNL     1     -36.266  20.246   2.735  0.00  0.00    -0.378 OA
ATOM      9  H   UNL     1     -36.362  19.397   2.275  0.00  0.00    +0.211 HD
ENDBRANCH   3   8
BRANCH   2  10
ATOM     10  N   UNL     1     -37.238  22.723   3.619  0.00  0.00    -0.207 NA
ATOM     11  H   UNL     1     -37.647  23.646   3.774  0.00  0.00    +0.147 HD
BRANCH  10  12
ATOM     12  N   UNL     1     -35.915  22.723   4.034  0.00  0.00    -0.277 N 
ATOM     13  H   UNL     1     -35.441  21.865   4.115  0.00  0.00    +0.166 HD
BRANCH  12  14
ATOM     14  C   UNL     1     -35.234  23.911   4.343  0.00  0.00    +0.058 C 
ATOM     15  C   UNL     1     -35.329  24.458   5.623  0.00  0.00    +0.019 C 
ATOM     16  C   UNL     1     -34.460  24.544   3.370  0.00  0.00    +0.019 C 
ATOM     17  C   UNL     1     -34.650  25.638   5.929  0.00  0.00    +0.038 C 
ATOM     18  C   UNL     1     -33.783  25.724   3.676  0.00  0.00    +0.038 C 
ATOM     19  C   UNL     1     -33.877  26.271   4.956  0.00  0.00    +0.139 C 
BRANCH  19  20
ATOM     20  O   UNL     1     -33.216  27.422   5.255  0.00  0.00    -0.475 OA
BRANCH  20  21
ATOM     21  C   UNL     1     -32.541  27.476   6.511  0.00  0.00    +0.206 C 
ATOM     22  C   UNL     1     -31.829  28.806   6.631  0.00  0.00    +0.051 C 
ENDBRANCH  20  21
ENDBRANCH  19  20
ENDBRANCH  12  14
ENDBRANCH  10  12
ENDBRANCH   2  10
BRANCH   4  23
ATOM     23  C   UNL     1     -36.578  19.426   0.043  0.00  0.00    +0.240 C 
BRANCH  23  24
ATOM     24  O   UNL     1     -37.000  18.539   1.067  0.00  0.00    -0.373 OA
ATOM     25  H   UNL     1     -37.969  18.513   1.095  0.00  0.00    +0.211 HD
ENDBRANCH  23  24
BRANCH  23  27
ATOM     26  O   UNL     1     -34.465  19.681  -1.125  0.00  0.00    -0.247 OA
ATOM     27  C   UNL     1     -35.086  19.261  -0.157  0.00  0.00    +0.347 C 
BRANCH  27  28
ATOM     28  O   UNL     1     -34.549  18.603   0.912  0.00  0.00    -0.447 OA
BRANCH  28  29
ATOM     29  C   UNL     1     -33.531  17.646   0.599  0.00  0.00    +0.209 C 
ATOM     30  C   UNL     1     -32.203  18.150   1.122  0.00  0.00    +0.051 C 
ENDBRANCH  28  29
ENDBRANCH  27  28
ENDBRANCH  23  27
ENDBRANCH   4  23
TORSDOF 12
ENDMDL
MODEL 7
REMARK VINA RESULT:      -5.7      2.059      8.152
REMARK  Name = 192173
REMARK  12 active torsions:
REMARK  status: ('A' for Active; 'I' for Inactive)
REMARK    1  A    between atoms: C_2  and  O_6
REMARK    2  A    between atoms: C_2  and  N_10
REMARK    3  A    between atoms: C_3  and  O_8
REMARK    4  A    between atoms: C_4  and  C_23
REMARK    5  A    between atoms: N_10  and  N_12
REMARK    6  A    between atoms: N_12  and  C_14
REMARK    7  A    between atoms: C_19  and  O_20
REMARK    8  A    between atoms: O_20  and  C_21
REMARK    9  A    between atoms: C_23  and  O_24
REMARK   10  A    between atoms: C_23  and  C_27
REMARK   11  A    between atoms: C_27  and  O_28
REMARK   12  A    between atoms: O_28  and  C_29
REMARK                            x       y       z     vdW  Elec       q    Type
REMARK                         _______ _______ _______ _____ _____    ______ ____
ROOT
ATOM      1  O   UNL     1     -35.981  26.055   4.319  0.00  0.00    -0.346 OA
ATOM      2  C   UNL     1     -36.137  23.680   4.369  0.00  0.00    +0.203 C 
ATOM      3  C   UNL     1     -34.804  24.081   3.748  0.00  0.00    +0.183 C 
ATOM      4  C   UNL     1     -34.649  25.506   4.275  0.00  0.00    +0.184 C 
ATOM      5  C   UNL     1     -36.935  24.974   4.283  0.00  0.00    +0.188 C 
ENDROOT
BRANCH   2   6
ATOM      6  O   UNL     1     -35.928  23.386   5.751  0.00  0.00    -0.368 OA
ATOM      7  H   UNL     1     -36.321  22.525   5.962  0.00  0.00    +0.212 HD
ENDBRANCH   2   6
BRANCH   3   8
ATOM      8  O   UNL     1     -34.865  24.071   2.324  0.00  0.00    -0.378 OA
ATOM      9  H   UNL     1     -34.532  24.915   1.981  0.00  0.00    +0.211 HD
ENDBRANCH   3   8
BRANCH   2  10
ATOM     10  N   UNL     1     -36.797  22.573   3.699  0.00  0.00    -0.207 NA
ATOM     11  H   UNL     1     -37.661  22.339   4.190  0.00  0.00    +0.147 HD
BRANCH  10  12
ATOM     12  N   UNL     1     -35.943  21.481   3.710  0.00  0.00    -0.277 N 
ATOM     13  H   UNL     1     -35.450  21.269   4.535  0.00  0.00    +0.166 HD
BRANCH  12  14
ATOM     14  C   UNL     1     -35.761  20.669   2.579  0.00  0.00    +0.058 C 
ATOM     15  C   UNL     1     -36.846  20.365   1.757  0.00  0.00    +0.019 C 
ATOM     16  C   UNL     1     -34.495  20.168   2.277  0.00  0.00    +0.019 C 
ATOM     17  C   UNL     1     -36.664  19.559   0.633  0.00  0.00    +0.038 C 
ATOM     18  C   UNL     1     -34.314  19.362   1.154  0.00  0.00    +0.038 C 
ATOM     19  C   UNL     1     -35.399  19.057   0.331  0.00  0.00    +0.139 C 
BRANCH  19  20
ATOM     20  O   UNL     1     -35.222  18.271  -0.766  0.00  0.00    -0.475 OA
BRANCH  20  21
ATOM     21  C   UNL     1     -34.303  17.186  -0.645  0.00  0.00    +0.206 C 
ATOM     22  C   UNL     1     -35.067  15.933  -0.272  0.00  0.00    +0.051 C 
ENDBRANCH  20  21
ENDBRANCH  19  20
ENDBRANCH  12  14
ENDBRANCH  10  12
ENDBRANCH   2  10
BRANCH   4  23
ATOM     23  C   UNL     1     -33.755  26.418   3.453  0.00  0.00    +0.240 C 
BRANCH  23  24
ATOM     24  O   UNL     1     -32.505  25.770   3.280  0.00  0.00    -0.373 OA
ATOM     25  H   UNL     1     -31.934  25.957   4.041  0.00  0.00    +0.211 HD
ENDBRANCH  23  24
BRANCH  23  27
ATOM     26  O   UNL     1     -33.838  28.832   3.696  0.00  0.00    -0.247 OA
ATOM     27  C   UNL     1     -33.522  27.741   4.152  0.00  0.00    +0.347 C 
BRANCH  27  28
ATOM     28  O   UNL     1     -32.937  27.523   5.367  0.00  0.00    -0.447 OA
BRANCH  28  29
ATOM     29  C   UNL     1     -31.685  28.183   5.576  0.00  0.00    +0.209 C 
ATOM     30  C   UNL     1     -31.842  29.198   6.687  0.00  0.00    +0.051 C 
ENDBRANCH  28  29
ENDBRANCH  27  28
ENDBRANCH  23  27
ENDBRANCH   4  23
TORSDOF 12
ENDMDL
MODEL 8
REMARK VINA RESULT:      -5.6      2.813      8.002
REMARK  Name = 192173
REMARK  12 active torsions:
REMARK  status: ('A' for Active; 'I' for Inactive)
REMARK    1  A    between atoms: C_2  and  O_6
REMARK    2  A    between atoms: C_2  and  N_10
REMARK    3  A    between atoms: C_3  and  O_8
REMARK    4  A    between atoms: C_4  and  C_23
REMARK    5  A    between atoms: N_10  and  N_12
REMARK    6  A    between atoms: N_12  and  C_14
REMARK    7  A    between atoms: C_19  and  O_20
REMARK    8  A    between atoms: O_20  and  C_21
REMARK    9  A    between atoms: C_23  and  O_24
REMARK   10  A    between atoms: C_23  and  C_27
REMARK   11  A    between atoms: C_27  and  O_28
REMARK   12  A    between atoms: O_28  and  C_29
REMARK                            x       y       z     vdW  Elec       q    Type
REMARK                         _______ _______ _______ _____ _____    ______ ____
ROOT
ATOM      1  O   UNL     1     -36.259  22.805   1.682  0.00  0.00    -0.346 OA
ATOM      2  C   UNL     1     -36.997  20.545   1.544  0.00  0.00    +0.203 C 
ATOM      3  C   UNL     1     -36.683  20.882   2.997  0.00  0.00    +0.183 C 
ATOM      4  C   UNL     1     -36.764  22.407   2.971  0.00  0.00    +0.184 C 
ATOM      5  C   UNL     1     -36.293  21.669   0.794  0.00  0.00    +0.188 C 
ENDROOT
BRANCH   2   6
ATOM      6  O   UNL     1     -38.403  20.692   1.333  0.00  0.00    -0.368 OA
ATOM      7  H   UNL     1     -38.565  21.454   0.757  0.00  0.00    +0.212 HD
ENDBRANCH   2   6
BRANCH   3   8
ATOM      8  O   UNL     1     -35.377  20.449   3.365  0.00  0.00    -0.378 OA
ATOM      9  H   UNL     1     -35.021  21.040   4.048  0.00  0.00    +0.211 HD
ENDBRANCH   3   8
BRANCH   2  10
ATOM     10  N   UNL     1     -36.547  19.229   1.127  0.00  0.00    -0.207 NA
ATOM     11  H   UNL     1     -36.260  18.688   1.944  0.00  0.00    +0.147 HD
BRANCH  10  12
ATOM     12  N   UNL     1     -35.470  19.384   0.268  0.00  0.00    -0.277 N 
ATOM     13  H   UNL     1     -35.500  20.097  -0.410  0.00  0.00    +0.166 HD
BRANCH  12  14
ATOM     14  C   UNL     1     -34.339  18.555   0.338  0.00  0.00    +0.058 C 
ATOM     15  C   UNL     1     -34.310  17.353  -0.368  0.00  0.00    +0.019 C 
ATOM     16  C   UNL     1     -33.243  18.936   1.113  0.00  0.00    +0.019 C 
ATOM     17  C   UNL     1     -33.185  16.531  -0.299  0.00  0.00    +0.038 C 
ATOM     18  C   UNL     1     -32.119  18.113   1.182  0.00  0.00    +0.038 C 
ATOM     19  C   UNL     1     -32.090  16.910   0.476  0.00  0.00    +0.139 C 
BRANCH  19  20
ATOM     20  O   UNL     1     -30.993  16.109   0.544  0.00  0.00    -0.475 OA
BRANCH  20  21
ATOM     21  C   UNL     1     -29.729  16.712   0.271  0.00  0.00    +0.206 C 
ATOM     22  C   UNL     1     -29.543  16.811  -1.228  0.00  0.00    +0.051 C 
ENDBRANCH  20  21
ENDBRANCH  19  20
ENDBRANCH  12  14
ENDBRANCH  10  12
ENDBRANCH   2  10
BRANCH   4  23
ATOM     23  C   UNL     1     -35.986  23.125   4.060  0.00  0.00    +0.240 C 
BRANCH  23  24
ATOM     24  O   UNL     1     -36.272  22.491   5.297  0.00  0.00    -0.373 OA
ATOM     25  H   UNL     1     -36.165  23.128   6.020  0.00  0.00    +0.211 HD
ENDBRANCH  23  24
BRANCH  23  27
ATOM     26  O   UNL     1     -37.496  24.974   4.504  0.00  0.00    -0.247 OA
ATOM     27  C   UNL     1     -36.389  24.582   4.159  0.00  0.00    +0.347 C 
BRANCH  27  28
ATOM     28  O   UNL     1     -35.326  25.375   3.832  0.00  0.00    -0.447 OA
BRANCH  28  29
ATOM     29  C   UNL     1     -34.143  25.173   4.612  0.00  0.00    +0.209 C 
ATOM     30  C   UNL     1     -34.227  26.019   5.864  0.00  0.00    +0.051 C 
ENDBRANCH  28  29
ENDBRANCH  27  28
ENDBRANCH  23  27
ENDBRANCH   4  23
TORSDOF 12
ENDMDL
MODEL 9
REMARK VINA RESULT:      -5.6      1.917      2.631
REMARK  Name = 192173
REMARK  12 active torsions:
REMARK  status: ('A' for Active; 'I' for Inactive)
REMARK    1  A    between atoms: C_2  and  O_6
REMARK    2  A    between atoms: C_2  and  N_10
REMARK    3  A    between atoms: C_3  and  O_8
REMARK    4  A    between atoms: C_4  and  C_23
REMARK    5  A    between atoms: N_10  and  N_12
REMARK    6  A    between atoms: N_12  and  C_14
REMARK    7  A    between atoms: C_19  and  O_20
REMARK    8  A    between atoms: O_20  and  C_21
REMARK    9  A    between atoms: C_23  and  O_24
REMARK   10  A    between atoms: C_23  and  C_27
REMARK   11  A    between atoms: C_27  and  O_28
REMARK   12  A    between atoms: O_28  and  C_29
REMARK                            x       y       z     vdW  Elec       q    Type
REMARK                         _______ _______ _______ _____ _____    ______ ____
ROOT
ATOM      1  O   UNL     1     -35.782  22.401   4.470  0.00  0.00    -0.346 OA
ATOM      2  C   UNL     1     -36.270  24.731   4.448  0.00  0.00    +0.203 C 
ATOM      3  C   UNL     1     -35.817  24.301   3.057  0.00  0.00    +0.183 C 
ATOM      4  C   UNL     1     -36.073  22.796   3.116  0.00  0.00    +0.184 C 
ATOM      5  C   UNL     1     -35.798  23.570   5.314  0.00  0.00    +0.188 C 
ENDROOT
BRANCH   2   6
ATOM      6  O   UNL     1     -37.698  24.748   4.479  0.00  0.00    -0.368 OA
ATOM      7  H   UNL     1     -38.023  23.912   4.847  0.00  0.00    +0.212 HD
ENDBRANCH   2   6
BRANCH   3   8
ATOM      8  O   UNL     1     -34.434  24.572   2.849  0.00  0.00    -0.378 OA
ATOM      9  H   UNL     1     -34.137  24.133   2.037  0.00  0.00    +0.211 HD
ENDBRANCH   3   8
BRANCH   2  10
ATOM     10  N   UNL     1     -35.729  26.007   4.882  0.00  0.00    -0.207 NA
ATOM     11  H   UNL     1     -35.607  26.622   4.076  0.00  0.00    +0.147 HD
BRANCH  10  12
ATOM     12  N   UNL     1     -34.502  25.781   5.487  0.00  0.00    -0.277 N 
ATOM     13  H   UNL     1     -34.318  24.895   5.875  0.00  0.00    +0.166 HD
BRANCH  12  14
ATOM     14  C   UNL     1     -33.517  26.778   5.563  0.00  0.00    +0.058 C 
ATOM     15  C   UNL     1     -33.143  27.478   4.416  0.00  0.00    +0.019 C 
ATOM     16  C   UNL     1     -32.914  27.069   6.787  0.00  0.00    +0.019 C 
ATOM     17  C   UNL     1     -32.165  28.470   4.493  0.00  0.00    +0.038 C 
ATOM     18  C   UNL     1     -31.935  28.060   6.863  0.00  0.00    +0.038 C 
ATOM     19  C   UNL     1     -31.560  28.761   5.716  0.00  0.00    +0.139 C 
BRANCH  19  20
ATOM     20  O   UNL     1     -30.606  29.728   5.791  0.00  0.00    -0.475 OA
BRANCH  20  21
ATOM     21  C   UNL     1     -29.463  29.451   6.599  0.00  0.00    +0.206 C 
ATOM     22  C   UNL     1     -28.397  28.804   5.740  0.00  0.00    +0.051 C 
ENDBRANCH  20  21
ENDBRANCH  19  20
ENDBRANCH  12  14
ENDBRANCH  10  12
ENDBRANCH   2  10
BRANCH   4  23
ATOM     23  C   UNL     1     -35.251  21.952   2.157  0.00  0.00    +0.240 C 
BRANCH  23  24
ATOM     24  O   UNL     1     -35.456  22.450   0.844  0.00  0.00    -0.373 OA
ATOM     25  H   UNL     1     -36.045  21.852   0.359  0.00  0.00    +0.211 HD
ENDBRANCH  23  24
BRANCH  23  27
ATOM     26  O   UNL     1     -36.833  20.111   2.086  0.00  0.00    -0.247 OA
ATOM     27  C   UNL     1     -35.677  20.498   2.195  0.00  0.00    +0.347 C 
BRANCH  27  28
ATOM     28  O   UNL     1     -34.578  19.702   2.341  0.00  0.00    -0.447 OA
BRANCH  28  29
ATOM     29  C   UNL     1     -33.954  19.282   1.123  0.00  0.00    +0.209 C 
ATOM     30  C   UNL     1     -32.814  18.343   1.451  0.00  0.00    +0.051 C 
ENDBRANCH  28  29
ENDBRANCH  27  28
ENDBRANCH  23  27
ENDBRANCH   4  23
TORSDOF 12
ENDMDL
