MODEL 1
REMARK VINA RESULT:      -6.7      0.000      0.000
REMARK  Name = 195989
REMARK  5 active torsions:
REMARK  status: ('A' for Active; 'I' for Inactive)
REMARK    1  A    between atoms: C_7  and  C_20
REMARK    2  A    between atoms: C_8  and  C_24
REMARK    3  A    between atoms: C_20  and  C_21
REMARK    4  A    between atoms: C_21  and  S_22
REMARK    5  A    between atoms: C_24  and  C_25
REMARK                            x       y       z     vdW  Elec       q    Type
REMARK                         _______ _______ _______ _____ _____    ______ ____
ROOT
ATOM      1  O   UNL     1     -34.355  24.333   1.581  0.00  0.00    -0.273 OA
ATOM      2  O   UNL     1     -36.475  26.109   2.989  0.00  0.00    -0.273 OA
ATOM      3  O   UNL     1     -37.560  20.728   1.579  0.00  0.00    -0.275 OA
ATOM      4  N   UNL     1     -35.426  23.171   3.291  0.00  0.00    -0.297 N 
ATOM      5  N   UNL     1     -36.235  22.274   0.459  0.00  0.00    -0.298 N 
ATOM      6  N   UNL     1     -37.968  24.639   3.990  0.00  0.00    -0.303 N 
ATOM      7  C   UNL     1     -35.594  24.251   4.262  0.00  0.00    +0.149 C 
ATOM      8  C   UNL     1     -34.998  22.040   1.193  0.00  0.00    +0.153 C 
ATOM      9  C   UNL     1     -39.794  23.019   2.166  0.00  0.00    +0.002 C 
ATOM     10  C   UNL     1     -39.439  24.503   2.022  0.00  0.00    +0.021 C 
ATOM     11  C   UNL     1     -39.898  22.266   0.833  0.00  0.00    +0.010 C 
ATOM     12  C   UNL     1     -39.178  25.163   3.378  0.00  0.00    +0.089 C 
ATOM     13  C   UNL     1     -38.609  22.231   0.008  0.00  0.00    +0.085 C 
ATOM     14  C   UNL     1     -34.843  23.300   2.036  0.00  0.00    +0.241 C 
ATOM     15  C   UNL     1     -36.702  25.133   3.701  0.00  0.00    +0.240 C 
ATOM     16  C   UNL     1     -37.433  21.651   0.777  0.00  0.00    +0.223 C 
ATOM     17  H   UNL     1     -35.753  22.279   3.547  0.00  0.00    +0.150 HD
ATOM     18  H   UNL     1     -36.220  22.901  -0.300  0.00  0.00    +0.150 HD
ATOM     19  H   UNL     1     -38.048  23.902   4.637  0.00  0.00    +0.149 HD
ENDROOT
BRANCH   7  20
ATOM     20  C   UNL     1     -34.315  25.019   4.565  0.00  0.00    +0.041 C 
BRANCH  20  21
ATOM     21  C   UNL     1     -34.460  25.848   5.835  0.00  0.00    +0.060 C 
BRANCH  21  22
ATOM     22  S   UNL     1     -33.040  26.960   6.034  0.00  0.00    -0.139 S 
ATOM     23  C   UNL     1     -32.928  27.551   4.329  0.00  0.00    +0.069 C 
ENDBRANCH  21  22
ENDBRANCH  20  21
ENDBRANCH   7  20
BRANCH   8  24
ATOM     24  C   UNL     1     -33.831  21.853   0.238  0.00  0.00    +0.055 C 
BRANCH  24  25
ATOM     25  C   UNL     1     -33.100  20.560   0.492  0.00  0.00    -0.020 C 
ATOM     26  C   UNL     1     -31.822  20.387  -0.021  0.00  0.00    -0.004 C 
ATOM     27  C   UNL     1     -33.714  19.564   1.236  0.00  0.00    -0.004 C 
ATOM     28  C   UNL     1     -31.144  19.191   0.213  0.00  0.00    -0.000 C 
ATOM     29  C   UNL     1     -33.036  18.368   1.473  0.00  0.00    -0.000 C 
ATOM     30  C   UNL     1     -31.752  18.181   0.961  0.00  0.00    -0.000 C 
ENDBRANCH  24  25
ENDBRANCH   8  24
TORSDOF 5
ENDMDL
MODEL 2
REMARK VINA RESULT:      -6.4      1.517      2.055
REMARK  Name = 195989
REMARK  5 active torsions:
REMARK  status: ('A' for Active; 'I' for Inactive)
REMARK    1  A    between atoms: C_7  and  C_20
REMARK    2  A    between atoms: C_8  and  C_24
REMARK    3  A    between atoms: C_20  and  C_21
REMARK    4  A    between atoms: C_21  and  S_22
REMARK    5  A    between atoms: C_24  and  C_25
REMARK                            x       y       z     vdW  Elec       q    Type
REMARK                         _______ _______ _______ _____ _____    ______ ____
ROOT
ATOM      1  O   UNL     1     -34.444  23.273   1.310  0.00  0.00    -0.273 OA
ATOM      2  O   UNL     1     -37.077  24.481   2.425  0.00  0.00    -0.273 OA
ATOM      3  O   UNL     1     -36.879  19.242   0.271  0.00  0.00    -0.275 OA
ATOM      4  N   UNL     1     -35.584  21.733   2.631  0.00  0.00    -0.297 N 
ATOM      5  N   UNL     1     -35.675  21.117  -0.385  0.00  0.00    -0.298 N 
ATOM      6  N   UNL     1     -38.436  22.669   2.937  0.00  0.00    -0.303 N 
ATOM      7  C   UNL     1     -36.124  22.628   3.653  0.00  0.00    +0.149 C 
ATOM      8  C   UNL     1     -34.574  20.984   0.562  0.00  0.00    +0.153 C 
ATOM      9  C   UNL     1     -39.564  21.047   0.617  0.00  0.00    +0.002 C 
ATOM     10  C   UNL     1     -39.466  22.574   0.704  0.00  0.00    +0.021 C 
ATOM     11  C   UNL     1     -39.279  20.478  -0.779  0.00  0.00    +0.010 C 
ATOM     12  C   UNL     1     -39.586  23.074   2.146  0.00  0.00    +0.089 C 
ATOM     13  C   UNL     1     -37.874  20.761  -1.318  0.00  0.00    +0.085 C 
ATOM     14  C   UNL     1     -34.811  22.123   1.545  0.00  0.00    +0.241 C 
ATOM     15  C   UNL     1     -37.250  23.392   2.969  0.00  0.00    +0.240 C 
ATOM     16  C   UNL     1     -36.776  20.274  -0.387  0.00  0.00    +0.223 C 
ATOM     17  H   UNL     1     -35.784  20.773   2.721  0.00  0.00    +0.150 HD
ATOM     18  H   UNL     1     -35.633  21.838  -1.054  0.00  0.00    +0.150 HD
ATOM     19  H   UNL     1     -38.499  21.847   3.474  0.00  0.00    +0.149 HD
ENDROOT
BRANCH   7  20
ATOM     20  C   UNL     1     -35.085  23.539   4.291  0.00  0.00    +0.041 C 
BRANCH  20  21
ATOM     21  C   UNL     1     -35.589  24.104   5.614  0.00  0.00    +0.060 C 
BRANCH  21  22
ATOM     22  S   UNL     1     -35.828  25.899   5.490  0.00  0.00    -0.139 S 
ATOM     23  C   UNL     1     -34.548  26.250   4.263  0.00  0.00    +0.069 C 
ENDBRANCH  21  22
ENDBRANCH  20  21
ENDBRANCH   7  20
BRANCH   8  24
ATOM     24  C   UNL     1     -33.235  21.116  -0.145  0.00  0.00    +0.055 C 
BRANCH  24  25
ATOM     25  C   UNL     1     -32.301  19.989   0.207  0.00  0.00    -0.020 C 
ATOM     26  C   UNL     1     -32.753  18.955   1.014  0.00  0.00    -0.004 C 
ATOM     27  C   UNL     1     -31.003  20.000  -0.283  0.00  0.00    -0.004 C 
ATOM     28  C   UNL     1     -31.888  17.910   1.341  0.00  0.00    -0.000 C 
ATOM     29  C   UNL     1     -30.138  18.955   0.042  0.00  0.00    -0.000 C 
ATOM     30  C   UNL     1     -30.581  17.910   0.854  0.00  0.00    -0.000 C 
ENDBRANCH  24  25
ENDBRANCH   8  24
TORSDOF 5
ENDMDL
MODEL 3
REMARK VINA RESULT:      -6.3      2.337      6.284
REMARK  Name = 195989
REMARK  5 active torsions:
REMARK  status: ('A' for Active; 'I' for Inactive)
REMARK    1  A    between atoms: C_7  and  C_20
REMARK    2  A    between atoms: C_8  and  C_24
REMARK    3  A    between atoms: C_20  and  C_21
REMARK    4  A    between atoms: C_21  and  S_22
REMARK    5  A    between atoms: C_24  and  C_25
REMARK                            x       y       z     vdW  Elec       q    Type
REMARK                         _______ _______ _______ _____ _____    ______ ____
ROOT
ATOM      1  O   UNL     1     -35.513  22.178   4.044  0.00  0.00    -0.273 OA
ATOM      2  O   UNL     1     -37.074  20.426   2.012  0.00  0.00    -0.273 OA
ATOM      3  O   UNL     1     -37.870  26.028   2.346  0.00  0.00    -0.275 OA
ATOM      4  N   UNL     1     -35.587  23.184   1.947  0.00  0.00    -0.297 N 
ATOM      5  N   UNL     1     -37.376  24.537   4.058  0.00  0.00    -0.298 N 
ATOM      6  N   UNL     1     -37.781  21.874   0.341  0.00  0.00    -0.303 N 
ATOM      7  C   UNL     1     -35.484  22.001   1.095  0.00  0.00    +0.149 C 
ATOM      8  C   UNL     1     -35.925  24.551   3.917  0.00  0.00    +0.153 C 
ATOM      9  C   UNL     1     -39.952  23.893   1.045  0.00  0.00    +0.002 C 
ATOM     10  C   UNL     1     -39.907  22.417   1.455  0.00  0.00    +0.021 C 
ATOM     11  C   UNL     1     -40.499  24.830   2.131  0.00  0.00    +0.010 C 
ATOM     12  C   UNL     1     -39.197  21.554   0.409  0.00  0.00    +0.089 C 
ATOM     13  C   UNL     1     -39.685  24.860   3.427  0.00  0.00    +0.085 C 
ATOM     14  C   UNL     1     -35.611  23.178   3.336  0.00  0.00    +0.241 C 
ATOM     15  C   UNL     1     -36.839  21.311   1.192  0.00  0.00    +0.240 C 
ATOM     16  C   UNL     1     -38.226  25.217   3.198  0.00  0.00    +0.223 C 
ATOM     17  H   UNL     1     -35.645  24.059   1.498  0.00  0.00    +0.150 HD
ATOM     18  H   UNL     1     -37.770  24.021   4.798  0.00  0.00    +0.150 HD
ATOM     19  H   UNL     1     -37.475  22.519  -0.337  0.00  0.00    +0.149 HD
ENDROOT
BRANCH   7  20
ATOM     20  C   UNL     1     -34.321  21.084   1.445  0.00  0.00    +0.041 C 
BRANCH  20  21
ATOM     21  C   UNL     1     -33.819  20.338   0.214  0.00  0.00    +0.060 C 
BRANCH  21  22
ATOM     22  S   UNL     1     -34.074  18.552   0.405  0.00  0.00    -0.139 S 
ATOM     23  C   UNL     1     -32.594  18.177   1.373  0.00  0.00    +0.069 C 
ENDBRANCH  21  22
ENDBRANCH  20  21
ENDBRANCH   7  20
BRANCH   8  24
ATOM     24  C   UNL     1     -35.254  24.761   5.264  0.00  0.00    +0.055 C 
BRANCH  24  25
ATOM     25  C   UNL     1     -34.248  25.882   5.222  0.00  0.00    -0.020 C 
ATOM     26  C   UNL     1     -33.636  26.294   6.397  0.00  0.00    -0.004 C 
ATOM     27  C   UNL     1     -33.949  26.485   4.009  0.00  0.00    -0.004 C 
ATOM     28  C   UNL     1     -32.705  27.332   6.359  0.00  0.00    -0.000 C 
ATOM     29  C   UNL     1     -33.017  27.522   3.970  0.00  0.00    -0.000 C 
ATOM     30  C   UNL     1     -32.395  27.946   5.145  0.00  0.00    -0.000 C 
ENDBRANCH  24  25
ENDBRANCH   8  24
TORSDOF 5
ENDMDL
MODEL 4
REMARK VINA RESULT:      -6.0      4.458      8.329
REMARK  Name = 195989
REMARK  5 active torsions:
REMARK  status: ('A' for Active; 'I' for Inactive)
REMARK    1  A    between atoms: C_7  and  C_20
REMARK    2  A    between atoms: C_8  and  C_24
REMARK    3  A    between atoms: C_20  and  C_21
REMARK    4  A    between atoms: C_21  and  S_22
REMARK    5  A    between atoms: C_24  and  C_25
REMARK                            x       y       z     vdW  Elec       q    Type
REMARK                         _______ _______ _______ _____ _____    ______ ____
ROOT
ATOM      1  O   UNL     1     -37.112  20.703  -0.506  0.00  0.00    -0.273 OA
ATOM      2  O   UNL     1     -36.528  18.597  -2.711  0.00  0.00    -0.273 OA
ATOM      3  O   UNL     1     -33.431  18.887   2.028  0.00  0.00    -0.275 OA
ATOM      4  N   UNL     1     -36.716  18.604   0.418  0.00  0.00    -0.297 N 
ATOM      5  N   UNL     1     -34.430  20.622   0.849  0.00  0.00    -0.298 N 
ATOM      6  N   UNL     1     -35.354  16.892  -1.660  0.00  0.00    -0.303 N 
ATOM      7  C   UNL     1     -37.346  17.759  -0.595  0.00  0.00    +0.149 C 
ATOM      8  C   UNL     1     -35.744  20.554   1.476  0.00  0.00    +0.153 C 
ATOM      9  C   UNL     1     -32.504  17.486  -0.758  0.00  0.00    +0.002 C 
ATOM     10  C   UNL     1     -33.149  17.899  -2.086  0.00  0.00    +0.021 C 
ATOM     11  C   UNL     1     -31.566  18.542  -0.161  0.00  0.00    +0.010 C 
ATOM     12  C   UNL     1     -34.203  16.889  -2.549  0.00  0.00    +0.089 C 
ATOM     13  C   UNL     1     -32.231  19.877   0.183  0.00  0.00    +0.085 C 
ATOM     14  C   UNL     1     -36.634  19.990   0.375  0.00  0.00    +0.241 C 
ATOM     15  C   UNL     1     -36.406  17.790  -1.792  0.00  0.00    +0.240 C 
ATOM     16  C   UNL     1     -33.413  19.721   1.126  0.00  0.00    +0.223 C 
ATOM     17  H   UNL     1     -36.315  18.153   1.196  0.00  0.00    +0.150 HD
ATOM     18  H   UNL     1     -34.257  21.343   0.201  0.00  0.00    +0.150 HD
ATOM     19  H   UNL     1     -35.390  16.230  -0.934  0.00  0.00    +0.149 HD
ENDROOT
BRANCH   7  20
ATOM     20  C   UNL     1     -38.771  18.167  -0.943  0.00  0.00    +0.041 C 
BRANCH  20  21
ATOM     21  C   UNL     1     -39.519  17.025  -1.620  0.00  0.00    +0.060 C 
BRANCH  21  22
ATOM     22  S   UNL     1     -39.259  15.472  -0.718  0.00  0.00    -0.139 S 
ATOM     23  C   UNL     1     -40.975  14.905  -0.671  0.00  0.00    +0.069 C 
ENDBRANCH  21  22
ENDBRANCH  20  21
ENDBRANCH   7  20
BRANCH   8  24
ATOM     24  C   UNL     1     -36.203  21.932   1.921  0.00  0.00    +0.055 C 
BRANCH  24  25
ATOM     25  C   UNL     1     -35.854  22.202   3.362  0.00  0.00    -0.020 C 
ATOM     26  C   UNL     1     -35.991  23.487   3.868  0.00  0.00    -0.004 C 
ATOM     27  C   UNL     1     -35.404  21.161   4.161  0.00  0.00    -0.004 C 
ATOM     28  C   UNL     1     -35.668  23.737   5.202  0.00  0.00    -0.000 C 
ATOM     29  C   UNL     1     -35.082  21.411   5.495  0.00  0.00    -0.000 C 
ATOM     30  C   UNL     1     -35.214  22.698   6.016  0.00  0.00    -0.000 C 
ENDBRANCH  24  25
ENDBRANCH   8  24
TORSDOF 5
ENDMDL
MODEL 5
REMARK VINA RESULT:      -5.9      3.058      6.678
REMARK  Name = 195989
REMARK  5 active torsions:
REMARK  status: ('A' for Active; 'I' for Inactive)
REMARK    1  A    between atoms: C_7  and  C_20
REMARK    2  A    between atoms: C_8  and  C_24
REMARK    3  A    between atoms: C_20  and  C_21
REMARK    4  A    between atoms: C_21  and  S_22
REMARK    5  A    between atoms: C_24  and  C_25
REMARK                            x       y       z     vdW  Elec       q    Type
REMARK                         _______ _______ _______ _____ _____    ______ ____
ROOT
ATOM      1  O   UNL     1     -34.863  19.953   2.662  0.00  0.00    -0.273 OA
ATOM      2  O   UNL     1     -35.484  18.268   0.130  0.00  0.00    -0.273 OA
ATOM      3  O   UNL     1     -38.075  23.209   1.131  0.00  0.00    -0.275 OA
ATOM      4  N   UNL     1     -34.967  21.295   0.762  0.00  0.00    -0.297 N 
ATOM      5  N   UNL     1     -37.367  21.615   2.665  0.00  0.00    -0.298 N 
ATOM      6  N   UNL     1     -36.381  19.754  -1.412  0.00  0.00    -0.303 N 
ATOM      7  C   UNL     1     -34.374  20.388  -0.219  0.00  0.00    +0.149 C 
ATOM      8  C   UNL     1     -35.993  22.079   2.811  0.00  0.00    +0.153 C 
ATOM      9  C   UNL     1     -39.161  20.868  -0.849  0.00  0.00    +0.002 C 
ATOM     10  C   UNL     1     -38.701  19.418  -0.662  0.00  0.00    +0.021 C 
ATOM     11  C   UNL     1     -40.123  21.367   0.237  0.00  0.00    +0.010 C 
ATOM     12  C   UNL     1     -37.615  19.028  -1.668  0.00  0.00    +0.089 C 
ATOM     13  C   UNL     1     -39.549  21.372   1.656  0.00  0.00    +0.085 C 
ATOM     14  C   UNL     1     -35.178  21.003   2.104  0.00  0.00    +0.241 C 
ATOM     15  C   UNL     1     -35.435  19.330  -0.489  0.00  0.00    +0.240 C 
ATOM     16  C   UNL     1     -38.264  22.176   1.769  0.00  0.00    +0.223 C 
ATOM     17  H   UNL     1     -35.241  22.186   0.446  0.00  0.00    +0.150 HD
ATOM     18  H   UNL     1     -37.673  20.869   3.231  0.00  0.00    +0.150 HD
ATOM     19  H   UNL     1     -36.209  20.581  -1.916  0.00  0.00    +0.149 HD
ENDROOT
BRANCH   7  20
ATOM     20  C   UNL     1     -33.037  19.799   0.209  0.00  0.00    +0.041 C 
BRANCH  20  21
ATOM     21  C   UNL     1     -32.121  19.589  -0.990  0.00  0.00    +0.060 C 
BRANCH  21  22
ATOM     22  S   UNL     1     -32.026  17.827  -1.417  0.00  0.00    -0.139 S 
ATOM     23  C   UNL     1     -32.125  17.146   0.255  0.00  0.00    +0.069 C 
ENDBRANCH  21  22
ENDBRANCH  20  21
ENDBRANCH   7  20
BRANCH   8  24
ATOM     24  C   UNL     1     -35.617  22.200   4.278  0.00  0.00    +0.055 C 
BRANCH  24  25
ATOM     25  C   UNL     1     -35.473  23.637   4.704  0.00  0.00    -0.020 C 
ATOM     26  C   UNL     1     -36.557  24.496   4.585  0.00  0.00    -0.004 C 
ATOM     27  C   UNL     1     -34.261  24.082   5.211  0.00  0.00    -0.004 C 
ATOM     28  C   UNL     1     -36.426  25.827   4.979  0.00  0.00    -0.000 C 
ATOM     29  C   UNL     1     -34.129  25.413   5.607  0.00  0.00    -0.000 C 
ATOM     30  C   UNL     1     -35.211  26.285   5.490  0.00  0.00    -0.000 C 
ENDBRANCH  24  25
ENDBRANCH   8  24
TORSDOF 5
ENDMDL
MODEL 6
REMARK VINA RESULT:      -5.9      3.820      6.541
REMARK  Name = 195989
REMARK  5 active torsions:
REMARK  status: ('A' for Active; 'I' for Inactive)
REMARK    1  A    between atoms: C_7  and  C_20
REMARK    2  A    between atoms: C_8  and  C_24
REMARK    3  A    between atoms: C_20  and  C_21
REMARK    4  A    between atoms: C_21  and  S_22
REMARK    5  A    between atoms: C_24  and  C_25
REMARK                            x       y       z     vdW  Elec       q    Type
REMARK                         _______ _______ _______ _____ _____    ______ ____
ROOT
ATOM      1  O   UNL     1     -38.806  26.210   3.181  0.00  0.00    -0.273 OA
ATOM      2  O   UNL     1     -39.970  27.850   0.817  0.00  0.00    -0.273 OA
ATOM      3  O   UNL     1     -34.386  27.165   1.505  0.00  0.00    -0.275 OA
ATOM      4  N   UNL     1     -37.729  25.689   1.185  0.00  0.00    -0.297 N 
ATOM      5  N   UNL     1     -36.028  27.355   3.138  0.00  0.00    -0.298 N 
ATOM      6  N   UNL     1     -38.312  27.878  -0.809  0.00  0.00    -0.303 N 
ATOM      7  C   UNL     1     -38.857  25.776   0.259  0.00  0.00    +0.149 C 
ATOM      8  C   UNL     1     -36.408  25.950   3.198  0.00  0.00    +0.153 C 
ATOM      9  C   UNL     1     -35.804  29.514  -0.242  0.00  0.00    +0.002 C 
ATOM     10  C   UNL     1     -37.252  29.928   0.046  0.00  0.00    +0.021 C 
ATOM     11  C   UNL     1     -34.801  29.951   0.834  0.00  0.00    +0.010 C 
ATOM     12  C   UNL     1     -38.231  29.322  -0.962  0.00  0.00    +0.089 C 
ATOM     13  C   UNL     1     -35.052  29.369   2.227  0.00  0.00    +0.085 C 
ATOM     14  C   UNL     1     -37.788  25.927   2.552  0.00  0.00    +0.241 C 
ATOM     15  C   UNL     1     -39.150  27.264   0.113  0.00  0.00    +0.240 C 
ATOM     16  C   UNL     1     -35.103  27.850   2.230  0.00  0.00    +0.223 C 
ATOM     17  H   UNL     1     -36.854  25.442   0.808  0.00  0.00    +0.150 HD
ATOM     18  H   UNL     1     -36.445  27.982   3.772  0.00  0.00    +0.150 HD
ATOM     19  H   UNL     1     -37.749  27.311  -1.382  0.00  0.00    +0.149 HD
ENDROOT
BRANCH   7  20
ATOM     20  C   UNL     1     -40.074  24.967   0.687  0.00  0.00    +0.041 C 
BRANCH  20  21
ATOM     21  C   UNL     1     -39.899  23.492   0.348  0.00  0.00    +0.060 C 
BRANCH  21  22
ATOM     22  S   UNL     1     -39.566  22.529   1.850  0.00  0.00    -0.139 S 
ATOM     23  C   UNL     1     -38.307  21.419   1.177  0.00  0.00    +0.069 C 
ENDBRANCH  21  22
ENDBRANCH  20  21
ENDBRANCH   7  20
BRANCH   8  24
ATOM     24  C   UNL     1     -36.450  25.463   4.637  0.00  0.00    +0.055 C 
BRANCH  24  25
ATOM     25  C   UNL     1     -35.979  24.037   4.761  0.00  0.00    -0.020 C 
ATOM     26  C   UNL     1     -36.061  23.194   3.662  0.00  0.00    -0.004 C 
ATOM     27  C   UNL     1     -35.469  23.589   5.970  0.00  0.00    -0.004 C 
ATOM     28  C   UNL     1     -35.625  21.873   3.776  0.00  0.00    -0.000 C 
ATOM     29  C   UNL     1     -35.031  22.270   6.084  0.00  0.00    -0.000 C 
ATOM     30  C   UNL     1     -35.109  21.412   4.987  0.00  0.00    -0.000 C 
ENDBRANCH  24  25
ENDBRANCH   8  24
TORSDOF 5
ENDMDL
MODEL 7
REMARK VINA RESULT:      -5.9      2.784      5.121
REMARK  Name = 195989
REMARK  5 active torsions:
REMARK  status: ('A' for Active; 'I' for Inactive)
REMARK    1  A    between atoms: C_7  and  C_20
REMARK    2  A    between atoms: C_8  and  C_24
REMARK    3  A    between atoms: C_20  and  C_21
REMARK    4  A    between atoms: C_21  and  S_22
REMARK    5  A    between atoms: C_24  and  C_25
REMARK                            x       y       z     vdW  Elec       q    Type
REMARK                         _______ _______ _______ _____ _____    ______ ____
ROOT
ATOM      1  O   UNL     1     -37.636  20.665   1.185  0.00  0.00    -0.273 OA
ATOM      2  O   UNL     1     -39.833  22.856   1.243  0.00  0.00    -0.273 OA
ATOM      3  O   UNL     1     -34.490  23.952   2.784  0.00  0.00    -0.275 OA
ATOM      4  N   UNL     1     -36.853  22.665   0.291  0.00  0.00    -0.297 N 
ATOM      5  N   UNL     1     -35.697  21.987   3.063  0.00  0.00    -0.298 N 
ATOM      6  N   UNL     1     -38.705  24.884   1.159  0.00  0.00    -0.303 N 
ATOM      7  C   UNL     1     -38.064  23.132  -0.383  0.00  0.00    +0.149 C 
ATOM      8  C   UNL     1     -35.410  21.394   1.763  0.00  0.00    +0.153 C 
ATOM      9  C   UNL     1     -37.098  25.711   3.613  0.00  0.00    +0.002 C 
ATOM     10  C   UNL     1     -38.495  25.078   3.603  0.00  0.00    +0.021 C 
ATOM     11  C   UNL     1     -36.195  25.220   4.752  0.00  0.00    +0.010 C 
ATOM     12  C   UNL     1     -39.290  25.468   2.355  0.00  0.00    +0.089 C 
ATOM     13  C   UNL     1     -35.891  23.720   4.735  0.00  0.00    +0.085 C 
ATOM     14  C   UNL     1     -36.741  21.492   1.026  0.00  0.00    +0.241 C 
ATOM     15  C   UNL     1     -38.995  23.595   0.730  0.00  0.00    +0.240 C 
ATOM     16  C   UNL     1     -35.276  23.258   3.424  0.00  0.00    +0.223 C 
ATOM     17  H   UNL     1     -36.050  23.230   0.216  0.00  0.00    +0.150 HD
ATOM     18  H   UNL     1     -36.212  21.460   3.716  0.00  0.00    +0.150 HD
ATOM     19  H   UNL     1     -38.076  25.424   0.630  0.00  0.00    +0.149 HD
ENDROOT
BRANCH   7  20
ATOM     20  C   UNL     1     -38.699  22.098  -1.302  0.00  0.00    +0.041 C 
BRANCH  20  21
ATOM     21  C   UNL     1     -37.816  21.824  -2.513  0.00  0.00    +0.060 C 
BRANCH  21  22
ATOM     22  S   UNL     1     -37.712  20.040  -2.834  0.00  0.00    -0.139 S 
ATOM     23  C   UNL     1     -36.114  19.725  -2.049  0.00  0.00    +0.069 C 
ENDBRANCH  21  22
ENDBRANCH  20  21
ENDBRANCH   7  20
BRANCH   8  24
ATOM     24  C   UNL     1     -34.954  19.953   1.915  0.00  0.00    +0.055 C 
BRANCH  24  25
ATOM     25  C   UNL     1     -33.618  19.715   1.262  0.00  0.00    -0.020 C 
ATOM     26  C   UNL     1     -32.923  18.546   1.537  0.00  0.00    -0.004 C 
ATOM     27  C   UNL     1     -33.103  20.666   0.394  0.00  0.00    -0.004 C 
ATOM     28  C   UNL     1     -31.685  18.324   0.932  0.00  0.00    -0.000 C 
ATOM     29  C   UNL     1     -31.866  20.445  -0.212  0.00  0.00    -0.000 C 
ATOM     30  C   UNL     1     -31.157  19.274   0.057  0.00  0.00    -0.000 C 
ENDBRANCH  24  25
ENDBRANCH   8  24
TORSDOF 5
ENDMDL
MODEL 8
REMARK VINA RESULT:      -5.9      1.611      1.994
REMARK  Name = 195989
REMARK  5 active torsions:
REMARK  status: ('A' for Active; 'I' for Inactive)
REMARK    1  A    between atoms: C_7  and  C_20
REMARK    2  A    between atoms: C_8  and  C_24
REMARK    3  A    between atoms: C_20  and  C_21
REMARK    4  A    between atoms: C_21  and  S_22
REMARK    5  A    between atoms: C_24  and  C_25
REMARK                            x       y       z     vdW  Elec       q    Type
REMARK                         _______ _______ _______ _____ _____    ______ ____
ROOT
ATOM      1  O   UNL     1     -35.562  25.112   1.437  0.00  0.00    -0.273 OA
ATOM      2  O   UNL     1     -38.160  26.638   2.180  0.00  0.00    -0.273 OA
ATOM      3  O   UNL     1     -38.247  21.185   0.638  0.00  0.00    -0.275 OA
ATOM      4  N   UNL     1     -36.929  23.827   2.815  0.00  0.00    -0.297 N 
ATOM      5  N   UNL     1     -36.838  22.874  -0.111  0.00  0.00    -0.298 N 
ATOM      6  N   UNL     1     -39.705  25.008   2.767  0.00  0.00    -0.303 N 
ATOM      7  C   UNL     1     -37.469  24.874   3.682  0.00  0.00    +0.149 C 
ATOM      8  C   UNL     1     -35.830  22.767   0.936  0.00  0.00    +0.153 C 
ATOM      9  C   UNL     1     -40.784  23.218   0.549  0.00  0.00    +0.002 C 
ATOM     10  C   UNL     1     -40.562  24.733   0.476  0.00  0.00    +0.021 C 
ATOM     11  C   UNL     1     -40.442  22.471  -0.746  0.00  0.00    +0.010 C 
ATOM     12  C   UNL     1     -40.751  25.405   1.839  0.00  0.00    +0.089 C 
ATOM     13  C   UNL     1     -38.980  22.581  -1.189  0.00  0.00    +0.085 C 
ATOM     14  C   UNL     1     -36.043  24.028   1.764  0.00  0.00    +0.241 C 
ATOM     15  C   UNL     1     -38.468  25.637   2.823  0.00  0.00    +0.240 C 
ATOM     16  C   UNL     1     -38.004  22.123  -0.117  0.00  0.00    +0.223 C 
ATOM     17  H   UNL     1     -37.217  22.902   2.992  0.00  0.00    +0.150 HD
ATOM     18  H   UNL     1     -36.682  23.506  -0.849  0.00  0.00    +0.150 HD
ATOM     19  H   UNL     1     -39.881  24.261   3.383  0.00  0.00    +0.149 HD
ENDROOT
BRANCH   7  20
ATOM     20  C   UNL     1     -36.408  25.771   4.305  0.00  0.00    +0.041 C 
BRANCH  20  21
ATOM     21  C   UNL     1     -35.892  25.184   5.613  0.00  0.00    +0.060 C 
BRANCH  21  22
ATOM     22  S   UNL     1     -34.572  23.981   5.294  0.00  0.00    -0.139 S 
ATOM     23  C   UNL     1     -35.371  22.520   5.997  0.00  0.00    +0.069 C 
ENDBRANCH  21  22
ENDBRANCH  20  21
ENDBRANCH   7  20
BRANCH   8  24
ATOM     24  C   UNL     1     -34.434  22.714   0.338  0.00  0.00    +0.055 C 
BRANCH  24  25
ATOM     25  C   UNL     1     -33.780  21.374   0.556  0.00  0.00    -0.020 C 
ATOM     26  C   UNL     1     -32.528  21.129   0.010  0.00  0.00    -0.004 C 
ATOM     27  C   UNL     1     -34.439  20.406   1.299  0.00  0.00    -0.004 C 
ATOM     28  C   UNL     1     -31.922  19.888   0.211  0.00  0.00    -0.000 C 
ATOM     29  C   UNL     1     -33.834  19.166   1.501  0.00  0.00    -0.000 C 
ATOM     30  C   UNL     1     -32.576  18.907   0.957  0.00  0.00    -0.000 C 
ENDBRANCH  24  25
ENDBRANCH   8  24
TORSDOF 5
ENDMDL
MODEL 9
REMARK VINA RESULT:      -5.8      4.965      9.155
REMARK  Name = 195989
REMARK  5 active torsions:
REMARK  status: ('A' for Active; 'I' for Inactive)
REMARK    1  A    between atoms: C_7  and  C_20
REMARK    2  A    between atoms: C_8  and  C_24
REMARK    3  A    between atoms: C_20  and  C_21
REMARK    4  A    between atoms: C_21  and  S_22
REMARK    5  A    between atoms: C_24  and  C_25
REMARK                            x       y       z     vdW  Elec       q    Type
REMARK                         _______ _______ _______ _____ _____    ______ ____
ROOT
ATOM      1  O   UNL     1     -34.501  27.107   1.836  0.00  0.00    -0.273 OA
ATOM      2  O   UNL     1     -32.937  25.764   4.156  0.00  0.00    -0.273 OA
ATOM      3  O   UNL     1     -34.353  31.250   4.301  0.00  0.00    -0.275 OA
ATOM      4  N   UNL     1     -35.354  27.743   3.906  0.00  0.00    -0.297 N 
ATOM      5  N   UNL     1     -33.778  29.957   2.458  0.00  0.00    -0.298 N 
ATOM      6  N   UNL     1     -33.298  27.102   6.019  0.00  0.00    -0.303 N 
ATOM      7  C   UNL     1     -35.192  26.491   4.642  0.00  0.00    +0.149 C 
ATOM      8  C   UNL     1     -35.102  29.418   2.176  0.00  0.00    +0.153 C 
ATOM      9  C   UNL     1     -31.995  29.856   6.056  0.00  0.00    +0.002 C 
ATOM     10  C   UNL     1     -31.351  28.546   5.588  0.00  0.00    +0.021 C 
ATOM     11  C   UNL     1     -31.609  31.080   5.213  0.00  0.00    +0.010 C 
ATOM     12  C   UNL     1     -31.901  27.336   6.349  0.00  0.00    +0.089 C 
ATOM     13  C   UNL     1     -32.018  31.005   3.740  0.00  0.00    +0.085 C 
ATOM     14  C   UNL     1     -34.985  27.955   2.584  0.00  0.00    +0.241 C 
ATOM     15  C   UNL     1     -33.697  26.368   4.910  0.00  0.00    +0.240 C 
ATOM     16  C   UNL     1     -33.507  30.764   3.553  0.00  0.00    +0.223 C 
ATOM     17  H   UNL     1     -35.759  28.500   4.388  0.00  0.00    +0.150 HD
ATOM     18  H   UNL     1     -33.042  29.740   1.842  0.00  0.00    +0.150 HD
ATOM     19  H   UNL     1     -33.990  27.480   6.607  0.00  0.00    +0.149 HD
ENDROOT
BRANCH   7  20
ATOM     20  C   UNL     1     -35.774  25.275   3.934  0.00  0.00    +0.041 C 
BRANCH  20  21
ATOM     21  C   UNL     1     -36.262  24.237   4.936  0.00  0.00    +0.060 C 
BRANCH  21  22
ATOM     22  S   UNL     1     -35.566  22.606   4.553  0.00  0.00    -0.139 S 
ATOM     23  C   UNL     1     -35.300  22.029   6.246  0.00  0.00    +0.069 C 
ENDBRANCH  21  22
ENDBRANCH  20  21
ENDBRANCH   7  20
BRANCH   8  24
ATOM     24  C   UNL     1     -35.443  29.568   0.703  0.00  0.00    +0.055 C 
BRANCH  24  25
ATOM     25  C   UNL     1     -36.568  30.546   0.483  0.00  0.00    -0.020 C 
ATOM     26  C   UNL     1     -37.264  30.527  -0.718  0.00  0.00    -0.004 C 
ATOM     27  C   UNL     1     -36.893  31.449   1.484  0.00  0.00    -0.004 C 
ATOM     28  C   UNL     1     -38.306  31.432  -0.922  0.00  0.00    -0.000 C 
ATOM     29  C   UNL     1     -37.935  32.353   1.281  0.00  0.00    -0.000 C 
ATOM     30  C   UNL     1     -38.641  32.345   0.078  0.00  0.00    -0.000 C 
ENDBRANCH  24  25
ENDBRANCH   8  24
TORSDOF 5
ENDMDL
