MODEL 1
REMARK VINA RESULT:      -5.8      0.000      0.000
REMARK  Name = 5830865
REMARK  7 active torsions:
REMARK  status: ('A' for Active; 'I' for Inactive)
REMARK    1  A    between atoms: C_1  and  N_13
REMARK    2  A    between atoms: C_2  and  N_9
REMARK    3  A    between atoms: C_3  and  N_12
REMARK    4  A    between atoms: N_13  and  N_15
REMARK    5  A    between atoms: N_15  and  C_16
REMARK    6  A    between atoms: C_16  and  C_18
REMARK    7  A    between atoms: C_18  and  O_19
REMARK                            x       y       z     vdW  Elec       q    Type
REMARK                         _______ _______ _______ _____ _____    ______ ____
ROOT
ATOM      1  C   UNL     1     -36.493  23.534   3.781  0.00  0.00    +0.082 C 
ATOM      2  C   UNL     1     -35.606  23.321   4.835  0.00  0.00    +0.159 C 
ATOM      3  C   UNL     1     -34.771  25.575   4.590  0.00  0.00    +0.145 C 
ATOM      4  C   UNL     1     -34.745  24.341   5.240  0.00  0.00    +0.049 C 
ATOM      5  C   UNL     1     -36.520  24.769   3.131  0.00  0.00    +0.019 C 
ATOM      6  C   UNL     1     -35.659  25.789   3.535  0.00  0.00    +0.025 C 
ENDROOT
BRANCH   2   9
ATOM      7  O   UNL     1     -35.959  22.015   6.702  0.00  0.00    -0.126 OA
ATOM      8  O   UNL     1     -35.121  21.067   4.909  0.00  0.00    -0.126 OA
ATOM      9  N   UNL     1     -35.559  22.072   5.516  0.00  0.00    +0.059 N 
ENDBRANCH   2   9
BRANCH   3  12
ATOM     10  O   UNL     1     -33.181  26.443   6.017  0.00  0.00    -0.126 OA
ATOM     11  O   UNL     1     -33.860  27.678   4.334  0.00  0.00    -0.126 OA
ATOM     12  N   UNL     1     -33.896  26.615   5.001  0.00  0.00    +0.058 N 
ENDBRANCH   3  12
BRANCH   1  13
ATOM     13  N   UNL     1     -37.375  22.517   3.352  0.00  0.00    -0.259 N 
ATOM     14  H   UNL     1     -37.614  21.786   3.966  0.00  0.00    +0.168 HD
BRANCH  13  15
ATOM     15  N   UNL     1     -37.890  22.542   2.112  0.00  0.00    -0.121 NA
BRANCH  15  16
ATOM     16  C   UNL     1     -37.673  21.455   1.459  0.00  0.00    +0.220 C 
BRANCH  16  18
ATOM     17  O   UNL     1     -35.364  20.899   1.367  0.00  0.00    -0.249 OA
ATOM     18  C   UNL     1     -36.466  20.655   1.811  0.00  0.00    +0.334 C 
BRANCH  18  19
ATOM     19  O   UNL     1     -36.827  19.680   2.656  0.00  0.00    -0.479 OA
ATOM     20  H   UNL     1     -37.083  18.842   2.323  0.00  0.00    +0.295 HD
ENDBRANCH  18  19
ENDBRANCH  16  18
ENDBRANCH  15  16
ENDBRANCH  13  15
ENDBRANCH   1  13
TORSDOF 7
ENDMDL
MODEL 2
REMARK VINA RESULT:      -5.7      1.548      1.765
REMARK  Name = 5830865
REMARK  7 active torsions:
REMARK  status: ('A' for Active; 'I' for Inactive)
REMARK    1  A    between atoms: C_1  and  N_13
REMARK    2  A    between atoms: C_2  and  N_9
REMARK    3  A    between atoms: C_3  and  N_12
REMARK    4  A    between atoms: N_13  and  N_15
REMARK    5  A    between atoms: N_15  and  C_16
REMARK    6  A    between atoms: C_16  and  C_18
REMARK    7  A    between atoms: C_18  and  O_19
REMARK                            x       y       z     vdW  Elec       q    Type
REMARK                         _______ _______ _______ _____ _____    ______ ____
ROOT
ATOM      1  C   UNL     1     -36.599  23.558   3.775  0.00  0.00    +0.082 C 
ATOM      2  C   UNL     1     -35.697  23.333   4.814  0.00  0.00    +0.159 C 
ATOM      3  C   UNL     1     -34.938  25.621   4.651  0.00  0.00    +0.145 C 
ATOM      4  C   UNL     1     -34.866  24.365   5.253  0.00  0.00    +0.049 C 
ATOM      5  C   UNL     1     -36.671  24.814   3.174  0.00  0.00    +0.019 C 
ATOM      6  C   UNL     1     -35.840  25.846   3.611  0.00  0.00    +0.025 C 
ENDROOT
BRANCH   2   9
ATOM      7  O   UNL     1     -35.980  21.950   6.637  0.00  0.00    -0.126 OA
ATOM      8  O   UNL     1     -35.152  21.093   4.795  0.00  0.00    -0.126 OA
ATOM      9  N   UNL     1     -35.605  22.062   5.447  0.00  0.00    +0.059 N 
ENDBRANCH   2   9
BRANCH   3  12
ATOM     10  O   UNL     1     -33.643  26.639   6.266  0.00  0.00    -0.126 OA
ATOM     11  O   UNL     1     -33.819  27.608   4.304  0.00  0.00    -0.126 OA
ATOM     12  N   UNL     1     -34.094  26.673   5.095  0.00  0.00    +0.058 N 
ENDBRANCH   3  12
BRANCH   1  13
ATOM     13  N   UNL     1     -37.451  22.530   3.313  0.00  0.00    -0.259 N 
ATOM     14  H   UNL     1     -38.192  22.217   3.880  0.00  0.00    +0.168 HD
BRANCH  13  15
ATOM     15  N   UNL     1     -37.257  21.977   2.105  0.00  0.00    -0.121 NA
BRANCH  15  16
ATOM     16  C   UNL     1     -38.282  22.084   1.336  0.00  0.00    +0.220 C 
BRANCH  16  18
ATOM     17  O   UNL     1     -40.168  23.249   2.193  0.00  0.00    -0.249 OA
ATOM     18  C   UNL     1     -39.627  22.187   1.970  0.00  0.00    +0.334 C 
BRANCH  18  19
ATOM     19  O   UNL     1     -40.079  20.952   2.226  0.00  0.00    -0.479 OA
ATOM     20  H   UNL     1     -39.722  20.461   2.940  0.00  0.00    +0.295 HD
ENDBRANCH  18  19
ENDBRANCH  16  18
ENDBRANCH  15  16
ENDBRANCH  13  15
ENDBRANCH   1  13
TORSDOF 7
ENDMDL
MODEL 3
REMARK VINA RESULT:      -5.4      2.155      6.131
REMARK  Name = 5830865
REMARK  7 active torsions:
REMARK  status: ('A' for Active; 'I' for Inactive)
REMARK    1  A    between atoms: C_1  and  N_13
REMARK    2  A    between atoms: C_2  and  N_9
REMARK    3  A    between atoms: C_3  and  N_12
REMARK    4  A    between atoms: N_13  and  N_15
REMARK    5  A    between atoms: N_15  and  C_16
REMARK    6  A    between atoms: C_16  and  C_18
REMARK    7  A    between atoms: C_18  and  O_19
REMARK                            x       y       z     vdW  Elec       q    Type
REMARK                         _______ _______ _______ _____ _____    ______ ____
ROOT
ATOM      1  C   UNL     1     -35.472  26.405   4.134  0.00  0.00    +0.082 C 
ATOM      2  C   UNL     1     -34.474  25.891   4.961  0.00  0.00    +0.159 C 
ATOM      3  C   UNL     1     -35.574  23.740   4.954  0.00  0.00    +0.145 C 
ATOM      4  C   UNL     1     -34.524  24.559   5.371  0.00  0.00    +0.049 C 
ATOM      5  C   UNL     1     -36.521  25.587   3.716  0.00  0.00    +0.019 C 
ATOM      6  C   UNL     1     -36.573  24.254   4.126  0.00  0.00    +0.025 C 
ENDROOT
BRANCH   2   9
ATOM      7  O   UNL     1     -33.278  26.953   6.622  0.00  0.00    -0.126 OA
ATOM      8  O   UNL     1     -32.582  27.145   4.550  0.00  0.00    -0.126 OA
ATOM      9  N   UNL     1     -33.390  26.704   5.400  0.00  0.00    +0.059 N 
ENDBRANCH   2   9
BRANCH   3  12
ATOM     10  O   UNL     1     -35.314  21.484   4.553  0.00  0.00    -0.126 OA
ATOM     11  O   UNL     1     -35.986  22.122   6.544  0.00  0.00    -0.126 OA
ATOM     12  N   UNL     1     -35.627  22.384   5.369  0.00  0.00    +0.058 N 
ENDBRANCH   3  12
BRANCH   1  13
ATOM     13  N   UNL     1     -35.443  27.751   3.705  0.00  0.00    -0.259 N 
ATOM     14  H   UNL     1     -35.562  28.476   4.361  0.00  0.00    +0.168 HD
BRANCH  13  15
ATOM     15  N   UNL     1     -35.254  28.049   2.410  0.00  0.00    -0.121 NA
BRANCH  15  16
ATOM     16  C   UNL     1     -34.500  29.076   2.239  0.00  0.00    +0.220 C 
BRANCH  16  18
ATOM     17  O   UNL     1     -35.303  30.894   3.544  0.00  0.00    -0.249 OA
ATOM     18  C   UNL     1     -34.425  30.082   3.336  0.00  0.00    +0.334 C 
BRANCH  18  19
ATOM     19  O   UNL     1     -33.270  29.918   3.994  0.00  0.00    -0.479 OA
ATOM     20  H   UNL     1     -32.459  30.143   3.582  0.00  0.00    +0.295 HD
ENDBRANCH  18  19
ENDBRANCH  16  18
ENDBRANCH  15  16
ENDBRANCH  13  15
ENDBRANCH   1  13
TORSDOF 7
ENDMDL
MODEL 4
REMARK VINA RESULT:      -5.3      1.931      2.592
REMARK  Name = 5830865
REMARK  7 active torsions:
REMARK  status: ('A' for Active; 'I' for Inactive)
REMARK    1  A    between atoms: C_1  and  N_13
REMARK    2  A    between atoms: C_2  and  N_9
REMARK    3  A    between atoms: C_3  and  N_12
REMARK    4  A    between atoms: N_13  and  N_15
REMARK    5  A    between atoms: N_15  and  C_16
REMARK    6  A    between atoms: C_16  and  C_18
REMARK    7  A    between atoms: C_18  and  O_19
REMARK                            x       y       z     vdW  Elec       q    Type
REMARK                         _______ _______ _______ _____ _____    ______ ____
ROOT
ATOM      1  C   UNL     1     -36.409  23.682   3.923  0.00  0.00    +0.082 C 
ATOM      2  C   UNL     1     -36.826  25.013   3.950  0.00  0.00    +0.159 C 
ATOM      3  C   UNL     1     -34.728  25.651   4.963  0.00  0.00    +0.145 C 
ATOM      4  C   UNL     1     -35.986  25.998   4.470  0.00  0.00    +0.049 C 
ATOM      5  C   UNL     1     -35.151  23.336   4.416  0.00  0.00    +0.019 C 
ATOM      6  C   UNL     1     -34.310  24.320   4.936  0.00  0.00    +0.025 C 
ENDROOT
BRANCH   2   9
ATOM      7  O   UNL     1     -38.187  26.394   2.702  0.00  0.00    -0.126 OA
ATOM      8  O   UNL     1     -39.107  24.716   3.777  0.00  0.00    -0.126 OA
ATOM      9  N   UNL     1     -38.104  25.393   3.452  0.00  0.00    +0.059 N 
ENDBRANCH   2   9
BRANCH   3  12
ATOM     10  O   UNL     1     -33.440  26.527   6.664  0.00  0.00    -0.126 OA
ATOM     11  O   UNL     1     -33.565  27.634   4.772  0.00  0.00    -0.126 OA
ATOM     12  N   UNL     1     -33.871  26.652   5.492  0.00  0.00    +0.058 N 
ENDBRANCH   3  12
BRANCH   1  13
ATOM     13  N   UNL     1     -37.242  22.667   3.402  0.00  0.00    -0.259 N 
ATOM     14  H   UNL     1     -37.854  22.182   4.001  0.00  0.00    +0.168 HD
BRANCH  13  15
ATOM     15  N   UNL     1     -37.204  22.360   2.096  0.00  0.00    -0.121 NA
BRANCH  15  16
ATOM     16  C   UNL     1     -37.486  21.127   1.864  0.00  0.00    +0.220 C 
BRANCH  16  18
ATOM     17  O   UNL     1     -35.453  20.296   2.774  0.00  0.00    -0.249 OA
ATOM     18  C   UNL     1     -36.409  20.114   2.049  0.00  0.00    +0.334 C 
BRANCH  18  19
ATOM     19  O   UNL     1     -36.692  19.040   1.300  0.00  0.00    -0.479 OA
ATOM     20  H   UNL     1     -35.998  18.535   0.923  0.00  0.00    +0.295 HD
ENDBRANCH  18  19
ENDBRANCH  16  18
ENDBRANCH  15  16
ENDBRANCH  13  15
ENDBRANCH   1  13
TORSDOF 7
ENDMDL
MODEL 5
REMARK VINA RESULT:      -5.3      2.466      3.081
REMARK  Name = 5830865
REMARK  7 active torsions:
REMARK  status: ('A' for Active; 'I' for Inactive)
REMARK    1  A    between atoms: C_1  and  N_13
REMARK    2  A    between atoms: C_2  and  N_9
REMARK    3  A    between atoms: C_3  and  N_12
REMARK    4  A    between atoms: N_13  and  N_15
REMARK    5  A    between atoms: N_15  and  C_16
REMARK    6  A    between atoms: C_16  and  C_18
REMARK    7  A    between atoms: C_18  and  O_19
REMARK                            x       y       z     vdW  Elec       q    Type
REMARK                         _______ _______ _______ _____ _____    ______ ____
ROOT
ATOM      1  C   UNL     1     -36.609  23.601   3.804  0.00  0.00    +0.082 C 
ATOM      2  C   UNL     1     -36.998  24.939   3.859  0.00  0.00    +0.159 C 
ATOM      3  C   UNL     1     -34.841  25.529   4.774  0.00  0.00    +0.145 C 
ATOM      4  C   UNL     1     -36.114  25.904   4.344  0.00  0.00    +0.049 C 
ATOM      5  C   UNL     1     -35.336  23.227   4.233  0.00  0.00    +0.019 C 
ATOM      6  C   UNL     1     -34.451  24.191   4.718  0.00  0.00    +0.025 C 
ENDROOT
BRANCH   2   9
ATOM      7  O   UNL     1     -39.290  24.690   3.797  0.00  0.00    -0.126 OA
ATOM      8  O   UNL     1     -38.390  26.354   2.686  0.00  0.00    -0.126 OA
ATOM      9  N   UNL     1     -38.290  25.348   3.426  0.00  0.00    +0.059 N 
ENDBRANCH   2   9
BRANCH   3  12
ATOM     10  O   UNL     1     -33.349  26.301   6.354  0.00  0.00    -0.126 OA
ATOM     11  O   UNL     1     -33.756  27.557   4.600  0.00  0.00    -0.126 OA
ATOM     12  N   UNL     1     -33.939  26.509   5.267  0.00  0.00    +0.058 N 
ENDBRANCH   3  12
BRANCH   1  13
ATOM     13  N   UNL     1     -37.486  22.606   3.318  0.00  0.00    -0.259 N 
ATOM     14  H   UNL     1     -38.406  22.554   3.663  0.00  0.00    +0.168 HD
BRANCH  13  15
ATOM     15  N   UNL     1     -37.073  21.731   2.387  0.00  0.00    -0.121 NA
BRANCH  15  16
ATOM     16  C   UNL     1     -37.930  21.564   1.443  0.00  0.00    +0.220 C 
BRANCH  16  18
ATOM     17  O   UNL     1     -40.124  21.149   2.258  0.00  0.00    -0.249 OA
ATOM     18  C   UNL     1     -39.353  21.914   1.717  0.00  0.00    +0.334 C 
BRANCH  18  19
ATOM     19  O   UNL     1     -39.585  23.155   1.273  0.00  0.00    -0.479 OA
ATOM     20  H   UNL     1     -39.482  23.887   1.850  0.00  0.00    +0.295 HD
ENDBRANCH  18  19
ENDBRANCH  16  18
ENDBRANCH  15  16
ENDBRANCH  13  15
ENDBRANCH   1  13
TORSDOF 7
ENDMDL
MODEL 6
REMARK VINA RESULT:      -5.1      2.479      6.743
REMARK  Name = 5830865
REMARK  7 active torsions:
REMARK  status: ('A' for Active; 'I' for Inactive)
REMARK    1  A    between atoms: C_1  and  N_13
REMARK    2  A    between atoms: C_2  and  N_9
REMARK    3  A    between atoms: C_3  and  N_12
REMARK    4  A    between atoms: N_13  and  N_15
REMARK    5  A    between atoms: N_15  and  C_16
REMARK    6  A    between atoms: C_16  and  C_18
REMARK    7  A    between atoms: C_18  and  O_19
REMARK                            x       y       z     vdW  Elec       q    Type
REMARK                         _______ _______ _______ _____ _____    ______ ____
ROOT
ATOM      1  C   UNL     1     -34.165  26.176   4.864  0.00  0.00    +0.082 C 
ATOM      2  C   UNL     1     -33.904  25.594   3.624  0.00  0.00    +0.159 C 
ATOM      3  C   UNL     1     -35.522  23.863   4.095  0.00  0.00    +0.145 C 
ATOM      4  C   UNL     1     -34.582  24.438   3.239  0.00  0.00    +0.049 C 
ATOM      5  C   UNL     1     -35.105  25.602   5.720  0.00  0.00    +0.019 C 
ATOM      6  C   UNL     1     -35.784  24.445   5.336  0.00  0.00    +0.025 C 
ENDROOT
BRANCH   2   9
ATOM      7  O   UNL     1     -31.754  26.234   3.091  0.00  0.00    -0.126 OA
ATOM      8  O   UNL     1     -33.339  26.569   1.612  0.00  0.00    -0.126 OA
ATOM      9  N   UNL     1     -32.952  26.161   2.731  0.00  0.00    +0.059 N 
ENDBRANCH   2   9
BRANCH   3  12
ATOM     10  O   UNL     1     -35.595  21.595   3.684  0.00  0.00    -0.126 OA
ATOM     11  O   UNL     1     -37.427  22.769   3.395  0.00  0.00    -0.126 OA
ATOM     12  N   UNL     1     -36.214  22.686   3.706  0.00  0.00    +0.058 N 
ENDBRANCH   3  12
BRANCH   1  13
ATOM     13  N   UNL     1     -33.491  27.348   5.277  0.00  0.00    -0.259 N 
ATOM     14  H   UNL     1     -33.632  28.190   4.788  0.00  0.00    +0.168 HD
BRANCH  13  15
ATOM     15  N   UNL     1     -32.662  27.319   6.332  0.00  0.00    -0.121 NA
BRANCH  15  16
ATOM     16  C   UNL     1     -31.842  28.310   6.350  0.00  0.00    +0.220 C 
BRANCH  16  18
ATOM     17  O   UNL     1     -32.608  30.319   5.335  0.00  0.00    -0.249 OA
ATOM     18  C   UNL     1     -31.932  29.315   5.252  0.00  0.00    +0.334 C 
BRANCH  18  19
ATOM     19  O   UNL     1     -31.170  28.906   4.230  0.00  0.00    -0.479 OA
ATOM     20  H   UNL     1     -31.339  29.223   3.364  0.00  0.00    +0.295 HD
ENDBRANCH  18  19
ENDBRANCH  16  18
ENDBRANCH  15  16
ENDBRANCH  13  15
ENDBRANCH   1  13
TORSDOF 7
ENDMDL
MODEL 7
REMARK VINA RESULT:      -5.1      2.772      7.024
REMARK  Name = 5830865
REMARK  7 active torsions:
REMARK  status: ('A' for Active; 'I' for Inactive)
REMARK    1  A    between atoms: C_1  and  N_13
REMARK    2  A    between atoms: C_2  and  N_9
REMARK    3  A    between atoms: C_3  and  N_12
REMARK    4  A    between atoms: N_13  and  N_15
REMARK    5  A    between atoms: N_15  and  C_16
REMARK    6  A    between atoms: C_16  and  C_18
REMARK    7  A    between atoms: C_18  and  O_19
REMARK                            x       y       z     vdW  Elec       q    Type
REMARK                         _______ _______ _______ _____ _____    ______ ____
ROOT
ATOM      1  C   UNL     1     -34.170  26.566   4.731  0.00  0.00    +0.082 C 
ATOM      2  C   UNL     1     -35.003  26.903   3.665  0.00  0.00    +0.159 C 
ATOM      3  C   UNL     1     -36.363  24.958   4.113  0.00  0.00    +0.145 C 
ATOM      4  C   UNL     1     -36.101  26.100   3.356  0.00  0.00    +0.049 C 
ATOM      5  C   UNL     1     -34.433  25.425   5.489  0.00  0.00    +0.019 C 
ATOM      6  C   UNL     1     -35.530  24.620   5.180  0.00  0.00    +0.025 C 
ENDROOT
BRANCH   2   9
ATOM      7  O   UNL     1     -34.683  29.177   3.449  0.00  0.00    -0.126 OA
ATOM      8  O   UNL     1     -34.625  27.937   1.639  0.00  0.00    -0.126 OA
ATOM      9  N   UNL     1     -34.758  28.064   2.878  0.00  0.00    +0.059 N 
ENDBRANCH   2   9
BRANCH   3  12
ATOM     10  O   UNL     1     -37.293  22.921   3.558  0.00  0.00    -0.126 OA
ATOM     11  O   UNL     1     -38.624  24.653   3.776  0.00  0.00    -0.126 OA
ATOM     12  N   UNL     1     -37.480  24.138   3.800  0.00  0.00    +0.058 N 
ENDBRANCH   3  12
BRANCH   1  13
ATOM     13  N   UNL     1     -33.052  27.364   5.065  0.00  0.00    -0.259 N 
ATOM     14  H   UNL     1     -32.573  27.855   4.358  0.00  0.00    +0.168 HD
BRANCH  13  15
ATOM     15  N   UNL     1     -32.640  27.460   6.338  0.00  0.00    -0.121 NA
BRANCH  15  16
ATOM     16  C   UNL     1     -31.917  28.501   6.553  0.00  0.00    +0.220 C 
BRANCH  16  18
ATOM     17  O   UNL     1     -30.762  29.419   4.689  0.00  0.00    -0.249 OA
ATOM     18  C   UNL     1     -31.721  29.462   5.431  0.00  0.00    +0.334 C 
BRANCH  18  19
ATOM     19  O   UNL     1     -32.747  30.323   5.416  0.00  0.00    -0.479 OA
ATOM     20  H   UNL     1     -33.628  30.002   5.406  0.00  0.00    +0.295 HD
ENDBRANCH  18  19
ENDBRANCH  16  18
ENDBRANCH  15  16
ENDBRANCH  13  15
ENDBRANCH   1  13
TORSDOF 7
ENDMDL
MODEL 8
REMARK VINA RESULT:      -5.0      2.860      6.347
REMARK  Name = 5830865
REMARK  7 active torsions:
REMARK  status: ('A' for Active; 'I' for Inactive)
REMARK    1  A    between atoms: C_1  and  N_13
REMARK    2  A    between atoms: C_2  and  N_9
REMARK    3  A    between atoms: C_3  and  N_12
REMARK    4  A    between atoms: N_13  and  N_15
REMARK    5  A    between atoms: N_15  and  C_16
REMARK    6  A    between atoms: C_16  and  C_18
REMARK    7  A    between atoms: C_18  and  O_19
REMARK                            x       y       z     vdW  Elec       q    Type
REMARK                         _______ _______ _______ _____ _____    ______ ____
ROOT
ATOM      1  C   UNL     1     -37.181  23.076   2.911  0.00  0.00    +0.082 C 
ATOM      2  C   UNL     1     -38.471  23.536   2.650  0.00  0.00    +0.159 C 
ATOM      3  C   UNL     1     -38.905  21.566   1.319  0.00  0.00    +0.145 C 
ATOM      4  C   UNL     1     -39.334  22.781   1.854  0.00  0.00    +0.049 C 
ATOM      5  C   UNL     1     -36.753  21.860   2.376  0.00  0.00    +0.019 C 
ATOM      6  C   UNL     1     -37.614  21.106   1.580  0.00  0.00    +0.025 C 
ENDROOT
BRANCH   2   9
ATOM      7  O   UNL     1     -38.300  25.819   2.923  0.00  0.00    -0.126 OA
ATOM      8  O   UNL     1     -39.963  24.772   3.900  0.00  0.00    -0.126 OA
ATOM      9  N   UNL     1     -38.934  24.771   3.185  0.00  0.00    +0.059 N 
ENDBRANCH   2   9
BRANCH   3  12
ATOM     10  O   UNL     1     -39.302  19.897  -0.221  0.00  0.00    -0.126 OA
ATOM     11  O   UNL     1     -41.013  21.037   0.548  0.00  0.00    -0.126 OA
ATOM     12  N   UNL     1     -39.781  20.797   0.509  0.00  0.00    +0.058 N 
ENDBRANCH   3  12
BRANCH   1  13
ATOM     13  N   UNL     1     -36.289  23.821   3.713  0.00  0.00    -0.259 N 
ATOM     14  H   UNL     1     -35.743  24.532   3.306  0.00  0.00    +0.168 HD
BRANCH  13  15
ATOM     15  N   UNL     1     -36.181  23.568   5.027  0.00  0.00    -0.121 NA
BRANCH  15  16
ATOM     16  C   UNL     1     -35.511  24.467   5.656  0.00  0.00    +0.220 C 
BRANCH  16  18
ATOM     17  O   UNL     1     -34.596  26.387   4.594  0.00  0.00    -0.249 OA
ATOM     18  C   UNL     1     -35.548  25.863   5.134  0.00  0.00    +0.334 C 
BRANCH  18  19
ATOM     19  O   UNL     1     -36.760  26.380   5.371  0.00  0.00    -0.479 OA
ATOM     20  H   UNL     1     -37.080  26.441   6.250  0.00  0.00    +0.295 HD
ENDBRANCH  18  19
ENDBRANCH  16  18
ENDBRANCH  15  16
ENDBRANCH  13  15
ENDBRANCH   1  13
TORSDOF 7
ENDMDL
MODEL 9
REMARK VINA RESULT:      -5.0      2.204      3.706
REMARK  Name = 5830865
REMARK  7 active torsions:
REMARK  status: ('A' for Active; 'I' for Inactive)
REMARK    1  A    between atoms: C_1  and  N_13
REMARK    2  A    between atoms: C_2  and  N_9
REMARK    3  A    between atoms: C_3  and  N_12
REMARK    4  A    between atoms: N_13  and  N_15
REMARK    5  A    between atoms: N_15  and  C_16
REMARK    6  A    between atoms: C_16  and  C_18
REMARK    7  A    between atoms: C_18  and  O_19
REMARK                            x       y       z     vdW  Elec       q    Type
REMARK                         _______ _______ _______ _____ _____    ______ ____
ROOT
ATOM      1  C   UNL     1     -35.942  25.488   4.613  0.00  0.00    +0.082 C 
ATOM      2  C   UNL     1     -35.639  26.271   3.499  0.00  0.00    +0.159 C 
ATOM      3  C   UNL     1     -33.657  27.087   4.611  0.00  0.00    +0.145 C 
ATOM      4  C   UNL     1     -34.496  27.070   3.497  0.00  0.00    +0.049 C 
ATOM      5  C   UNL     1     -35.102  25.505   5.726  0.00  0.00    +0.019 C 
ATOM      6  C   UNL     1     -33.959  26.305   5.726  0.00  0.00    +0.025 C 
ENDROOT
BRANCH   2   9
ATOM      7  O   UNL     1     -36.058  25.741   1.294  0.00  0.00    -0.126 OA
ATOM      8  O   UNL     1     -37.612  26.798   2.427  0.00  0.00    -0.126 OA
ATOM      9  N   UNL     1     -36.479  26.270   2.349  0.00  0.00    +0.059 N 
ENDBRANCH   2   9
BRANCH   3  12
ATOM     10  O   UNL     1     -32.511  28.989   5.235  0.00  0.00    -0.126 OA
ATOM     11  O   UNL     1     -31.475  27.506   3.990  0.00  0.00    -0.126 OA
ATOM     12  N   UNL     1     -32.492  27.900   4.612  0.00  0.00    +0.058 N 
ENDBRANCH   3  12
BRANCH   1  13
ATOM     13  N   UNL     1     -37.094  24.670   4.639  0.00  0.00    -0.259 N 
ATOM     14  H   UNL     1     -37.914  24.993   5.078  0.00  0.00    +0.168 HD
BRANCH  13  15
ATOM     15  N   UNL     1     -37.079  23.456   4.067  0.00  0.00    -0.121 NA
BRANCH  15  16
ATOM     16  C   UNL     1     -35.909  22.922   4.059  0.00  0.00    +0.220 C 
BRANCH  16  18
ATOM     17  O   UNL     1     -35.042  20.807   4.713  0.00  0.00    -0.249 OA
ATOM     18  C   UNL     1     -35.634  21.820   5.023  0.00  0.00    +0.334 C 
BRANCH  18  19
ATOM     19  O   UNL     1     -36.142  22.154   6.217  0.00  0.00    -0.479 OA
ATOM     20  H   UNL     1     -35.690  22.766   6.764  0.00  0.00    +0.295 HD
ENDBRANCH  18  19
ENDBRANCH  16  18
ENDBRANCH  15  16
ENDBRANCH  13  15
ENDBRANCH   1  13
TORSDOF 7
ENDMDL
