MODEL 1
REMARK VINA RESULT:      -5.5      0.000      0.000
REMARK  Name = 56985150
REMARK  5 active torsions:
REMARK  status: ('A' for Active; 'I' for Inactive)
REMARK    1  A    between atoms: C2*_2  and  O2*_16
REMARK    2  A    between atoms: C3*_3  and  O3*_18
REMARK    3  A    between atoms: C1*_4  and  N_8
REMARK    4  A    between atoms: C4*_5  and  C5*_20
REMARK    5  A    between atoms: C5*_20  and  O5*_21
REMARK                            x       y       z     vdW  Elec       q    Type
REMARK                         _______ _______ _______ _____ _____    ______ ____
ROOT
ATOM      1  O4* UNL     1     -36.491  24.155   2.703  0.00  0.00    -0.333 OA
ATOM      2  C2* UNL     1     -35.775  22.912   4.590  0.00  0.00    +0.187 C 
ATOM      3  C3* UNL     1     -35.506  24.381   4.846  0.00  0.00    +0.171 C 
ATOM      4  C1* UNL     1     -36.789  22.970   3.460  0.00  0.00    +0.227 C 
ATOM      5  C4* UNL     1     -35.545  24.962   3.440  0.00  0.00    +0.175 C 
ENDROOT
BRANCH   4   8
ATOM      6  S   UNL     1     -39.369  21.964   1.867  0.00  0.00    -0.018 S 
ATOM      7  O   UNL     1     -36.202  18.574   0.172  0.00  0.00    -0.270 OA
ATOM      8  N   UNL     1     -36.709  21.830   2.593  0.00  0.00    -0.245 N 
ATOM      9  N   UNL     1     -37.564  20.212   1.052  0.00  0.00    -0.264 N 
ATOM     10  C   UNL     1     -35.464  21.208   2.434  0.00  0.00    +0.069 C 
ATOM     11  C   UNL     1     -37.813  21.325   1.855  0.00  0.00    +0.146 C 
ATOM     12  C   UNL     1     -35.224  20.144   1.658  0.00  0.00    +0.047 C 
ATOM     13  C   UNL     1     -36.352  19.558   0.891  0.00  0.00    +0.248 C 
ATOM     14  C   UNL     1     -33.877  19.509   1.520  0.00  0.00    +0.037 C 
ATOM     15  H   UNL     1     -38.328  19.853   0.548  0.00  0.00    +0.157 HD
ENDBRANCH   4   8
BRANCH   2  16
ATOM     16  O2* UNL     1     -36.274  22.252   5.735  0.00  0.00    -0.378 OA
ATOM     17  H2* UNL     1     -36.920  22.821   6.181  0.00  0.00    +0.211 HD
ENDBRANCH   2  16
BRANCH   3  18
ATOM     18  O3* UNL     1     -36.579  24.958   5.590  0.00  0.00    -0.379 OA
ATOM     19  H3* UNL     1     -37.213  24.265   5.833  0.00  0.00    +0.211 HD
ENDBRANCH   3  18
BRANCH   5  20
ATOM     20  C5* UNL     1     -34.204  24.894   2.722  0.00  0.00    +0.169 C 
BRANCH  20  21
ATOM     21  O5* UNL     1     -33.218  25.492   3.545  0.00  0.00    -0.379 OA
ATOM     22  H5* UNL     1     -32.888  24.839   4.181  0.00  0.00    +0.211 HD
ENDBRANCH  20  21
ENDBRANCH   5  20
TORSDOF 5
ENDMDL
MODEL 2
REMARK VINA RESULT:      -5.4      2.262      3.740
REMARK  Name = 56985150
REMARK  5 active torsions:
REMARK  status: ('A' for Active; 'I' for Inactive)
REMARK    1  A    between atoms: C2*_2  and  O2*_16
REMARK    2  A    between atoms: C3*_3  and  O3*_18
REMARK    3  A    between atoms: C1*_4  and  N_8
REMARK    4  A    between atoms: C4*_5  and  C5*_20
REMARK    5  A    between atoms: C5*_20  and  O5*_21
REMARK                            x       y       z     vdW  Elec       q    Type
REMARK                         _______ _______ _______ _____ _____    ______ ____
ROOT
ATOM      1  O4* UNL     1     -35.289  23.518   4.456  0.00  0.00    -0.333 OA
ATOM      2  C2* UNL     1     -35.398  24.974   2.589  0.00  0.00    +0.187 C 
ATOM      3  C3* UNL     1     -34.533  25.615   3.655  0.00  0.00    +0.171 C 
ATOM      4  C1* UNL     1     -35.405  23.518   3.024  0.00  0.00    +0.227 C 
ATOM      5  C4* UNL     1     -34.943  24.848   4.904  0.00  0.00    +0.175 C 
ENDROOT
BRANCH   4   8
ATOM      6  S   UNL     1     -35.366  20.403   2.314  0.00  0.00    -0.018 S 
ATOM      7  O   UNL     1     -40.204  21.154   1.656  0.00  0.00    -0.270 OA
ATOM      8  N   UNL     1     -36.616  22.842   2.654  0.00  0.00    -0.245 N 
ATOM      9  N   UNL     1     -37.932  20.957   1.993  0.00  0.00    -0.264 N 
ATOM     10  C   UNL     1     -37.809  23.574   2.660  0.00  0.00    +0.069 C 
ATOM     11  C   UNL     1     -36.675  21.461   2.324  0.00  0.00    +0.146 C 
ATOM     12  C   UNL     1     -39.017  23.089   2.349  0.00  0.00    +0.047 C 
ATOM     13  C   UNL     1     -39.128  21.658   1.965  0.00  0.00    +0.248 C 
ATOM     14  C   UNL     1     -40.268  23.908   2.366  0.00  0.00    +0.037 C 
ATOM     15  H   UNL     1     -37.975  20.004   1.754  0.00  0.00    +0.157 HD
ENDBRANCH   4   8
BRANCH   2  16
ATOM     16  O2* UNL     1     -34.870  25.152   1.292  0.00  0.00    -0.378 OA
ATOM     17  H2* UNL     1     -34.726  26.096   1.128  0.00  0.00    +0.211 HD
ENDBRANCH   2  16
BRANCH   3  18
ATOM     18  O3* UNL     1     -33.155  25.341   3.404  0.00  0.00    -0.379 OA
ATOM     19  H3* UNL     1     -32.894  24.535   3.877  0.00  0.00    +0.211 HD
ENDBRANCH   3  18
BRANCH   5  20
ATOM     20  C5* UNL     1     -36.158  25.442   5.605  0.00  0.00    +0.169 C 
BRANCH  20  21
ATOM     21  O5* UNL     1     -36.275  26.804   5.232  0.00  0.00    -0.379 OA
ATOM     22  H5* UNL     1     -35.590  27.022   4.582  0.00  0.00    +0.211 HD
ENDBRANCH  20  21
ENDBRANCH   5  20
TORSDOF 5
ENDMDL
MODEL 3
REMARK VINA RESULT:      -5.3      2.500      5.322
REMARK  Name = 56985150
REMARK  5 active torsions:
REMARK  status: ('A' for Active; 'I' for Inactive)
REMARK    1  A    between atoms: C2*_2  and  O2*_16
REMARK    2  A    between atoms: C3*_3  and  O3*_18
REMARK    3  A    between atoms: C1*_4  and  N_8
REMARK    4  A    between atoms: C4*_5  and  C5*_20
REMARK    5  A    between atoms: C5*_20  and  O5*_21
REMARK                            x       y       z     vdW  Elec       q    Type
REMARK                         _______ _______ _______ _____ _____    ______ ____
ROOT
ATOM      1  O4* UNL     1     -34.932  21.309   2.224  0.00  0.00    -0.333 OA
ATOM      2  C2* UNL     1     -37.272  21.475   1.887  0.00  0.00    +0.187 C 
ATOM      3  C3* UNL     1     -36.704  20.503   0.874  0.00  0.00    +0.171 C 
ATOM      4  C1* UNL     1     -36.166  21.528   2.927  0.00  0.00    +0.227 C 
ATOM      5  C4* UNL     1     -35.225  20.862   0.881  0.00  0.00    +0.175 C 
ENDROOT
BRANCH   4   8
ATOM      6  S   UNL     1     -35.162  21.711   5.955  0.00  0.00    -0.018 S 
ATOM      7  O   UNL     1     -35.994  26.530   5.259  0.00  0.00    -0.270 OA
ATOM      8  N   UNL     1     -36.102  22.796   3.596  0.00  0.00    -0.245 N 
ATOM      9  N   UNL     1     -35.659  24.256   5.438  0.00  0.00    -0.264 N 
ATOM     10  C   UNL     1     -36.447  23.943   2.871  0.00  0.00    +0.069 C 
ATOM     11  C   UNL     1     -35.668  22.954   4.940  0.00  0.00    +0.146 C 
ATOM     12  C   UNL     1     -36.432  25.194   3.347  0.00  0.00    +0.047 C 
ATOM     13  C   UNL     1     -36.017  25.409   4.757  0.00  0.00    +0.248 C 
ATOM     14  C   UNL     1     -36.811  26.392   2.537  0.00  0.00    +0.037 C 
ATOM     15  H   UNL     1     -35.370  24.368   6.372  0.00  0.00    +0.157 HD
ENDBRANCH   4   8
BRANCH   2  16
ATOM     16  O2* UNL     1     -38.502  21.034   2.422  0.00  0.00    -0.378 OA
ATOM     17  H2* UNL     1     -38.560  21.291   3.355  0.00  0.00    +0.211 HD
ENDBRANCH   2  16
BRANCH   3  18
ATOM     18  O3* UNL     1     -36.834  19.163   1.348  0.00  0.00    -0.379 OA
ATOM     19  H3* UNL     1     -36.305  19.053   2.153  0.00  0.00    +0.211 HD
ENDBRANCH   3  18
BRANCH   5  20
ATOM     20  C5* UNL     1     -34.873  21.989  -0.080  0.00  0.00    +0.169 C 
BRANCH  20  21
ATOM     21  O5* UNL     1     -33.929  22.841   0.545  0.00  0.00    -0.379 OA
ATOM     22  H5* UNL     1     -33.523  23.417  -0.121  0.00  0.00    +0.211 HD
ENDBRANCH  20  21
ENDBRANCH   5  20
TORSDOF 5
ENDMDL
MODEL 4
REMARK VINA RESULT:      -5.3      3.445      6.275
REMARK  Name = 56985150
REMARK  5 active torsions:
REMARK  status: ('A' for Active; 'I' for Inactive)
REMARK    1  A    between atoms: C2*_2  and  O2*_16
REMARK    2  A    between atoms: C3*_3  and  O3*_18
REMARK    3  A    between atoms: C1*_4  and  N_8
REMARK    4  A    between atoms: C4*_5  and  C5*_20
REMARK    5  A    between atoms: C5*_20  and  O5*_21
REMARK                            x       y       z     vdW  Elec       q    Type
REMARK                         _______ _______ _______ _____ _____    ______ ____
ROOT
ATOM      1  O4* UNL     1     -36.305  24.191   5.307  0.00  0.00    -0.333 OA
ATOM      2  C2* UNL     1     -35.374  23.653   3.195  0.00  0.00    +0.187 C 
ATOM      3  C3* UNL     1     -36.061  22.422   3.751  0.00  0.00    +0.171 C 
ATOM      4  C1* UNL     1     -35.998  24.762   4.025  0.00  0.00    +0.227 C 
ATOM      5  C4* UNL     1     -36.163  22.755   5.232  0.00  0.00    +0.175 C 
ENDROOT
BRANCH   4   8
ATOM      6  S   UNL     1     -35.880  27.117   1.869  0.00  0.00    -0.018 S 
ATOM      7  O   UNL     1     -32.509  28.931   4.991  0.00  0.00    -0.270 OA
ATOM      8  N   UNL     1     -35.109  25.873   4.211  0.00  0.00    -0.245 N 
ATOM      9  N   UNL     1     -34.093  27.959   3.628  0.00  0.00    -0.264 N 
ATOM     10  C   UNL     1     -34.337  25.913   5.379  0.00  0.00    +0.069 C 
ATOM     11  C   UNL     1     -35.001  26.955   3.295  0.00  0.00    +0.146 C 
ATOM     12  C   UNL     1     -33.471  26.881   5.701  0.00  0.00    +0.047 C 
ATOM     13  C   UNL     1     -33.297  28.018   4.761  0.00  0.00    +0.248 C 
ATOM     14  C   UNL     1     -32.664  26.883   6.960  0.00  0.00    +0.037 C 
ATOM     15  H   UNL     1     -34.008  28.704   2.991  0.00  0.00    +0.157 HD
ENDBRANCH   4   8
BRANCH   2  16
ATOM     16  O2* UNL     1     -35.602  23.814   1.811  0.00  0.00    -0.378 OA
ATOM     17  H2* UNL     1     -36.152  23.085   1.486  0.00  0.00    +0.211 HD
ENDBRANCH   2  16
BRANCH   3  18
ATOM     18  O3* UNL     1     -37.386  22.318   3.230  0.00  0.00    -0.379 OA
ATOM     19  H3* UNL     1     -37.636  21.382   3.169  0.00  0.00    +0.211 HD
ENDBRANCH   3  18
BRANCH   5  20
ATOM     20  C5* UNL     1     -34.925  22.359   6.026  0.00  0.00    +0.169 C 
BRANCH  20  21
ATOM     21  O5* UNL     1     -34.784  20.950   5.974  0.00  0.00    -0.379 OA
ATOM     22  H5* UNL     1     -35.657  20.541   5.875  0.00  0.00    +0.211 HD
ENDBRANCH  20  21
ENDBRANCH   5  20
TORSDOF 5
ENDMDL
MODEL 5
REMARK VINA RESULT:      -5.2      2.579      5.527
REMARK  Name = 56985150
REMARK  5 active torsions:
REMARK  status: ('A' for Active; 'I' for Inactive)
REMARK    1  A    between atoms: C2*_2  and  O2*_16
REMARK    2  A    between atoms: C3*_3  and  O3*_18
REMARK    3  A    between atoms: C1*_4  and  N_8
REMARK    4  A    between atoms: C4*_5  and  C5*_20
REMARK    5  A    between atoms: C5*_20  and  O5*_21
REMARK                            x       y       z     vdW  Elec       q    Type
REMARK                         _______ _______ _______ _____ _____    ______ ____
ROOT
ATOM      1  O4* UNL     1     -38.482  21.723   2.191  0.00  0.00    -0.333 OA
ATOM      2  C2* UNL     1     -37.706  23.169   0.481  0.00  0.00    +0.187 C 
ATOM      3  C3* UNL     1     -38.027  21.822  -0.132  0.00  0.00    +0.171 C 
ATOM      4  C1* UNL     1     -38.463  23.105   1.797  0.00  0.00    +0.227 C 
ATOM      5  C4* UNL     1     -38.029  20.909   1.086  0.00  0.00    +0.175 C 
ENDROOT
BRANCH   4   8
ATOM      6  S   UNL     1     -39.605  25.980   2.595  0.00  0.00    -0.018 S 
ATOM      7  O   UNL     1     -35.867  25.852   5.821  0.00  0.00    -0.270 OA
ATOM      8  N   UNL     1     -37.833  23.876   2.830  0.00  0.00    -0.245 N 
ATOM      9  N   UNL     1     -37.562  25.773   4.261  0.00  0.00    -0.264 N 
ATOM     10  C   UNL     1     -36.741  23.311   3.502  0.00  0.00    +0.069 C 
ATOM     11  C   UNL     1     -38.283  25.161   3.237  0.00  0.00    +0.146 C 
ATOM     12  C   UNL     1     -36.053  23.897   4.490  0.00  0.00    +0.047 C 
ATOM     13  C   UNL     1     -36.464  25.254   4.930  0.00  0.00    +0.248 C 
ATOM     14  C   UNL     1     -34.890  23.258   5.178  0.00  0.00    +0.037 C 
ATOM     15  H   UNL     1     -37.864  26.667   4.539  0.00  0.00    +0.157 HD
ENDBRANCH   4   8
BRANCH   2  16
ATOM     16  O2* UNL     1     -38.124  24.243  -0.335  0.00  0.00    -0.378 OA
ATOM     17  H2* UNL     1     -38.989  24.561  -0.034  0.00  0.00    +0.211 HD
ENDBRANCH   2  16
BRANCH   3  18
ATOM     18  O3* UNL     1     -39.346  21.829  -0.678  0.00  0.00    -0.379 OA
ATOM     19  H3* UNL     1     -39.751  20.956  -0.557  0.00  0.00    +0.211 HD
ENDBRANCH   3  18
BRANCH   5  20
ATOM     20  C5* UNL     1     -36.650  20.365   1.433  0.00  0.00    +0.169 C 
BRANCH  20  21
ATOM     21  O5* UNL     1     -36.715  19.742   2.705  0.00  0.00    -0.379 OA
ATOM     22  H5* UNL     1     -37.254  20.282   3.302  0.00  0.00    +0.211 HD
ENDBRANCH  20  21
ENDBRANCH   5  20
TORSDOF 5
ENDMDL
MODEL 6
REMARK VINA RESULT:      -5.2      2.495      2.997
REMARK  Name = 56985150
REMARK  5 active torsions:
REMARK  status: ('A' for Active; 'I' for Inactive)
REMARK    1  A    between atoms: C2*_2  and  O2*_16
REMARK    2  A    between atoms: C3*_3  and  O3*_18
REMARK    3  A    between atoms: C1*_4  and  N_8
REMARK    4  A    between atoms: C4*_5  and  C5*_20
REMARK    5  A    between atoms: C5*_20  and  O5*_21
REMARK                            x       y       z     vdW  Elec       q    Type
REMARK                         _______ _______ _______ _____ _____    ______ ____
ROOT
ATOM      1  O4* UNL     1     -36.677  24.133   4.510  0.00  0.00    -0.333 OA
ATOM      2  C2* UNL     1     -35.368  22.180   4.214  0.00  0.00    +0.187 C 
ATOM      3  C3* UNL     1     -35.250  22.629   5.656  0.00  0.00    +0.171 C 
ATOM      4  C1* UNL     1     -36.621  22.910   3.759  0.00  0.00    +0.227 C 
ATOM      5  C4* UNL     1     -35.703  24.080   5.577  0.00  0.00    +0.175 C 
ENDROOT
BRANCH   4   8
ATOM      6  S   UNL     1     -39.341  23.144   2.101  0.00  0.00    -0.018 S 
ATOM      7  O   UNL     1     -36.238  24.152  -1.608  0.00  0.00    -0.270 OA
ATOM      8  N   UNL     1     -36.594  23.224   2.359  0.00  0.00    -0.245 N 
ATOM      9  N   UNL     1     -37.561  23.660   0.215  0.00  0.00    -0.264 N 
ATOM     10  C   UNL     1     -35.351  23.468   1.761  0.00  0.00    +0.069 C 
ATOM     11  C   UNL     1     -37.761  23.343   1.557  0.00  0.00    +0.146 C 
ATOM     12  C   UNL     1     -35.159  23.779   0.473  0.00  0.00    +0.047 C 
ATOM     13  C   UNL     1     -36.346  23.883  -0.414  0.00  0.00    +0.248 C 
ATOM     14  C   UNL     1     -33.812  24.029  -0.126  0.00  0.00    +0.037 C 
ATOM     15  H   UNL     1     -38.366  23.732  -0.345  0.00  0.00    +0.157 HD
ENDBRANCH   4   8
BRANCH   2  16
ATOM     16  O2* UNL     1     -35.483  20.778   4.097  0.00  0.00    -0.378 OA
ATOM     17  H2* UNL     1     -35.783  20.406   4.941  0.00  0.00    +0.211 HD
ENDBRANCH   2  16
BRANCH   3  18
ATOM     18  O3* UNL     1     -36.182  21.921   6.472  0.00  0.00    -0.379 OA
ATOM     19  H3* UNL     1     -36.367  22.436   7.273  0.00  0.00    +0.211 HD
ENDBRANCH   3  18
BRANCH   5  20
ATOM     20  C5* UNL     1     -34.576  25.046   5.237  0.00  0.00    +0.169 C 
BRANCH  20  21
ATOM     21  O5* UNL     1     -35.008  26.365   5.520  0.00  0.00    -0.379 OA
ATOM     22  H5* UNL     1     -35.851  26.533   5.070  0.00  0.00    +0.211 HD
ENDBRANCH  20  21
ENDBRANCH   5  20
TORSDOF 5
ENDMDL
MODEL 7
REMARK VINA RESULT:      -5.1      2.740      4.996
REMARK  Name = 56985150
REMARK  5 active torsions:
REMARK  status: ('A' for Active; 'I' for Inactive)
REMARK    1  A    between atoms: C2*_2  and  O2*_16
REMARK    2  A    between atoms: C3*_3  and  O3*_18
REMARK    3  A    between atoms: C1*_4  and  N_8
REMARK    4  A    between atoms: C4*_5  and  C5*_20
REMARK    5  A    between atoms: C5*_20  and  O5*_21
REMARK                            x       y       z     vdW  Elec       q    Type
REMARK                         _______ _______ _______ _____ _____    ______ ____
ROOT
ATOM      1  O4* UNL     1     -34.860  22.487   2.034  0.00  0.00    -0.333 OA
ATOM      2  C2* UNL     1     -36.411  20.697   1.949  0.00  0.00    +0.187 C 
ATOM      3  C3* UNL     1     -35.139  20.270   1.245  0.00  0.00    +0.171 C 
ATOM      4  C1* UNL     1     -35.933  21.881   2.773  0.00  0.00    +0.227 C 
ATOM      5  C4* UNL     1     -34.471  21.607   0.955  0.00  0.00    +0.175 C 
ENDROOT
BRANCH   4   8
ATOM      6  S   UNL     1     -35.644  24.077   5.075  0.00  0.00    -0.018 S 
ATOM      7  O   UNL     1     -40.035  25.532   3.344  0.00  0.00    -0.270 OA
ATOM      8  N   UNL     1     -36.965  22.856   2.980  0.00  0.00    -0.245 N 
ATOM      9  N   UNL     1     -37.990  24.735   4.048  0.00  0.00    -0.264 N 
ATOM     10  C   UNL     1     -38.069  22.842   2.119  0.00  0.00    +0.069 C 
ATOM     11  C   UNL     1     -36.906  23.861   3.984  0.00  0.00    +0.146 C 
ATOM     12  C   UNL     1     -39.106  23.686   2.176  0.00  0.00    +0.047 C 
ATOM     13  C   UNL     1     -39.108  24.734   3.229  0.00  0.00    +0.248 C 
ATOM     14  C   UNL     1     -40.268  23.634   1.237  0.00  0.00    +0.037 C 
ATOM     15  H   UNL     1     -37.958  25.425   4.749  0.00  0.00    +0.157 HD
ENDBRANCH   4   8
BRANCH   2  16
ATOM     16  O2* UNL     1     -36.954  19.665   2.745  0.00  0.00    -0.378 OA
ATOM     17  H2* UNL     1     -37.851  19.459   2.440  0.00  0.00    +0.211 HD
ENDBRANCH   2  16
BRANCH   3  18
ATOM     18  O3* UNL     1     -34.298  19.544   2.141  0.00  0.00    -0.379 OA
ATOM     19  H3* UNL     1     -33.527  20.085   2.371  0.00  0.00    +0.211 HD
ENDBRANCH   3  18
BRANCH   5  20
ATOM     20  C5* UNL     1     -34.924  22.235  -0.356  0.00  0.00    +0.169 C 
BRANCH  20  21
ATOM     21  O5* UNL     1     -35.155  23.617  -0.141  0.00  0.00    -0.379 OA
ATOM     22  H5* UNL     1     -35.189  24.075  -0.995  0.00  0.00    +0.211 HD
ENDBRANCH  20  21
ENDBRANCH   5  20
TORSDOF 5
ENDMDL
MODEL 8
REMARK VINA RESULT:      -5.0      2.887      4.479
REMARK  Name = 56985150
REMARK  5 active torsions:
REMARK  status: ('A' for Active; 'I' for Inactive)
REMARK    1  A    between atoms: C2*_2  and  O2*_16
REMARK    2  A    between atoms: C3*_3  and  O3*_18
REMARK    3  A    between atoms: C1*_4  and  N_8
REMARK    4  A    between atoms: C4*_5  and  C5*_20
REMARK    5  A    between atoms: C5*_20  and  O5*_21
REMARK                            x       y       z     vdW  Elec       q    Type
REMARK                         _______ _______ _______ _____ _____    ______ ____
ROOT
ATOM      1  O4* UNL     1     -35.320  23.245   4.011  0.00  0.00    -0.333 OA
ATOM      2  C2* UNL     1     -36.205  25.145   5.117  0.00  0.00    +0.187 C 
ATOM      3  C3* UNL     1     -34.960  24.692   5.852  0.00  0.00    +0.171 C 
ATOM      4  C1* UNL     1     -36.039  24.465   3.768  0.00  0.00    +0.227 C 
ATOM      5  C4* UNL     1     -34.802  23.261   5.360  0.00  0.00    +0.175 C 
ENDROOT
BRANCH   4   8
ATOM      6  S   UNL     1     -36.383  21.784   2.065  0.00  0.00    -0.018 S 
ATOM      7  O   UNL     1     -40.992  23.479   1.537  0.00  0.00    -0.270 OA
ATOM      8  N   UNL     1     -37.298  24.150   3.155  0.00  0.00    -0.245 N 
ATOM      9  N   UNL     1     -38.808  22.819   1.863  0.00  0.00    -0.264 N 
ATOM     10  C   UNL     1     -38.372  25.024   3.366  0.00  0.00    +0.069 C 
ATOM     11  C   UNL     1     -37.525  22.978   2.384  0.00  0.00    +0.146 C 
ATOM     12  C   UNL     1     -39.606  24.867   2.872  0.00  0.00    +0.047 C 
ATOM     13  C   UNL     1     -39.885  23.675   2.031  0.00  0.00    +0.248 C 
ATOM     14  C   UNL     1     -40.724  25.828   3.120  0.00  0.00    +0.037 C 
ATOM     15  H   UNL     1     -38.966  22.014   1.319  0.00  0.00    +0.157 HD
ENDBRANCH   4   8
BRANCH   2  16
ATOM     16  O2* UNL     1     -36.283  26.551   5.011  0.00  0.00    -0.378 OA
ATOM     17  H2* UNL     1     -35.492  26.886   4.562  0.00  0.00    +0.211 HD
ENDBRANCH   2  16
BRANCH   3  18
ATOM     18  O3* UNL     1     -33.826  25.437   5.408  0.00  0.00    -0.379 OA
ATOM     19  H3* UNL     1     -33.985  25.763   4.508  0.00  0.00    +0.211 HD
ENDBRANCH   3  18
BRANCH   5  20
ATOM     20  C5* UNL     1     -35.592  22.251   6.182  0.00  0.00    +0.169 C 
BRANCH  20  21
ATOM     21  O5* UNL     1     -35.281  20.947   5.721  0.00  0.00    -0.379 OA
ATOM     22  H5* UNL     1     -35.833  20.300   6.185  0.00  0.00    +0.211 HD
ENDBRANCH  20  21
ENDBRANCH   5  20
TORSDOF 5
ENDMDL
MODEL 9
REMARK VINA RESULT:      -5.0      3.286      4.140
REMARK  Name = 56985150
REMARK  5 active torsions:
REMARK  status: ('A' for Active; 'I' for Inactive)
REMARK    1  A    between atoms: C2*_2  and  O2*_16
REMARK    2  A    between atoms: C3*_3  and  O3*_18
REMARK    3  A    between atoms: C1*_4  and  N_8
REMARK    4  A    between atoms: C4*_5  and  C5*_20
REMARK    5  A    between atoms: C5*_20  and  O5*_21
REMARK                            x       y       z     vdW  Elec       q    Type
REMARK                         _______ _______ _______ _____ _____    ______ ____
ROOT
ATOM      1  O4* UNL     1     -35.126  23.637   3.744  0.00  0.00    -0.333 OA
ATOM      2  C2* UNL     1     -36.307  25.252   5.014  0.00  0.00    +0.187 C 
ATOM      3  C3* UNL     1     -35.169  24.713   5.855  0.00  0.00    +0.171 C 
ATOM      4  C1* UNL     1     -35.880  24.853   3.611  0.00  0.00    +0.227 C 
ATOM      5  C4* UNL     1     -34.835  23.410   5.142  0.00  0.00    +0.175 C 
ENDROOT
BRANCH   4   8
ATOM      6  S   UNL     1     -36.880  27.127   1.603  0.00  0.00    -0.018 S 
ATOM      7  O   UNL     1     -40.189  23.674   0.367  0.00  0.00    -0.270 OA
ATOM      8  N   UNL     1     -36.998  24.616   2.744  0.00  0.00    -0.245 N 
ATOM      9  N   UNL     1     -38.590  25.186   1.052  0.00  0.00    -0.264 N 
ATOM     10  C   UNL     1     -37.600  23.352   2.774  0.00  0.00    +0.069 C 
ATOM     11  C   UNL     1     -37.500  25.579   1.828  0.00  0.00    +0.146 C 
ATOM     12  C   UNL     1     -38.642  22.973   2.025  0.00  0.00    +0.047 C 
ATOM     13  C   UNL     1     -39.224  23.954   1.074  0.00  0.00    +0.248 C 
ATOM     14  C   UNL     1     -39.257  21.611   2.091  0.00  0.00    +0.037 C 
ATOM     15  H   UNL     1     -38.947  25.854   0.424  0.00  0.00    +0.157 HD
ENDBRANCH   4   8
BRANCH   2  16
ATOM     16  O2* UNL     1     -36.465  26.648   5.158  0.00  0.00    -0.378 OA
ATOM     17  H2* UNL     1     -36.506  26.874   6.100  0.00  0.00    +0.211 HD
ENDBRANCH   2  16
BRANCH   3  18
ATOM     18  O3* UNL     1     -34.033  25.571   5.758  0.00  0.00    -0.379 OA
ATOM     19  H3* UNL     1     -33.761  25.849   6.647  0.00  0.00    +0.211 HD
ENDBRANCH   3  18
BRANCH   5  20
ATOM     20  C5* UNL     1     -35.675  22.231   5.615  0.00  0.00    +0.169 C 
BRANCH  20  21
ATOM     21  O5* UNL     1     -34.861  21.071   5.629  0.00  0.00    -0.379 OA
ATOM     22  H5* UNL     1     -34.008  21.280   6.038  0.00  0.00    +0.211 HD
ENDBRANCH  20  21
ENDBRANCH   5  20
TORSDOF 5
ENDMDL
