MODEL 1
REMARK VINA RESULT:      -5.8      0.000      0.000
REMARK  Name = 196324
REMARK  9 active torsions:
REMARK  status: ('A' for Active; 'I' for Inactive)
REMARK    1  A    between atoms: C_2  and  O_17
REMARK    2  A    between atoms: C_3  and  O_19
REMARK    3  A    between atoms: C_4  and  C_21
REMARK    4  A    between atoms: C_5  and  N_8
REMARK    5  A    between atoms: C_12  and  S_15
REMARK    6  A    between atoms: C_21  and  O_22
REMARK    7  A    between atoms: O_22  and  P_23
REMARK    8  A    between atoms: P_23  and  O_25
REMARK    9  A    between atoms: P_23  and  O_27
REMARK                            x       y       z     vdW  Elec       q    Type
REMARK                         _______ _______ _______ _____ _____    ______ ____
ROOT
ATOM      1  O   UNL     1     -37.059  23.508   3.806  0.00  0.00    -0.333 OA
ATOM      2  C   UNL     1     -38.863  24.154   2.413  0.00  0.00    +0.171 C 
ATOM      3  C   UNL     1     -37.957  25.350   2.615  0.00  0.00    +0.187 C 
ATOM      4  C   UNL     1     -37.951  22.995   2.793  0.00  0.00    +0.176 C 
ATOM      5  C   UNL     1     -37.165  24.941   3.845  0.00  0.00    +0.229 C 
ENDROOT
BRANCH   5   8
ATOM      6  O   UNL     1     -35.980  26.296   6.054  0.00  0.00    -0.252 OA
ATOM      7  O   UNL     1     -32.079  27.052   3.746  0.00  0.00    -0.269 OA
ATOM      8  N   UNL     1     -35.845  25.506   3.861  0.00  0.00    -0.216 N 
ATOM      9  N   UNL     1     -34.042  26.664   4.883  0.00  0.00    -0.235 N 
ATOM     10  C   UNL     1     -35.062  25.396   2.717  0.00  0.00    +0.082 C 
ATOM     11  C   UNL     1     -35.343  26.161   5.008  0.00  0.00    +0.315 C 
ATOM     12  C   UNL     1     -33.820  25.879   2.610  0.00  0.00    +0.094 C 
ATOM     13  C   UNL     1     -33.214  26.583   3.771  0.00  0.00    +0.260 C 
ATOM     14  H   UNL     1     -33.673  27.125   5.671  0.00  0.00    +0.159 HD
BRANCH  12  15
ATOM     15  S   UNL     1     -32.868  25.729   1.178  0.00  0.00    -0.107 S 
ATOM     16  C   UNL     1     -33.767  24.402   0.346  0.00  0.00    +0.074 C 
ENDBRANCH  12  15
ENDBRANCH   5   8
BRANCH   2  17
ATOM     17  O   UNL     1     -39.943  24.188   3.345  0.00  0.00    -0.379 OA
ATOM     18  H   UNL     1     -40.165  23.284   3.617  0.00  0.00    +0.211 HD
ENDBRANCH   2  17
BRANCH   3  19
ATOM     19  O   UNL     1     -38.682  26.547   2.808  0.00  0.00    -0.378 OA
ATOM     20  H   UNL     1     -38.183  27.291   2.437  0.00  0.00    +0.211 HD
ENDBRANCH   3  19
BRANCH   4  21
ATOM     21  C   UNL     1     -37.107  22.487   1.631  0.00  0.00    +0.186 C 
BRANCH  21  22
ATOM     22  O   UNL     1     -35.818  22.156   2.118  0.00  0.00    -0.271 OA
BRANCH  22  23
ATOM     23  P   UNL     1     -35.530  20.626   2.562  0.00  0.00    +0.473 P 
ATOM     24  O   UNL     1     -34.340  19.989   1.906  0.00  0.00    -0.227 OA
BRANCH  23  25
ATOM     25  O   UNL     1     -36.942  19.880   2.307  0.00  0.00    -0.303 OA
ATOM     26  H   UNL     1     -36.899  19.383   1.475  0.00  0.00    +0.222 HD
ENDBRANCH  23  25
BRANCH  23  27
ATOM     27  O   UNL     1     -35.449  20.728   4.175  0.00  0.00    -0.303 OA
ATOM     28  H   UNL     1     -35.980  21.479   4.479  0.00  0.00    +0.222 HD
ENDBRANCH  23  27
ENDBRANCH  22  23
ENDBRANCH  21  22
ENDBRANCH   4  21
TORSDOF 9
ENDMDL
MODEL 2
REMARK VINA RESULT:      -5.6      2.396      4.662
REMARK  Name = 196324
REMARK  9 active torsions:
REMARK  status: ('A' for Active; 'I' for Inactive)
REMARK    1  A    between atoms: C_2  and  O_17
REMARK    2  A    between atoms: C_3  and  O_19
REMARK    3  A    between atoms: C_4  and  C_21
REMARK    4  A    between atoms: C_5  and  N_8
REMARK    5  A    between atoms: C_12  and  S_15
REMARK    6  A    between atoms: C_21  and  O_22
REMARK    7  A    between atoms: O_22  and  P_23
REMARK    8  A    between atoms: P_23  and  O_25
REMARK    9  A    between atoms: P_23  and  O_27
REMARK                            x       y       z     vdW  Elec       q    Type
REMARK                         _______ _______ _______ _____ _____    ______ ____
ROOT
ATOM      1  O   UNL     1     -36.807  23.105   4.439  0.00  0.00    -0.333 OA
ATOM      2  C   UNL     1     -35.243  21.548   3.577  0.00  0.00    +0.171 C 
ATOM      3  C   UNL     1     -35.676  22.468   2.456  0.00  0.00    +0.187 C 
ATOM      4  C   UNL     1     -35.638  22.344   4.813  0.00  0.00    +0.176 C 
ATOM      5  C   UNL     1     -36.961  23.058   3.011  0.00  0.00    +0.229 C 
ENDROOT
BRANCH   5   8
ATOM      6  O   UNL     1     -39.308  24.589   3.529  0.00  0.00    -0.252 OA
ATOM      7  O   UNL     1     -37.762  28.150   1.070  0.00  0.00    -0.269 OA
ATOM      8  N   UNL     1     -37.210  24.386   2.525  0.00  0.00    -0.216 N 
ATOM      9  N   UNL     1     -38.517  26.355   2.296  0.00  0.00    -0.235 N 
ATOM     10  C   UNL     1     -36.242  24.996   1.734  0.00  0.00    +0.082 C 
ATOM     11  C   UNL     1     -38.408  25.067   2.836  0.00  0.00    +0.315 C 
ATOM     12  C   UNL     1     -36.357  26.226   1.225  0.00  0.00    +0.094 C 
ATOM     13  C   UNL     1     -37.586  27.014   1.503  0.00  0.00    +0.260 C 
ATOM     14  H   UNL     1     -39.346  26.846   2.500  0.00  0.00    +0.159 HD
BRANCH  12  15
ATOM     15  S   UNL     1     -35.139  26.961   0.246  0.00  0.00    -0.107 S 
ATOM     16  C   UNL     1     -34.309  27.972   1.491  0.00  0.00    +0.074 C 
ENDBRANCH  12  15
ENDBRANCH   5   8
BRANCH   2  17
ATOM     17  O   UNL     1     -36.016  20.349   3.560  0.00  0.00    -0.379 OA
ATOM     18  H   UNL     1     -35.435  19.587   3.712  0.00  0.00    +0.211 HD
ENDBRANCH   2  17
BRANCH   3  19
ATOM     19  O   UNL     1     -35.875  21.776   1.240  0.00  0.00    -0.378 OA
ATOM     20  H   UNL     1     -35.332  22.180   0.545  0.00  0.00    +0.211 HD
ENDBRANCH   3  19
BRANCH   4  21
ATOM     21  C   UNL     1     -34.562  23.322   5.270  0.00  0.00    +0.186 C 
BRANCH  21  22
ATOM     22  O   UNL     1     -35.168  24.577   5.521  0.00  0.00    -0.271 OA
BRANCH  22  23
ATOM     23  P   UNL     1     -34.389  25.918   5.057  0.00  0.00    +0.473 P 
ATOM     24  O   UNL     1     -33.355  25.714   3.988  0.00  0.00    -0.227 OA
BRANCH  23  25
ATOM     25  O   UNL     1     -33.835  26.539   6.444  0.00  0.00    -0.303 OA
ATOM     26  H   UNL     1     -33.004  27.011   6.278  0.00  0.00    +0.222 HD
ENDBRANCH  23  25
BRANCH  23  27
ATOM     27  O   UNL     1     -35.596  26.918   4.658  0.00  0.00    -0.303 OA
ATOM     28  H   UNL     1     -35.244  27.663   4.147  0.00  0.00    +0.222 HD
ENDBRANCH  23  27
ENDBRANCH  22  23
ENDBRANCH  21  22
ENDBRANCH   4  21
TORSDOF 9
ENDMDL
MODEL 3
REMARK VINA RESULT:      -5.6      2.800      5.254
REMARK  Name = 196324
REMARK  9 active torsions:
REMARK  status: ('A' for Active; 'I' for Inactive)
REMARK    1  A    between atoms: C_2  and  O_17
REMARK    2  A    between atoms: C_3  and  O_19
REMARK    3  A    between atoms: C_4  and  C_21
REMARK    4  A    between atoms: C_5  and  N_8
REMARK    5  A    between atoms: C_12  and  S_15
REMARK    6  A    between atoms: C_21  and  O_22
REMARK    7  A    between atoms: O_22  and  P_23
REMARK    8  A    between atoms: P_23  and  O_25
REMARK    9  A    between atoms: P_23  and  O_27
REMARK                            x       y       z     vdW  Elec       q    Type
REMARK                         _______ _______ _______ _____ _____    ______ ____
ROOT
ATOM      1  O   UNL     1     -36.795  24.194   4.510  0.00  0.00    -0.333 OA
ATOM      2  C   UNL     1     -35.257  22.685   5.493  0.00  0.00    +0.171 C 
ATOM      3  C   UNL     1     -35.537  22.232   4.076  0.00  0.00    +0.187 C 
ATOM      4  C   UNL     1     -35.709  24.138   5.460  0.00  0.00    +0.176 C 
ATOM      5  C   UNL     1     -36.829  22.968   3.761  0.00  0.00    +0.229 C 
ENDROOT
BRANCH   5   8
ATOM      6  O   UNL     1     -39.293  23.292   2.366  0.00  0.00    -0.252 OA
ATOM      7  O   UNL     1     -37.151  24.159  -1.606  0.00  0.00    -0.269 OA
ATOM      8  N   UNL     1     -36.957  23.277   2.365  0.00  0.00    -0.216 N 
ATOM      9  N   UNL     1     -38.203  23.721   0.393  0.00  0.00    -0.235 N 
ATOM     10  C   UNL     1     -35.800  23.435   1.611  0.00  0.00    +0.082 C 
ATOM     11  C   UNL     1     -38.226  23.419   1.760  0.00  0.00    +0.315 C 
ATOM     12  C   UNL     1     -35.790  23.725   0.306  0.00  0.00    +0.094 C 
ATOM     13  C   UNL     1     -37.082  23.892  -0.410  0.00  0.00    +0.260 C 
ATOM     14  H   UNL     1     -39.078  23.824  -0.048  0.00  0.00    +0.159 HD
BRANCH  12  15
ATOM     15  S   UNL     1     -34.338  23.917  -0.608  0.00  0.00    -0.107 S 
ATOM     16  C   UNL     1     -33.474  22.402  -0.138  0.00  0.00    +0.074 C 
ENDBRANCH  12  15
ENDBRANCH   5   8
BRANCH   2  17
ATOM     17  O   UNL     1     -36.094  21.984   6.412  0.00  0.00    -0.379 OA
ATOM     18  H   UNL     1     -35.570  21.318   6.884  0.00  0.00    +0.211 HD
ENDBRANCH   2  17
BRANCH   3  19
ATOM     19  O   UNL     1     -35.672  20.830   3.977  0.00  0.00    -0.378 OA
ATOM     20  H   UNL     1     -35.077  20.402   4.613  0.00  0.00    +0.211 HD
ENDBRANCH   3  19
BRANCH   4  21
ATOM     21  C   UNL     1     -34.621  25.097   4.993  0.00  0.00    +0.186 C 
BRANCH  21  22
ATOM     22  O   UNL     1     -35.199  26.375   4.794  0.00  0.00    -0.271 OA
BRANCH  22  23
ATOM     23  P   UNL     1     -35.221  26.988   3.296  0.00  0.00    +0.473 P 
ATOM     24  O   UNL     1     -34.164  26.452   2.375  0.00  0.00    -0.227 OA
BRANCH  23  25
ATOM     25  O   UNL     1     -35.183  28.587   3.534  0.00  0.00    -0.303 OA
ATOM     26  H   UNL     1     -35.822  28.826   4.225  0.00  0.00    +0.222 HD
ENDBRANCH  23  25
BRANCH  23  27
ATOM     27  O   UNL     1     -36.743  26.719   2.818  0.00  0.00    -0.303 OA
ATOM     28  H   UNL     1     -37.343  27.309   3.301  0.00  0.00    +0.222 HD
ENDBRANCH  23  27
ENDBRANCH  22  23
ENDBRANCH  21  22
ENDBRANCH   4  21
TORSDOF 9
ENDMDL
MODEL 4
REMARK VINA RESULT:      -5.6      2.784      5.201
REMARK  Name = 196324
REMARK  9 active torsions:
REMARK  status: ('A' for Active; 'I' for Inactive)
REMARK    1  A    between atoms: C_2  and  O_17
REMARK    2  A    between atoms: C_3  and  O_19
REMARK    3  A    between atoms: C_4  and  C_21
REMARK    4  A    between atoms: C_5  and  N_8
REMARK    5  A    between atoms: C_12  and  S_15
REMARK    6  A    between atoms: C_21  and  O_22
REMARK    7  A    between atoms: O_22  and  P_23
REMARK    8  A    between atoms: P_23  and  O_25
REMARK    9  A    between atoms: P_23  and  O_27
REMARK                            x       y       z     vdW  Elec       q    Type
REMARK                         _______ _______ _______ _____ _____    ______ ____
ROOT
ATOM      1  O   UNL     1     -37.134  22.951   3.978  0.00  0.00    -0.333 OA
ATOM      2  C   UNL     1     -35.572  21.582   2.839  0.00  0.00    +0.171 C 
ATOM      3  C   UNL     1     -36.405  22.320   1.813  0.00  0.00    +0.187 C 
ATOM      4  C   UNL     1     -35.797  22.416   4.093  0.00  0.00    +0.176 C 
ATOM      5  C   UNL     1     -37.607  22.753   2.636  0.00  0.00    +0.229 C 
ENDROOT
BRANCH   5   8
ATOM      6  O   UNL     1     -40.356  23.134   1.989  0.00  0.00    -0.252 OA
ATOM      7  O   UNL     1     -39.672  27.525   0.820  0.00  0.00    -0.269 OA
ATOM      8  N   UNL     1     -38.185  23.978   2.159  0.00  0.00    -0.216 N 
ATOM      9  N   UNL     1     -39.992  25.324   1.409  0.00  0.00    -0.235 N 
ATOM     10  C   UNL     1     -37.357  25.082   1.992  0.00  0.00    +0.082 C 
ATOM     11  C   UNL     1     -39.564  24.071   1.865  0.00  0.00    +0.315 C 
ATOM     12  C   UNL     1     -37.777  26.275   1.557  0.00  0.00    +0.094 C 
ATOM     13  C   UNL     1     -39.214  26.460   1.224  0.00  0.00    +0.260 C 
ATOM     14  H   UNL     1     -40.950  25.409   1.197  0.00  0.00    +0.159 HD
BRANCH  12  15
ATOM     15  S   UNL     1     -36.728  27.631   1.358  0.00  0.00    -0.107 S 
ATOM     16  C   UNL     1     -36.165  27.341  -0.334  0.00  0.00    +0.074 C 
ENDBRANCH  12  15
ENDBRANCH   5   8
BRANCH   2  17
ATOM     17  O   UNL     1     -36.111  20.282   3.072  0.00  0.00    -0.379 OA
ATOM     18  H   UNL     1     -36.187  20.129   4.027  0.00  0.00    +0.211 HD
ENDBRANCH   2  17
BRANCH   3  19
ATOM     19  O   UNL     1     -36.762  21.500   0.720  0.00  0.00    -0.378 OA
ATOM     20  H   UNL     1     -37.589  21.035   0.920  0.00  0.00    +0.211 HD
ENDBRANCH   3  19
BRANCH   4  21
ATOM     21  C   UNL     1     -34.829  23.584   4.222  0.00  0.00    +0.186 C 
BRANCH  21  22
ATOM     22  O   UNL     1     -35.249  24.406   5.297  0.00  0.00    -0.271 OA
BRANCH  22  23
ATOM     23  P   UNL     1     -34.940  25.993   5.223  0.00  0.00    +0.473 P 
ATOM     24  O   UNL     1     -33.988  26.503   6.265  0.00  0.00    -0.227 OA
BRANCH  23  25
ATOM     25  O   UNL     1     -36.408  26.671   5.238  0.00  0.00    -0.303 OA
ATOM     26  H   UNL     1     -36.509  27.242   4.460  0.00  0.00    +0.222 HD
ENDBRANCH  23  25
BRANCH  23  27
ATOM     27  O   UNL     1     -34.453  26.195   3.694  0.00  0.00    -0.303 OA
ATOM     28  H   UNL     1     -33.693  26.797   3.674  0.00  0.00    +0.222 HD
ENDBRANCH  23  27
ENDBRANCH  22  23
ENDBRANCH  21  22
ENDBRANCH   4  21
TORSDOF 9
ENDMDL
MODEL 5
REMARK VINA RESULT:      -5.5      2.914      5.525
REMARK  Name = 196324
REMARK  9 active torsions:
REMARK  status: ('A' for Active; 'I' for Inactive)
REMARK    1  A    between atoms: C_2  and  O_17
REMARK    2  A    between atoms: C_3  and  O_19
REMARK    3  A    between atoms: C_4  and  C_21
REMARK    4  A    between atoms: C_5  and  N_8
REMARK    5  A    between atoms: C_12  and  S_15
REMARK    6  A    between atoms: C_21  and  O_22
REMARK    7  A    between atoms: O_22  and  P_23
REMARK    8  A    between atoms: P_23  and  O_25
REMARK    9  A    between atoms: P_23  and  O_27
REMARK                            x       y       z     vdW  Elec       q    Type
REMARK                         _______ _______ _______ _____ _____    ______ ____
ROOT
ATOM      1  O   UNL     1     -36.673  24.082   4.522  0.00  0.00    -0.333 OA
ATOM      2  C   UNL     1     -35.221  22.477   5.482  0.00  0.00    +0.171 C 
ATOM      3  C   UNL     1     -35.494  22.082   4.046  0.00  0.00    +0.187 C 
ATOM      4  C   UNL     1     -35.609  23.948   5.489  0.00  0.00    +0.176 C 
ATOM      5  C   UNL     1     -36.746  22.884   3.733  0.00  0.00    +0.229 C 
ENDROOT
BRANCH   5   8
ATOM      6  O   UNL     1     -37.706  21.191   1.651  0.00  0.00    -0.252 OA
ATOM      7  O   UNL     1     -37.026  24.417  -1.549  0.00  0.00    -0.269 OA
ATOM      8  N   UNL     1     -36.834  23.243   2.346  0.00  0.00    -0.216 N 
ATOM      9  N   UNL     1     -37.357  22.815   0.069  0.00  0.00    -0.235 N 
ATOM     10  C   UNL     1     -36.424  24.515   1.962  0.00  0.00    +0.082 C 
ATOM     11  C   UNL     1     -37.326  22.333   1.383  0.00  0.00    +0.315 C 
ATOM     12  C   UNL     1     -36.459  24.965   0.703  0.00  0.00    +0.094 C 
ATOM     13  C   UNL     1     -36.963  24.072  -0.373  0.00  0.00    +0.260 C 
ATOM     14  H   UNL     1     -37.696  22.195  -0.617  0.00  0.00    +0.159 HD
BRANCH  12  15
ATOM     15  S   UNL     1     -35.944  26.550   0.253  0.00  0.00    -0.107 S 
ATOM     16  C   UNL     1     -37.392  27.503   0.760  0.00  0.00    +0.074 C 
ENDBRANCH  12  15
ENDBRANCH   5   8
BRANCH   2  17
ATOM     17  O   UNL     1     -36.105  21.784   6.363  0.00  0.00    -0.379 OA
ATOM     18  H   UNL     1     -36.989  22.182   6.313  0.00  0.00    +0.211 HD
ENDBRANCH   2  17
BRANCH   3  19
ATOM     19  O   UNL     1     -35.687  20.691   3.899  0.00  0.00    -0.378 OA
ATOM     20  H   UNL     1     -34.986  20.215   4.370  0.00  0.00    +0.211 HD
ENDBRANCH   3  19
BRANCH   4  21
ATOM     21  C   UNL     1     -34.472  24.873   5.073  0.00  0.00    +0.186 C 
BRANCH  21  22
ATOM     22  O   UNL     1     -35.017  26.132   4.721  0.00  0.00    -0.271 OA
BRANCH  22  23
ATOM     23  P   UNL     1     -34.107  27.153   3.855  0.00  0.00    +0.473 P 
ATOM     24  O   UNL     1     -33.365  26.528   2.710  0.00  0.00    -0.227 OA
BRANCH  23  25
ATOM     25  O   UNL     1     -33.181  27.878   4.965  0.00  0.00    -0.303 OA
ATOM     26  H   UNL     1     -33.737  28.420   5.546  0.00  0.00    +0.222 HD
ENDBRANCH  23  25
BRANCH  23  27
ATOM     27  O   UNL     1     -35.159  28.309   3.437  0.00  0.00    -0.303 OA
ATOM     28  H   UNL     1     -35.052  29.072   4.026  0.00  0.00    +0.222 HD
ENDBRANCH  23  27
ENDBRANCH  22  23
ENDBRANCH  21  22
ENDBRANCH   4  21
TORSDOF 9
ENDMDL
MODEL 6
REMARK VINA RESULT:      -5.5      3.195      4.511
REMARK  Name = 196324
REMARK  9 active torsions:
REMARK  status: ('A' for Active; 'I' for Inactive)
REMARK    1  A    between atoms: C_2  and  O_17
REMARK    2  A    between atoms: C_3  and  O_19
REMARK    3  A    between atoms: C_4  and  C_21
REMARK    4  A    between atoms: C_5  and  N_8
REMARK    5  A    between atoms: C_12  and  S_15
REMARK    6  A    between atoms: C_21  and  O_22
REMARK    7  A    between atoms: O_22  and  P_23
REMARK    8  A    between atoms: P_23  and  O_25
REMARK    9  A    between atoms: P_23  and  O_27
REMARK                            x       y       z     vdW  Elec       q    Type
REMARK                         _______ _______ _______ _____ _____    ______ ____
ROOT
ATOM      1  O   UNL     1     -39.311  23.649   2.980  0.00  0.00    -0.333 OA
ATOM      2  C   UNL     1     -39.029  25.886   2.256  0.00  0.00    +0.171 C 
ATOM      3  C   UNL     1     -37.662  25.277   2.483  0.00  0.00    +0.187 C 
ATOM      4  C   UNL     1     -39.912  24.653   2.133  0.00  0.00    +0.176 C 
ATOM      5  C   UNL     1     -37.993  24.079   3.357  0.00  0.00    +0.229 C 
ENDROOT
BRANCH   5   8
ATOM      6  O   UNL     1     -36.333  22.954   5.382  0.00  0.00    -0.252 OA
ATOM      7  O   UNL     1     -34.520  19.899   2.468  0.00  0.00    -0.269 OA
ATOM      8  N   UNL     1     -37.075  22.992   3.168  0.00  0.00    -0.216 N 
ATOM      9  N   UNL     1     -35.440  21.438   3.910  0.00  0.00    -0.235 N 
ATOM     10  C   UNL     1     -36.969  22.425   1.903  0.00  0.00    +0.082 C 
ATOM     11  C   UNL     1     -36.291  22.501   4.236  0.00  0.00    +0.315 C 
ATOM     12  C   UNL     1     -36.153  21.409   1.603  0.00  0.00    +0.094 C 
ATOM     13  C   UNL     1     -35.293  20.832   2.669  0.00  0.00    +0.260 C 
ATOM     14  H   UNL     1     -34.884  21.082   4.641  0.00  0.00    +0.159 HD
BRANCH  12  15
ATOM     15  S   UNL     1     -36.040  20.723   0.023  0.00  0.00    -0.107 S 
ATOM     16  C   UNL     1     -37.010  19.219   0.269  0.00  0.00    +0.074 C 
ENDBRANCH  12  15
ENDBRANCH   5   8
BRANCH   2  17
ATOM     17  O   UNL     1     -39.446  26.614   3.411  0.00  0.00    -0.379 OA
ATOM     18  H   UNL     1     -39.385  27.566   3.233  0.00  0.00    +0.211 HD
ENDBRANCH   2  17
BRANCH   3  19
ATOM     19  O   UNL     1     -36.770  26.177   3.108  0.00  0.00    -0.378 OA
ATOM     20  H   UNL     1     -36.861  26.106   4.071  0.00  0.00    +0.211 HD
ENDBRANCH   3  19
BRANCH   4  21
ATOM     21  C   UNL     1     -39.980  24.098   0.716  0.00  0.00    +0.186 C 
BRANCH  21  22
ATOM     22  O   UNL     1     -40.956  23.073   0.676  0.00  0.00    -0.271 OA
BRANCH  22  23
ATOM     23  P   UNL     1     -40.484  21.570   0.303  0.00  0.00    +0.473 P 
ATOM     24  O   UNL     1     -39.445  21.481  -0.776  0.00  0.00    -0.227 OA
BRANCH  23  25
ATOM     25  O   UNL     1     -41.871  20.798  -0.007  0.00  0.00    -0.303 OA
ATOM     26  H   UNL     1     -42.057  20.169   0.708  0.00  0.00    +0.222 HD
ENDBRANCH  23  25
BRANCH  23  27
ATOM     27  O   UNL     1     -40.035  20.967   1.736  0.00  0.00    -0.303 OA
ATOM     28  H   UNL     1     -40.247  20.022   1.770  0.00  0.00    +0.222 HD
ENDBRANCH  23  27
ENDBRANCH  22  23
ENDBRANCH  21  22
ENDBRANCH   4  21
TORSDOF 9
ENDMDL
MODEL 7
REMARK VINA RESULT:      -5.5      3.192      5.255
REMARK  Name = 196324
REMARK  9 active torsions:
REMARK  status: ('A' for Active; 'I' for Inactive)
REMARK    1  A    between atoms: C_2  and  O_17
REMARK    2  A    between atoms: C_3  and  O_19
REMARK    3  A    between atoms: C_4  and  C_21
REMARK    4  A    between atoms: C_5  and  N_8
REMARK    5  A    between atoms: C_12  and  S_15
REMARK    6  A    between atoms: C_21  and  O_22
REMARK    7  A    between atoms: O_22  and  P_23
REMARK    8  A    between atoms: P_23  and  O_25
REMARK    9  A    between atoms: P_23  and  O_27
REMARK                            x       y       z     vdW  Elec       q    Type
REMARK                         _______ _______ _______ _____ _____    ______ ____
ROOT
ATOM      1  O   UNL     1     -37.767  23.026   0.413  0.00  0.00    -0.333 OA
ATOM      2  C   UNL     1     -40.116  22.746   0.521  0.00  0.00    +0.171 C 
ATOM      3  C   UNL     1     -39.504  22.171   1.780  0.00  0.00    +0.187 C 
ATOM      4  C   UNL     1     -39.005  23.651   0.009  0.00  0.00    +0.176 C 
ATOM      5  C   UNL     1     -38.051  21.994   1.371  0.00  0.00    +0.229 C 
ENDROOT
BRANCH   5   8
ATOM      6  O   UNL     1     -36.331  19.941   2.345  0.00  0.00    -0.252 OA
ATOM      7  O   UNL     1     -34.639  22.657   5.643  0.00  0.00    -0.269 OA
ATOM      8  N   UNL     1     -37.149  22.124   2.480  0.00  0.00    -0.216 N 
ATOM      9  N   UNL     1     -35.501  21.314   3.985  0.00  0.00    -0.235 N 
ATOM     10  C   UNL     1     -37.092  23.342   3.150  0.00  0.00    +0.082 C 
ATOM     11  C   UNL     1     -36.332  21.047   2.891  0.00  0.00    +0.315 C 
ATOM     12  C   UNL     1     -36.292  23.586   4.193  0.00  0.00    +0.094 C 
ATOM     13  C   UNL     1     -35.400  22.506   4.691  0.00  0.00    +0.260 C 
ATOM     14  H   UNL     1     -34.924  20.575   4.288  0.00  0.00    +0.159 HD
BRANCH  12  15
ATOM     15  S   UNL     1     -36.240  25.107   5.007  0.00  0.00    -0.107 S 
ATOM     16  C   UNL     1     -35.039  25.971   3.972  0.00  0.00    +0.074 C 
ENDBRANCH  12  15
ENDBRANCH   5   8
BRANCH   2  17
ATOM     17  O   UNL     1     -40.324  21.715  -0.444  0.00  0.00    -0.379 OA
ATOM     18  H   UNL     1     -40.141  22.060  -1.332  0.00  0.00    +0.211 HD
ENDBRANCH   2  17
BRANCH   3  19
ATOM     19  O   UNL     1     -40.112  20.957   2.168  0.00  0.00    -0.378 OA
ATOM     20  H   UNL     1     -39.638  20.585   2.928  0.00  0.00    +0.211 HD
ENDBRANCH   3  19
BRANCH   4  21
ATOM     21  C   UNL     1     -39.045  25.052   0.607  0.00  0.00    +0.186 C 
BRANCH  21  22
ATOM     22  O   UNL     1     -40.185  25.156   1.441  0.00  0.00    -0.271 OA
BRANCH  22  23
ATOM     23  P   UNL     1     -40.068  26.021   2.804  0.00  0.00    +0.473 P 
ATOM     24  O   UNL     1     -41.160  27.031   3.011  0.00  0.00    -0.227 OA
BRANCH  23  25
ATOM     25  O   UNL     1     -38.569  26.626   2.748  0.00  0.00    -0.303 OA
ATOM     26  H   UNL     1     -38.242  26.593   1.835  0.00  0.00    +0.222 HD
ENDBRANCH  23  25
BRANCH  23  27
ATOM     27  O   UNL     1     -39.967  24.881   3.948  0.00  0.00    -0.303 OA
ATOM     28  H   UNL     1     -39.034  24.695   4.137  0.00  0.00    +0.222 HD
ENDBRANCH  23  27
ENDBRANCH  22  23
ENDBRANCH  21  22
ENDBRANCH   4  21
TORSDOF 9
ENDMDL
MODEL 8
REMARK VINA RESULT:      -5.5      2.701      4.450
REMARK  Name = 196324
REMARK  9 active torsions:
REMARK  status: ('A' for Active; 'I' for Inactive)
REMARK    1  A    between atoms: C_2  and  O_17
REMARK    2  A    between atoms: C_3  and  O_19
REMARK    3  A    between atoms: C_4  and  C_21
REMARK    4  A    between atoms: C_5  and  N_8
REMARK    5  A    between atoms: C_12  and  S_15
REMARK    6  A    between atoms: C_21  and  O_22
REMARK    7  A    between atoms: O_22  and  P_23
REMARK    8  A    between atoms: P_23  and  O_25
REMARK    9  A    between atoms: P_23  and  O_27
REMARK                            x       y       z     vdW  Elec       q    Type
REMARK                         _______ _______ _______ _____ _____    ______ ____
ROOT
ATOM      1  O   UNL     1     -35.308  24.411   2.993  0.00  0.00    -0.333 OA
ATOM      2  C   UNL     1     -35.452  24.515   5.355  0.00  0.00    +0.171 C 
ATOM      3  C   UNL     1     -36.497  25.440   4.766  0.00  0.00    +0.187 C 
ATOM      4  C   UNL     1     -35.132  23.604   4.178  0.00  0.00    +0.176 C 
ATOM      5  C   UNL     1     -35.987  25.626   3.347  0.00  0.00    +0.229 C 
ENDROOT
BRANCH   5   8
ATOM      6  O   UNL     1     -36.268  27.944   1.713  0.00  0.00    -0.252 OA
ATOM      7  O   UNL     1     -40.128  26.358  -0.211  0.00  0.00    -0.269 OA
ATOM      8  N   UNL     1     -37.050  25.857   2.409  0.00  0.00    -0.216 N 
ATOM      9  N   UNL     1     -38.194  27.134   0.766  0.00  0.00    -0.235 N 
ATOM     10  C   UNL     1     -38.034  24.885   2.269  0.00  0.00    +0.082 C 
ATOM     11  C   UNL     1     -37.104  27.041   1.640  0.00  0.00    +0.315 C 
ATOM     12  C   UNL     1     -39.071  24.984   1.430  0.00  0.00    +0.094 C 
ATOM     13  C   UNL     1     -39.204  26.198   0.583  0.00  0.00    +0.260 C 
ATOM     14  H   UNL     1     -38.251  27.953   0.222  0.00  0.00    +0.159 HD
BRANCH  12  15
ATOM     15  S   UNL     1     -40.280  23.762   1.274  0.00  0.00    -0.107 S 
ATOM     16  C   UNL     1     -39.414  22.371   2.034  0.00  0.00    +0.074 C 
ENDBRANCH  12  15
ENDBRANCH   5   8
BRANCH   2  17
ATOM     17  O   UNL     1     -34.270  25.246   5.680  0.00  0.00    -0.379 OA
ATOM     18  H   UNL     1     -34.403  25.720   6.516  0.00  0.00    +0.211 HD
ENDBRANCH   2  17
BRANCH   3  19
ATOM     19  O   UNL     1     -36.595  26.658   5.474  0.00  0.00    -0.378 OA
ATOM     20  H   UNL     1     -35.994  26.640   6.235  0.00  0.00    +0.211 HD
ENDBRANCH   3  19
BRANCH   4  21
ATOM     21  C   UNL     1     -36.064  22.403   4.075  0.00  0.00    +0.186 C 
BRANCH  21  22
ATOM     22  O   UNL     1     -35.295  21.260   3.745  0.00  0.00    -0.271 OA
BRANCH  22  23
ATOM     23  P   UNL     1     -35.516  20.572   2.296  0.00  0.00    +0.473 P 
ATOM     24  O   UNL     1     -34.348  19.780   1.785  0.00  0.00    -0.227 OA
BRANCH  23  25
ATOM     25  O   UNL     1     -35.982  21.802   1.355  0.00  0.00    -0.303 OA
ATOM     26  H   UNL     1     -36.773  21.546   0.856  0.00  0.00    +0.222 HD
ENDBRANCH  23  25
BRANCH  23  27
ATOM     27  O   UNL     1     -36.878  19.725   2.502  0.00  0.00    -0.303 OA
ATOM     28  H   UNL     1     -37.498  19.930   1.785  0.00  0.00    +0.222 HD
ENDBRANCH  23  27
ENDBRANCH  22  23
ENDBRANCH  21  22
ENDBRANCH   4  21
TORSDOF 9
ENDMDL
MODEL 9
REMARK VINA RESULT:      -5.4      3.071      5.902
REMARK  Name = 196324
REMARK  9 active torsions:
REMARK  status: ('A' for Active; 'I' for Inactive)
REMARK    1  A    between atoms: C_2  and  O_17
REMARK    2  A    between atoms: C_3  and  O_19
REMARK    3  A    between atoms: C_4  and  C_21
REMARK    4  A    between atoms: C_5  and  N_8
REMARK    5  A    between atoms: C_12  and  S_15
REMARK    6  A    between atoms: C_21  and  O_22
REMARK    7  A    between atoms: O_22  and  P_23
REMARK    8  A    between atoms: P_23  and  O_25
REMARK    9  A    between atoms: P_23  and  O_27
REMARK                            x       y       z     vdW  Elec       q    Type
REMARK                         _______ _______ _______ _____ _____    ______ ____
ROOT
ATOM      1  O   UNL     1     -37.104  23.327   3.705  0.00  0.00    -0.333 OA
ATOM      2  C   UNL     1     -35.524  21.703   3.015  0.00  0.00    +0.171 C 
ATOM      3  C   UNL     1     -36.721  21.633   2.092  0.00  0.00    +0.187 C 
ATOM      4  C   UNL     1     -35.682  23.082   3.640  0.00  0.00    +0.176 C 
ATOM      5  C   UNL     1     -37.787  22.349   2.905  0.00  0.00    +0.229 C 
ENDROOT
BRANCH   5   8
ATOM      6  O   UNL     1     -40.190  21.181   1.914  0.00  0.00    -0.252 OA
ATOM      7  O   UNL     1     -41.399  25.044  -0.261  0.00  0.00    -0.269 OA
ATOM      8  N   UNL     1     -38.753  23.014   2.077  0.00  0.00    -0.216 N 
ATOM      9  N   UNL     1     -40.774  23.119   0.835  0.00  0.00    -0.235 N 
ATOM     10  C   UNL     1     -38.520  24.336   1.716  0.00  0.00    +0.082 C 
ATOM     11  C   UNL     1     -39.919  22.350   1.634  0.00  0.00    +0.315 C 
ATOM     12  C   UNL     1     -39.344  25.062   0.953  0.00  0.00    +0.094 C 
ATOM     13  C   UNL     1     -40.595  24.440   0.444  0.00  0.00    +0.260 C 
ATOM     14  H   UNL     1     -41.592  22.674   0.514  0.00  0.00    +0.159 HD
BRANCH  12  15
ATOM     15  S   UNL     1     -39.031  26.703   0.520  0.00  0.00    -0.107 S 
ATOM     16  C   UNL     1     -37.243  26.623   0.276  0.00  0.00    +0.074 C 
ENDBRANCH  12  15
ENDBRANCH   5   8
BRANCH   2  17
ATOM     17  O   UNL     1     -35.642  20.732   4.054  0.00  0.00    -0.379 OA
ATOM     18  H   UNL     1     -35.172  21.044   4.843  0.00  0.00    +0.211 HD
ENDBRANCH   2  17
BRANCH   3  19
ATOM     19  O   UNL     1     -37.079  20.304   1.776  0.00  0.00    -0.378 OA
ATOM     20  H   UNL     1     -36.687  19.700   2.426  0.00  0.00    +0.211 HD
ENDBRANCH   3  19
BRANCH   4  21
ATOM     21  C   UNL     1     -35.047  24.194   2.815  0.00  0.00    +0.186 C 
BRANCH  21  22
ATOM     22  O   UNL     1     -35.674  25.420   3.147  0.00  0.00    -0.271 OA
BRANCH  22  23
ATOM     23  P   UNL     1     -35.121  26.250   4.422  0.00  0.00    +0.473 P 
ATOM     24  O   UNL     1     -33.815  25.762   4.979  0.00  0.00    -0.227 OA
BRANCH  23  25
ATOM     25  O   UNL     1     -36.363  26.235   5.459  0.00  0.00    -0.303 OA
ATOM     26  H   UNL     1     -37.176  26.482   4.992  0.00  0.00    +0.222 HD
ENDBRANCH  23  25
BRANCH  23  27
ATOM     27  O   UNL     1     -35.107  27.775   3.882  0.00  0.00    -0.303 OA
ATOM     28  H   UNL     1     -34.392  28.265   4.317  0.00  0.00    +0.222 HD
ENDBRANCH  23  27
ENDBRANCH  22  23
ENDBRANCH  21  22
ENDBRANCH   4  21
TORSDOF 9
ENDMDL
