MODEL 1
REMARK VINA RESULT:      -7.4      0.000      0.000
REMARK  Name = 52936849
REMARK  7 active torsions:
REMARK  status: ('A' for Active; 'I' for Inactive)
REMARK    1  A    between atoms: C_2  and  C_9
REMARK    2  A    between atoms: C_4  and  N_21
REMARK    3  A    between atoms: C_12  and  C_17
REMARK    4  A    between atoms: C_17  and  O_18
REMARK    5  A    between atoms: O_18  and  C_19
REMARK    6  A    between atoms: N_21  and  S_23
REMARK    7  A    between atoms: S_23  and  C_26
REMARK                            x       y       z     vdW  Elec       q    Type
REMARK                         _______ _______ _______ _____ _____    ______ ____
ROOT
ATOM      1  N   UNL     1     -40.139  26.941   0.990  0.00  0.00    -0.241 NA
ATOM      2  C   UNL     1     -41.701  26.713   2.822  0.00  0.00    +0.022 C 
ATOM      3  C   UNL     1     -40.773  25.953   3.527  0.00  0.00    +0.019 C 
ATOM      4  C   UNL     1     -39.530  25.686   2.964  0.00  0.00    +0.084 C 
ATOM      5  C   UNL     1     -41.338  27.180   1.569  0.00  0.00    +0.099 C 
ATOM      6  C   UNL     1     -39.264  26.199   1.704  0.00  0.00    +0.115 C 
ENDROOT
BRANCH   2   9
ATOM      7  N   UNL     1     -44.411  28.342   4.788  0.00  0.00    -0.243 N 
ATOM      8  N   UNL     1     -46.602  28.095   5.163  0.00  0.00    -0.227 NA
ATOM      9  C   UNL     1     -43.027  27.014   3.391  0.00  0.00    +0.017 C 
ATOM     10  C   UNL     1     -45.562  27.611   4.515  0.00  0.00    +0.139 C 
ATOM     11  C   UNL     1     -43.162  28.055   4.241  0.00  0.00    +0.071 C 
ATOM     12  C   UNL     1     -44.771  29.338   5.659  0.00  0.00    +0.153 C 
ATOM     13  C   UNL     1     -44.226  26.224   3.089  0.00  0.00    +0.004 C 
ATOM     14  C   UNL     1     -45.429  26.510   3.624  0.00  0.00    +0.035 C 
ATOM     15  C   UNL     1     -46.118  29.165   5.873  0.00  0.00    +0.122 C 
BRANCH  12  17
ATOM     16  O   UNL     1     -43.377  30.285   7.346  0.00  0.00    -0.243 OA
ATOM     17  C   UNL     1     -43.905  30.332   6.211  0.00  0.00    +0.357 C 
BRANCH  17  18
ATOM     18  O   UNL     1     -43.692  31.386   5.349  0.00  0.00    -0.445 OA
BRANCH  18  19
ATOM     19  C   UNL     1     -44.621  32.475   5.383  0.00  0.00    +0.209 C 
ATOM     20  C   UNL     1     -44.033  33.648   4.629  0.00  0.00    +0.051 C 
ENDBRANCH  18  19
ENDBRANCH  17  18
ENDBRANCH  12  17
ENDBRANCH   2   9
BRANCH   4  21
ATOM     21  N   UNL     1     -38.559  24.910   3.661  0.00  0.00    -0.213 N 
ATOM     22  H   UNL     1     -38.819  24.358   4.434  0.00  0.00    +0.174 HD
BRANCH  21  23
ATOM     23  S   UNL     1     -36.920  24.954   3.127  0.00  0.00    +0.074 S 
ATOM     24  O   UNL     1     -36.323  26.213   3.531  0.00  0.00    -0.150 OA
ATOM     25  O   UNL     1     -36.837  24.528   1.743  0.00  0.00    -0.150 OA
BRANCH  23  26
ATOM     26  C   UNL     1     -36.179  23.693   4.125  0.00  0.00    +0.125 C 
ATOM     27  C   UNL     1     -35.974  22.417   3.597  0.00  0.00    +0.020 C 
ATOM     28  C   UNL     1     -35.805  23.972   5.439  0.00  0.00    +0.020 C 
ATOM     29  C   UNL     1     -35.395  21.422   4.385  0.00  0.00    +0.001 C 
ATOM     30  C   UNL     1     -35.225  22.977   6.225  0.00  0.00    +0.001 C 
ATOM     31  C   UNL     1     -35.020  21.702   5.698  0.00  0.00    +0.000 C 
ENDBRANCH  23  26
ENDBRANCH  21  23
ENDBRANCH   4  21
TORSDOF 7
ENDMDL
MODEL 2
REMARK VINA RESULT:      -7.4      6.953     11.785
REMARK  Name = 52936849
REMARK  7 active torsions:
REMARK  status: ('A' for Active; 'I' for Inactive)
REMARK    1  A    between atoms: C_2  and  C_9
REMARK    2  A    between atoms: C_4  and  N_21
REMARK    3  A    between atoms: C_12  and  C_17
REMARK    4  A    between atoms: C_17  and  O_18
REMARK    5  A    between atoms: O_18  and  C_19
REMARK    6  A    between atoms: N_21  and  S_23
REMARK    7  A    between atoms: S_23  and  C_26
REMARK                            x       y       z     vdW  Elec       q    Type
REMARK                         _______ _______ _______ _____ _____    ______ ____
ROOT
ATOM      1  N   UNL     1     -37.600  20.205   0.392  0.00  0.00    -0.241 NA
ATOM      2  C   UNL     1     -35.279  20.315   1.064  0.00  0.00    +0.022 C 
ATOM      3  C   UNL     1     -35.617  21.163   2.113  0.00  0.00    +0.019 C 
ATOM      4  C   UNL     1     -36.944  21.534   2.302  0.00  0.00    +0.084 C 
ATOM      5  C   UNL     1     -36.299  19.867   0.240  0.00  0.00    +0.099 C 
ATOM      6  C   UNL     1     -37.889  21.031   1.422  0.00  0.00    +0.115 C 
ENDROOT
BRANCH   2   9
ATOM      7  N   UNL     1     -31.756  20.296  -0.142  0.00  0.00    -0.243 N 
ATOM      8  N   UNL     1     -29.933  19.008   0.002  0.00  0.00    -0.227 NA
ATOM      9  C   UNL     1     -33.882  19.903   0.837  0.00  0.00    +0.017 C 
ATOM     10  C   UNL     1     -31.194  19.131   0.366  0.00  0.00    +0.139 C 
ATOM     11  C   UNL     1     -33.076  20.682   0.084  0.00  0.00    +0.071 C 
ATOM     12  C   UNL     1     -30.777  20.928  -0.864  0.00  0.00    +0.153 C 
ATOM     13  C   UNL     1     -33.313  18.665   1.383  0.00  0.00    +0.004 C 
ATOM     14  C   UNL     1     -32.036  18.301   1.159  0.00  0.00    +0.035 C 
ATOM     15  C   UNL     1     -29.669  20.119  -0.760  0.00  0.00    +0.122 C 
BRANCH  12  17
ATOM     16  O   UNL     1     -31.059  22.285  -2.804  0.00  0.00    -0.243 OA
ATOM     17  C   UNL     1     -30.909  22.166  -1.566  0.00  0.00    +0.357 C 
BRANCH  17  18
ATOM     18  O   UNL     1     -30.856  23.257  -0.727  0.00  0.00    -0.445 OA
BRANCH  18  19
ATOM     19  C   UNL     1     -31.786  24.321  -0.955  0.00  0.00    +0.209 C 
ATOM     20  C   UNL     1     -32.765  24.377   0.198  0.00  0.00    +0.051 C 
ENDBRANCH  18  19
ENDBRANCH  17  18
ENDBRANCH  12  17
ENDBRANCH   2   9
BRANCH   4  21
ATOM     21  N   UNL     1     -37.320  22.402   3.368  0.00  0.00    -0.213 N 
ATOM     22  H   UNL     1     -37.462  22.048   4.276  0.00  0.00    +0.174 HD
BRANCH  21  23
ATOM     23  S   UNL     1     -37.523  24.082   3.039  0.00  0.00    +0.074 S 
ATOM     24  O   UNL     1     -38.704  24.561   3.733  0.00  0.00    -0.150 OA
ATOM     25  O   UNL     1     -37.372  24.333   1.619  0.00  0.00    -0.150 OA
BRANCH  23  26
ATOM     26  C   UNL     1     -36.123  24.785   3.864  0.00  0.00    +0.125 C 
ATOM     27  C   UNL     1     -34.866  24.744   3.260  0.00  0.00    +0.020 C 
ATOM     28  C   UNL     1     -36.276  25.375   5.118  0.00  0.00    +0.020 C 
ATOM     29  C   UNL     1     -33.762  25.293   3.912  0.00  0.00    +0.001 C 
ATOM     30  C   UNL     1     -35.172  25.926   5.769  0.00  0.00    +0.001 C 
ATOM     31  C   UNL     1     -33.914  25.885   5.165  0.00  0.00    +0.000 C 
ENDBRANCH  23  26
ENDBRANCH  21  23
ENDBRANCH   4  21
TORSDOF 7
ENDMDL
MODEL 3
REMARK VINA RESULT:      -7.4      6.761      8.943
REMARK  Name = 52936849
REMARK  7 active torsions:
REMARK  status: ('A' for Active; 'I' for Inactive)
REMARK    1  A    between atoms: C_2  and  C_9
REMARK    2  A    between atoms: C_4  and  N_21
REMARK    3  A    between atoms: C_12  and  C_17
REMARK    4  A    between atoms: C_17  and  O_18
REMARK    5  A    between atoms: O_18  and  C_19
REMARK    6  A    between atoms: N_21  and  S_23
REMARK    7  A    between atoms: S_23  and  C_26
REMARK                            x       y       z     vdW  Elec       q    Type
REMARK                         _______ _______ _______ _____ _____    ______ ____
ROOT
ATOM      1  N   UNL     1     -38.063  23.995   3.372  0.00  0.00    -0.241 NA
ATOM      2  C   UNL     1     -35.787  24.764   3.653  0.00  0.00    +0.022 C 
ATOM      3  C   UNL     1     -35.346  23.808   2.744  0.00  0.00    +0.019 C 
ATOM      4  C   UNL     1     -36.260  22.945   2.151  0.00  0.00    +0.084 C 
ATOM      5  C   UNL     1     -37.144  24.817   3.929  0.00  0.00    +0.099 C 
ATOM      6  C   UNL     1     -37.596  23.080   2.494  0.00  0.00    +0.115 C 
ENDROOT
BRANCH   2   9
ATOM      7  N   UNL     1     -33.423  27.591   4.186  0.00  0.00    -0.243 N 
ATOM      8  N   UNL     1     -32.161  28.446   5.822  0.00  0.00    -0.227 NA
ATOM      9  C   UNL     1     -34.843  25.694   4.300  0.00  0.00    +0.017 C 
ATOM     10  C   UNL     1     -33.012  27.490   5.510  0.00  0.00    +0.139 C 
ATOM     11  C   UNL     1     -34.321  26.712   3.584  0.00  0.00    +0.071 C 
ATOM     12  C   UNL     1     -32.781  28.679   3.653  0.00  0.00    +0.153 C 
ATOM     13  C   UNL     1     -34.423  25.563   5.700  0.00  0.00    +0.004 C 
ATOM     14  C   UNL     1     -33.554  26.417   6.273  0.00  0.00    +0.035 C 
ATOM     15  C   UNL     1     -32.014  29.186   4.676  0.00  0.00    +0.122 C 
BRANCH  12  17
ATOM     16  O   UNL     1     -32.076  28.966   1.393  0.00  0.00    -0.243 OA
ATOM     17  C   UNL     1     -32.904  29.161   2.313  0.00  0.00    +0.357 C 
BRANCH  17  18
ATOM     18  O   UNL     1     -34.060  29.885   2.115  0.00  0.00    -0.445 OA
BRANCH  18  19
ATOM     19  C   UNL     1     -33.965  31.107   1.377  0.00  0.00    +0.209 C 
ATOM     20  C   UNL     1     -33.746  32.251   2.344  0.00  0.00    +0.051 C 
ENDBRANCH  18  19
ENDBRANCH  17  18
ENDBRANCH  12  17
ENDBRANCH   2   9
BRANCH   4  21
ATOM     21  N   UNL     1     -35.838  21.956   1.216  0.00  0.00    -0.213 N 
ATOM     22  H   UNL     1     -35.689  22.190   0.271  0.00  0.00    +0.174 HD
BRANCH  21  23
ATOM     23  S   UNL     1     -35.591  20.342   1.769  0.00  0.00    +0.074 S 
ATOM     24  O   UNL     1     -36.500  19.456   1.066  0.00  0.00    -0.150 OA
ATOM     25  O   UNL     1     -35.538  20.315   3.218  0.00  0.00    -0.150 OA
BRANCH  23  26
ATOM     26  C   UNL     1     -33.965  19.994   1.162  0.00  0.00    +0.125 C 
ATOM     27  C   UNL     1     -33.303  20.930   0.366  0.00  0.00    +0.020 C 
ATOM     28  C   UNL     1     -33.346  18.784   1.477  0.00  0.00    +0.020 C 
ATOM     29  C   UNL     1     -32.024  20.654  -0.116  0.00  0.00    +0.001 C 
ATOM     30  C   UNL     1     -32.067  18.510   0.995  0.00  0.00    +0.001 C 
ATOM     31  C   UNL     1     -31.405  19.445   0.199  0.00  0.00    +0.000 C 
ENDBRANCH  23  26
ENDBRANCH  21  23
ENDBRANCH   4  21
TORSDOF 7
ENDMDL
MODEL 4
REMARK VINA RESULT:      -7.3      1.787      2.552
REMARK  Name = 52936849
REMARK  7 active torsions:
REMARK  status: ('A' for Active; 'I' for Inactive)
REMARK    1  A    between atoms: C_2  and  C_9
REMARK    2  A    between atoms: C_4  and  N_21
REMARK    3  A    between atoms: C_12  and  C_17
REMARK    4  A    between atoms: C_17  and  O_18
REMARK    5  A    between atoms: O_18  and  C_19
REMARK    6  A    between atoms: N_21  and  S_23
REMARK    7  A    between atoms: S_23  and  C_26
REMARK                            x       y       z     vdW  Elec       q    Type
REMARK                         _______ _______ _______ _____ _____    ______ ____
ROOT
ATOM      1  N   UNL     1     -40.737  23.699   1.355  0.00  0.00    -0.241 NA
ATOM      2  C   UNL     1     -41.459  25.897   2.060  0.00  0.00    +0.022 C 
ATOM      3  C   UNL     1     -40.457  25.924   3.024  0.00  0.00    +0.019 C 
ATOM      4  C   UNL     1     -39.597  24.840   3.156  0.00  0.00    +0.084 C 
ATOM      5  C   UNL     1     -41.555  24.771   1.257  0.00  0.00    +0.099 C 
ATOM      6  C   UNL     1     -39.776  23.762   2.304  0.00  0.00    +0.115 C 
ENDROOT
BRANCH   2   9
ATOM      7  N   UNL     1     -43.660  28.800   2.833  0.00  0.00    -0.243 N 
ATOM      8  N   UNL     1     -44.993  30.236   1.755  0.00  0.00    -0.227 NA
ATOM      9  C   UNL     1     -42.388  27.030   1.894  0.00  0.00    +0.017 C 
ATOM     10  C   UNL     1     -44.187  29.204   1.611  0.00  0.00    +0.139 C 
ATOM     11  C   UNL     1     -42.776  27.732   2.980  0.00  0.00    +0.071 C 
ATOM     12  C   UNL     1     -44.178  29.638   3.786  0.00  0.00    +0.153 C 
ATOM     13  C   UNL     1     -42.931  27.436   0.593  0.00  0.00    +0.004 C 
ATOM     14  C   UNL     1     -43.785  28.469   0.461  0.00  0.00    +0.035 C 
ATOM     15  C   UNL     1     -44.992  30.509   3.101  0.00  0.00    +0.122 C 
BRANCH  12  17
ATOM     16  O   UNL     1     -42.839  29.940   5.736  0.00  0.00    -0.243 OA
ATOM     17  C   UNL     1     -43.910  29.590   5.189  0.00  0.00    +0.357 C 
BRANCH  17  18
ATOM     18  O   UNL     1     -44.978  29.106   5.914  0.00  0.00    -0.445 OA
BRANCH  18  19
ATOM     19  C   UNL     1     -45.329  27.729   5.748  0.00  0.00    +0.209 C 
ATOM     20  C   UNL     1     -46.004  27.237   7.010  0.00  0.00    +0.051 C 
ENDBRANCH  18  19
ENDBRANCH  17  18
ENDBRANCH  12  17
ENDBRANCH   2   9
BRANCH   4  21
ATOM     21  N   UNL     1     -38.561  24.838   4.135  0.00  0.00    -0.213 N 
ATOM     22  H   UNL     1     -38.774  24.720   5.089  0.00  0.00    +0.174 HD
BRANCH  21  23
ATOM     23  S   UNL     1     -36.929  25.048   3.620  0.00  0.00    +0.074 S 
ATOM     24  O   UNL     1     -36.355  26.184   4.316  0.00  0.00    -0.150 OA
ATOM     25  O   UNL     1     -36.851  24.975   2.174  0.00  0.00    -0.150 OA
BRANCH  23  26
ATOM     26  C   UNL     1     -36.153  23.599   4.276  0.00  0.00    +0.125 C 
ATOM     27  C   UNL     1     -36.020  22.458   3.483  0.00  0.00    +0.020 C 
ATOM     28  C   UNL     1     -35.677  23.595   5.588  0.00  0.00    +0.020 C 
ATOM     29  C   UNL     1     -35.413  21.315   4.001  0.00  0.00    +0.001 C 
ATOM     30  C   UNL     1     -35.069  22.451   6.105  0.00  0.00    +0.001 C 
ATOM     31  C   UNL     1     -34.937  21.311   5.312  0.00  0.00    +0.000 C 
ENDBRANCH  23  26
ENDBRANCH  21  23
ENDBRANCH   4  21
TORSDOF 7
ENDMDL
MODEL 5
REMARK VINA RESULT:      -7.1      6.000      8.281
REMARK  Name = 52936849
REMARK  7 active torsions:
REMARK  status: ('A' for Active; 'I' for Inactive)
REMARK    1  A    between atoms: C_2  and  C_9
REMARK    2  A    between atoms: C_4  and  N_21
REMARK    3  A    between atoms: C_12  and  C_17
REMARK    4  A    between atoms: C_17  and  O_18
REMARK    5  A    between atoms: O_18  and  C_19
REMARK    6  A    between atoms: N_21  and  S_23
REMARK    7  A    between atoms: S_23  and  C_26
REMARK                            x       y       z     vdW  Elec       q    Type
REMARK                         _______ _______ _______ _____ _____    ______ ____
ROOT
ATOM      1  N   UNL     1     -39.452  23.863   2.464  0.00  0.00    -0.241 NA
ATOM      2  C   UNL     1     -37.187  23.966   3.304  0.00  0.00    +0.022 C 
ATOM      3  C   UNL     1     -36.978  22.645   2.922  0.00  0.00    +0.019 C 
ATOM      4  C   UNL     1     -38.005  21.932   2.313  0.00  0.00    +0.084 C 
ATOM      5  C   UNL     1     -38.430  24.524   3.054  0.00  0.00    +0.099 C 
ATOM      6  C   UNL     1     -39.212  22.582   2.107  0.00  0.00    +0.115 C 
ENDROOT
BRANCH   2   9
ATOM      7  N   UNL     1     -34.518  26.500   3.875  0.00  0.00    -0.243 N 
ATOM      8  N   UNL     1     -33.089  27.108   5.484  0.00  0.00    -0.227 NA
ATOM      9  C   UNL     1     -36.119  24.750   3.952  0.00  0.00    +0.017 C 
ATOM     10  C   UNL     1     -34.050  26.265   5.163  0.00  0.00    +0.139 C 
ATOM     11  C   UNL     1     -35.533  25.759   3.272  0.00  0.00    +0.071 C 
ATOM     12  C   UNL     1     -33.796  27.553   3.376  0.00  0.00    +0.153 C 
ATOM     13  C   UNL     1     -35.641  24.480   5.313  0.00  0.00    +0.004 C 
ATOM     14  C   UNL     1     -34.659  25.202   5.886  0.00  0.00    +0.035 C 
ATOM     15  C   UNL     1     -32.928  27.908   4.381  0.00  0.00    +0.122 C 
BRANCH  12  17
ATOM     16  O   UNL     1     -33.164  27.957   1.112  0.00  0.00    -0.243 OA
ATOM     17  C   UNL     1     -33.940  28.137   2.079  0.00  0.00    +0.357 C 
BRANCH  17  18
ATOM     18  O   UNL     1     -35.051  28.946   1.983  0.00  0.00    -0.445 OA
BRANCH  18  19
ATOM     19  C   UNL     1     -34.842  30.347   1.778  0.00  0.00    +0.209 C 
ATOM     20  C   UNL     1     -35.527  31.116   2.887  0.00  0.00    +0.051 C 
ENDBRANCH  18  19
ENDBRANCH  17  18
ENDBRANCH  12  17
ENDBRANCH   2   9
BRANCH   4  21
ATOM     21  N   UNL     1     -37.821  20.578   1.910  0.00  0.00    -0.213 N 
ATOM     22  H   UNL     1     -37.945  19.843   2.554  0.00  0.00    +0.174 HD
BRANCH  21  23
ATOM     23  S   UNL     1     -37.378  20.248   0.277  0.00  0.00    +0.074 S 
ATOM     24  O   UNL     1     -37.074  21.498  -0.393  0.00  0.00    -0.150 OA
ATOM     25  O   UNL     1     -38.325  19.323  -0.317  0.00  0.00    -0.150 OA
BRANCH  23  26
ATOM     26  C   UNL     1     -35.843  19.390   0.484  0.00  0.00    +0.125 C 
ATOM     27  C   UNL     1     -35.582  18.239  -0.260  0.00  0.00    +0.020 C 
ATOM     28  C   UNL     1     -34.897  19.862   1.393  0.00  0.00    +0.020 C 
ATOM     29  C   UNL     1     -34.375  17.560  -0.094  0.00  0.00    +0.001 C 
ATOM     30  C   UNL     1     -33.689  19.184   1.558  0.00  0.00    +0.001 C 
ATOM     31  C   UNL     1     -33.428  18.033   0.814  0.00  0.00    +0.000 C 
ENDBRANCH  23  26
ENDBRANCH  21  23
ENDBRANCH   4  21
TORSDOF 7
ENDMDL
MODEL 6
REMARK VINA RESULT:      -7.1      2.531      8.957
REMARK  Name = 52936849
REMARK  7 active torsions:
REMARK  status: ('A' for Active; 'I' for Inactive)
REMARK    1  A    between atoms: C_2  and  C_9
REMARK    2  A    between atoms: C_4  and  N_21
REMARK    3  A    between atoms: C_12  and  C_17
REMARK    4  A    between atoms: C_17  and  O_18
REMARK    5  A    between atoms: O_18  and  C_19
REMARK    6  A    between atoms: N_21  and  S_23
REMARK    7  A    between atoms: S_23  and  C_26
REMARK                            x       y       z     vdW  Elec       q    Type
REMARK                         _______ _______ _______ _____ _____    ______ ____
ROOT
ATOM      1  N   UNL     1     -40.332  27.425   0.609  0.00  0.00    -0.241 NA
ATOM      2  C   UNL     1     -39.669  25.710   2.180  0.00  0.00    +0.022 C 
ATOM      3  C   UNL     1     -40.844  25.905   2.898  0.00  0.00    +0.019 C 
ATOM      4  C   UNL     1     -41.762  26.859   2.474  0.00  0.00    +0.084 C 
ATOM      5  C   UNL     1     -39.463  26.488   1.052  0.00  0.00    +0.099 C 
ATOM      6  C   UNL     1     -41.462  27.586   1.333  0.00  0.00    +0.115 C 
ENDROOT
BRANCH   2   9
ATOM      7  N   UNL     1     -36.733  24.130   3.838  0.00  0.00    -0.243 N 
ATOM      8  N   UNL     1     -35.732  22.132   3.944  0.00  0.00    -0.227 NA
ATOM      9  C   UNL     1     -38.675  24.706   2.602  0.00  0.00    +0.017 C 
ATOM     10  C   UNL     1     -36.737  22.804   3.420  0.00  0.00    +0.139 C 
ATOM     11  C   UNL     1     -37.680  25.071   3.440  0.00  0.00    +0.071 C 
ATOM     12  C   UNL     1     -35.655  24.280   4.671  0.00  0.00    +0.153 C 
ATOM     13  C   UNL     1     -38.701  23.312   2.144  0.00  0.00    +0.004 C 
ATOM     14  C   UNL     1     -37.779  22.410   2.534  0.00  0.00    +0.035 C 
ATOM     15  C   UNL     1     -35.058  23.042   4.721  0.00  0.00    +0.122 C 
BRANCH  12  17
ATOM     16  O   UNL     1     -36.040  26.363   5.767  0.00  0.00    -0.243 OA
ATOM     17  C   UNL     1     -35.260  25.483   5.334  0.00  0.00    +0.357 C 
BRANCH  17  18
ATOM     18  O   UNL     1     -33.892  25.593   5.460  0.00  0.00    -0.445 OA
BRANCH  18  19
ATOM     19  C   UNL     1     -33.321  26.905   5.431  0.00  0.00    +0.209 C 
ATOM     20  C   UNL     1     -32.688  27.197   6.774  0.00  0.00    +0.051 C 
ENDBRANCH  18  19
ENDBRANCH  17  18
ENDBRANCH  12  17
ENDBRANCH   2   9
BRANCH   4  21
ATOM     21  N   UNL     1     -42.974  27.082   3.190  0.00  0.00    -0.213 N 
ATOM     22  H   UNL     1     -43.675  26.391   3.215  0.00  0.00    +0.174 HD
BRANCH  21  23
ATOM     23  S   UNL     1     -43.191  28.581   4.012  0.00  0.00    +0.074 S 
ATOM     24  O   UNL     1     -43.756  29.550   3.090  0.00  0.00    -0.150 OA
ATOM     25  O   UNL     1     -41.996  28.915   4.763  0.00  0.00    -0.150 OA
BRANCH  23  26
ATOM     26  C   UNL     1     -44.464  28.178   5.174  0.00  0.00    +0.125 C 
ATOM     27  C   UNL     1     -45.063  26.918   5.143  0.00  0.00    +0.020 C 
ATOM     28  C   UNL     1     -44.872  29.120   6.118  0.00  0.00    +0.020 C 
ATOM     29  C   UNL     1     -46.069  26.601   6.055  0.00  0.00    +0.001 C 
ATOM     30  C   UNL     1     -45.878  28.803   7.030  0.00  0.00    +0.001 C 
ATOM     31  C   UNL     1     -46.476  27.543   6.999  0.00  0.00    +0.000 C 
ENDBRANCH  23  26
ENDBRANCH  21  23
ENDBRANCH   4  21
TORSDOF 7
ENDMDL
MODEL 7
REMARK VINA RESULT:      -7.1      7.043      9.357
REMARK  Name = 52936849
REMARK  7 active torsions:
REMARK  status: ('A' for Active; 'I' for Inactive)
REMARK    1  A    between atoms: C_2  and  C_9
REMARK    2  A    between atoms: C_4  and  N_21
REMARK    3  A    between atoms: C_12  and  C_17
REMARK    4  A    between atoms: C_17  and  O_18
REMARK    5  A    between atoms: O_18  and  C_19
REMARK    6  A    between atoms: N_21  and  S_23
REMARK    7  A    between atoms: S_23  and  C_26
REMARK                            x       y       z     vdW  Elec       q    Type
REMARK                         _______ _______ _______ _____ _____    ______ ____
ROOT
ATOM      1  N   UNL     1     -38.717  22.778   2.283  0.00  0.00    -0.241 NA
ATOM      2  C   UNL     1     -36.534  23.328   3.166  0.00  0.00    +0.022 C 
ATOM      3  C   UNL     1     -36.075  22.057   2.840  0.00  0.00    +0.019 C 
ATOM      4  C   UNL     1     -36.936  21.145   2.238  0.00  0.00    +0.084 C 
ATOM      5  C   UNL     1     -37.852  23.637   2.868  0.00  0.00    +0.099 C 
ATOM      6  C   UNL     1     -38.235  21.552   1.982  0.00  0.00    +0.115 C 
ENDROOT
BRANCH   2   9
ATOM      7  N   UNL     1     -34.044  26.058   3.627  0.00  0.00    -0.243 N 
ATOM      8  N   UNL     1     -33.054  27.170   5.296  0.00  0.00    -0.227 NA
ATOM      9  C   UNL     1     -35.648  24.318   3.805  0.00  0.00    +0.017 C 
ATOM     10  C   UNL     1     -33.919  26.222   5.002  0.00  0.00    +0.139 C 
ATOM     11  C   UNL     1     -34.890  25.125   3.031  0.00  0.00    +0.071 C 
ATOM     12  C   UNL     1     -33.199  26.965   3.042  0.00  0.00    +0.153 C 
ATOM     13  C   UNL     1     -35.533  24.469   5.260  0.00  0.00    +0.004 C 
ATOM     14  C   UNL     1     -34.712  25.374   5.827  0.00  0.00    +0.035 C 
ATOM     15  C   UNL     1     -32.604  27.635   4.085  0.00  0.00    +0.122 C 
BRANCH  12  17
ATOM     16  O   UNL     1     -33.527  28.051   0.944  0.00  0.00    -0.243 OA
ATOM     17  C   UNL     1     -33.000  27.152   1.639  0.00  0.00    +0.357 C 
BRANCH  17  18
ATOM     18  O   UNL     1     -32.143  26.218   1.098  0.00  0.00    -0.445 OA
BRANCH  18  19
ATOM     19  C   UNL     1     -32.519  25.603  -0.139  0.00  0.00    +0.209 C 
ATOM     20  C   UNL     1     -32.890  24.159   0.121  0.00  0.00    +0.051 C 
ENDBRANCH  18  19
ENDBRANCH  17  18
ENDBRANCH  12  17
ENDBRANCH   2   9
BRANCH   4  21
ATOM     21  N   UNL     1     -36.494  19.835   1.894  0.00  0.00    -0.213 N 
ATOM     22  H   UNL     1     -36.446  19.127   2.577  0.00  0.00    +0.174 HD
BRANCH  21  23
ATOM     23  S   UNL     1     -36.045  19.511   0.262  0.00  0.00    +0.074 S 
ATOM     24  O   UNL     1     -36.317  20.684  -0.547  0.00  0.00    -0.150 OA
ATOM     25  O   UNL     1     -36.560  18.218  -0.149  0.00  0.00    -0.150 OA
BRANCH  23  26
ATOM     26  C   UNL     1     -34.284  19.374   0.390  0.00  0.00    +0.125 C 
ATOM     27  C   UNL     1     -33.710  18.205   0.891  0.00  0.00    +0.020 C 
ATOM     28  C   UNL     1     -33.471  20.436  -0.005  0.00  0.00    +0.020 C 
ATOM     29  C   UNL     1     -32.324  18.099   0.996  0.00  0.00    +0.001 C 
ATOM     30  C   UNL     1     -32.084  20.329   0.100  0.00  0.00    +0.001 C 
ATOM     31  C   UNL     1     -31.511  19.160   0.601  0.00  0.00    +0.000 C 
ENDBRANCH  23  26
ENDBRANCH  21  23
ENDBRANCH   4  21
TORSDOF 7
ENDMDL
MODEL 8
REMARK VINA RESULT:      -7.0      6.713     12.785
REMARK  Name = 52936849
REMARK  7 active torsions:
REMARK  status: ('A' for Active; 'I' for Inactive)
REMARK    1  A    between atoms: C_2  and  C_9
REMARK    2  A    between atoms: C_4  and  N_21
REMARK    3  A    between atoms: C_12  and  C_17
REMARK    4  A    between atoms: C_17  and  O_18
REMARK    5  A    between atoms: O_18  and  C_19
REMARK    6  A    between atoms: N_21  and  S_23
REMARK    7  A    between atoms: S_23  and  C_26
REMARK                            x       y       z     vdW  Elec       q    Type
REMARK                         _______ _______ _______ _____ _____    ______ ____
ROOT
ATOM      1  N   UNL     1     -38.128  20.416  -0.145  0.00  0.00    -0.241 NA
ATOM      2  C   UNL     1     -36.035  19.688   0.823  0.00  0.00    +0.022 C 
ATOM      3  C   UNL     1     -36.251  20.510   1.924  0.00  0.00    +0.019 C 
ATOM      4  C   UNL     1     -37.403  21.287   1.990  0.00  0.00    +0.084 C 
ATOM      5  C   UNL     1     -36.996  19.676  -0.175  0.00  0.00    +0.099 C 
ATOM      6  C   UNL     1     -38.303  21.203   0.939  0.00  0.00    +0.115 C 
ENDROOT
BRANCH   2   9
ATOM      7  N   UNL     1     -33.751  16.869  -0.016  0.00  0.00    -0.243 N 
ATOM      8  N   UNL     1     -31.615  16.283   0.293  0.00  0.00    -0.227 NA
ATOM      9  C   UNL     1     -34.825  18.852   0.722  0.00  0.00    +0.017 C 
ATOM     10  C   UNL     1     -32.518  17.214   0.525  0.00  0.00    +0.139 C 
ATOM     11  C   UNL     1     -34.889  17.668   0.077  0.00  0.00    +0.071 C 
ATOM     12  C   UNL     1     -33.593  15.647  -0.618  0.00  0.00    +0.153 C 
ATOM     13  C   UNL     1     -33.534  19.239   1.305  0.00  0.00    +0.004 C 
ATOM     14  C   UNL     1     -32.440  18.459   1.209  0.00  0.00    +0.035 C 
ATOM     15  C   UNL     1     -32.276  15.310  -0.415  0.00  0.00    +0.122 C 
BRANCH  12  17
ATOM     16  O   UNL     1     -35.497  14.218  -0.756  0.00  0.00    -0.243 OA
ATOM     17  C   UNL     1     -34.605  14.906  -1.304  0.00  0.00    +0.357 C 
BRANCH  17  18
ATOM     18  O   UNL     1     -34.507  15.020  -2.673  0.00  0.00    -0.445 OA
BRANCH  18  19
ATOM     19  C   UNL     1     -35.252  16.063  -3.311  0.00  0.00    +0.209 C 
ATOM     20  C   UNL     1     -34.288  17.037  -3.952  0.00  0.00    +0.051 C 
ENDBRANCH  18  19
ENDBRANCH  17  18
ENDBRANCH  12  17
ENDBRANCH   2   9
BRANCH   4  21
ATOM     21  N   UNL     1     -37.651  22.139   3.104  0.00  0.00    -0.213 N 
ATOM     22  H   UNL     1     -37.777  21.763   4.006  0.00  0.00    +0.174 HD
BRANCH  21  23
ATOM     23  S   UNL     1     -37.728  23.842   2.848  0.00  0.00    +0.074 S 
ATOM     24  O   UNL     1     -38.980  24.347   3.380  0.00  0.00    -0.150 OA
ATOM     25  O   UNL     1     -37.346  24.157   1.484  0.00  0.00    -0.150 OA
BRANCH  23  26
ATOM     26  C   UNL     1     -36.443  24.428   3.916  0.00  0.00    +0.125 C 
ATOM     27  C   UNL     1     -35.216  23.765   3.960  0.00  0.00    +0.020 C 
ATOM     28  C   UNL     1     -36.659  25.550   4.716  0.00  0.00    +0.020 C 
ATOM     29  C   UNL     1     -34.206  24.224   4.805  0.00  0.00    +0.001 C 
ATOM     30  C   UNL     1     -35.647  26.009   5.560  0.00  0.00    +0.001 C 
ATOM     31  C   UNL     1     -34.421  25.346   5.604  0.00  0.00    +0.000 C 
ENDBRANCH  23  26
ENDBRANCH  21  23
ENDBRANCH   4  21
TORSDOF 7
ENDMDL
MODEL 9
REMARK VINA RESULT:      -7.0      4.408      9.539
REMARK  Name = 52936849
REMARK  7 active torsions:
REMARK  status: ('A' for Active; 'I' for Inactive)
REMARK    1  A    between atoms: C_2  and  C_9
REMARK    2  A    between atoms: C_4  and  N_21
REMARK    3  A    between atoms: C_12  and  C_17
REMARK    4  A    between atoms: C_17  and  O_18
REMARK    5  A    between atoms: O_18  and  C_19
REMARK    6  A    between atoms: N_21  and  S_23
REMARK    7  A    between atoms: S_23  and  C_26
REMARK                            x       y       z     vdW  Elec       q    Type
REMARK                         _______ _______ _______ _____ _____    ______ ____
ROOT
ATOM      1  N   UNL     1     -35.433  23.097   4.068  0.00  0.00    -0.241 NA
ATOM      2  C   UNL     1     -34.945  25.387   4.675  0.00  0.00    +0.022 C 
ATOM      3  C   UNL     1     -36.273  25.735   4.455  0.00  0.00    +0.019 C 
ATOM      4  C   UNL     1     -37.181  24.767   4.041  0.00  0.00    +0.084 C 
ATOM      5  C   UNL     1     -34.579  24.066   4.470  0.00  0.00    +0.099 C 
ATOM      6  C   UNL     1     -36.715  23.473   3.865  0.00  0.00    +0.115 C 
ENDROOT
BRANCH   2   9
ATOM      7  N   UNL     1     -32.530  28.222   4.625  0.00  0.00    -0.243 N 
ATOM      8  N   UNL     1     -31.167  29.299   6.033  0.00  0.00    -0.227 NA
ATOM      9  C   UNL     1     -33.957  26.389   5.114  0.00  0.00    +0.017 C 
ATOM     10  C   UNL     1     -32.043  28.320   5.923  0.00  0.00    +0.139 C 
ATOM     11  C   UNL     1     -33.470  27.276   4.219  0.00  0.00    +0.071 C 
ATOM     12  C   UNL     1     -31.913  29.203   3.893  0.00  0.00    +0.153 C 
ATOM     13  C   UNL     1     -33.457  26.471   6.491  0.00  0.00    +0.004 C 
ATOM     14  C   UNL     1     -32.548  27.389   6.873  0.00  0.00    +0.035 C 
ATOM     15  C   UNL     1     -31.083  29.849   4.779  0.00  0.00    +0.122 C 
BRANCH  12  17
ATOM     16  O   UNL     1     -31.707  28.754   1.560  0.00  0.00    -0.243 OA
ATOM     17  C   UNL     1     -32.111  29.473   2.503  0.00  0.00    +0.357 C 
BRANCH  17  18
ATOM     18  O   UNL     1     -32.813  30.638   2.286  0.00  0.00    -0.445 OA
BRANCH  18  19
ATOM     19  C   UNL     1     -34.180  30.528   1.874  0.00  0.00    +0.209 C 
ATOM     20  C   UNL     1     -35.076  30.761   3.071  0.00  0.00    +0.051 C 
ENDBRANCH  18  19
ENDBRANCH  17  18
ENDBRANCH  12  17
ENDBRANCH   2   9
BRANCH   4  21
ATOM     21  N   UNL     1     -38.549  25.093   3.808  0.00  0.00    -0.213 N 
ATOM     22  H   UNL     1     -39.215  25.006   4.528  0.00  0.00    +0.174 HD
BRANCH  21  23
ATOM     23  S   UNL     1     -39.017  25.644   2.243  0.00  0.00    +0.074 S 
ATOM     24  O   UNL     1     -38.893  24.549   1.298  0.00  0.00    -0.150 OA
ATOM     25  O   UNL     1     -38.386  26.918   1.955  0.00  0.00    -0.150 OA
BRANCH  23  26
ATOM     26  C   UNL     1     -40.748  25.937   2.464  0.00  0.00    +0.125 C 
ATOM     27  C   UNL     1     -41.660  25.482   1.511  0.00  0.00    +0.020 C 
ATOM     28  C   UNL     1     -41.202  26.626   3.589  0.00  0.00    +0.020 C 
ATOM     29  C   UNL     1     -43.024  25.717   1.682  0.00  0.00    +0.001 C 
ATOM     30  C   UNL     1     -42.566  26.860   3.760  0.00  0.00    +0.001 C 
ATOM     31  C   UNL     1     -43.477  26.405   2.807  0.00  0.00    +0.000 C 
ENDBRANCH  23  26
ENDBRANCH  21  23
ENDBRANCH   4  21
TORSDOF 7
ENDMDL
