MODEL 1
REMARK VINA RESULT:      -6.4      0.000      0.000
REMARK  Name = 5318041
REMARK  7 active torsions:
REMARK  status: ('A' for Active; 'I' for Inactive)
REMARK    1  A    between atoms: C_5  and  O_22
REMARK    2  A    between atoms: C_6  and  O_24
REMARK    3  A    between atoms: C_7  and  O_26
REMARK    4  A    between atoms: C_8  and  O_28
REMARK    5  A    between atoms: C_9  and  C_12
REMARK    6  A    between atoms: C_15  and  O_18
REMARK    7  A    between atoms: C_17  and  O_20
REMARK                            x       y       z     vdW  Elec       q    Type
REMARK                         _______ _______ _______ _____ _____    ______ ____
ROOT
ATOM      1  O   UNL     1     -33.986  26.354   4.175  0.00  0.00    -0.450 OA
ATOM      2  O   UNL     1     -36.635  27.927   1.509  0.00  0.00    -0.286 OA
ATOM      3  C   UNL     1     -34.660  28.219   2.772  0.00  0.00    +0.114 A 
ATOM      4  C   UNL     1     -33.793  27.621   3.685  0.00  0.00    +0.188 A 
ATOM      5  C   UNL     1     -34.413  29.512   2.306  0.00  0.00    +0.182 A 
ATOM      6  C   UNL     1     -32.670  28.314   4.138  0.00  0.00    +0.210 A 
ATOM      7  C   UNL     1     -33.289  30.204   2.762  0.00  0.00    +0.209 A 
ATOM      8  C   UNL     1     -32.420  29.607   3.675  0.00  0.00    +0.212 A 
ATOM      9  C   UNL     1     -35.097  25.643   3.746  0.00  0.00    +0.149 C 
ATOM     10  C   UNL     1     -35.834  27.464   2.309  0.00  0.00    +0.205 C 
ATOM     11  C   UNL     1     -35.999  26.107   2.867  0.00  0.00    +0.080 C 
ENDROOT
BRANCH   9  12
ATOM     12  C   UNL     1     -35.205  24.290   4.330  0.00  0.00    +0.038 C 
ATOM     13  C   UNL     1     -35.453  23.188   3.508  0.00  0.00    +0.043 C 
ATOM     14  C   UNL     1     -35.060  24.107   5.708  0.00  0.00    +0.006 C 
ATOM     15  C   UNL     1     -35.554  21.911   4.060  0.00  0.00    +0.168 C 
ATOM     16  C   UNL     1     -35.162  22.830   6.259  0.00  0.00    +0.040 C 
ATOM     17  C   UNL     1     -35.409  21.733   5.435  0.00  0.00    +0.167 C 
BRANCH  15  18
ATOM     18  O   UNL     1     -35.796  20.847   3.244  0.00  0.00    -0.503 OA
ATOM     19  H   UNL     1     -35.180  20.618   2.576  0.00  0.00    +0.292 HD
ENDBRANCH  15  18
BRANCH  17  20
ATOM     20  O   UNL     1     -35.507  20.490   5.986  0.00  0.00    -0.503 OA
ATOM     21  H   UNL     1     -35.949  19.806   5.523  0.00  0.00    +0.292 HD
ENDBRANCH  17  20
ENDBRANCH   9  12
BRANCH   5  22
ATOM     22  O   UNL     1     -35.238  30.129   1.414  0.00  0.00    -0.468 OA
ATOM     23  C   UNL     1     -36.111  31.133   1.929  0.00  0.00    +0.253 C 
ENDBRANCH   5  22
BRANCH   6  24
ATOM     24  O   UNL     1     -31.818  27.735   5.031  0.00  0.00    -0.465 OA
ATOM     25  C   UNL     1     -32.194  27.776   6.406  0.00  0.00    +0.253 C 
ENDBRANCH   6  24
BRANCH   7  26
ATOM     26  O   UNL     1     -33.037  31.468   2.314  0.00  0.00    -0.465 OA
ATOM     27  C   UNL     1     -32.217  31.592   1.156  0.00  0.00    +0.253 C 
ENDBRANCH   7  26
BRANCH   8  28
ATOM     28  O   UNL     1     -31.323  30.287   4.118  0.00  0.00    -0.465 OA
ATOM     29  C   UNL     1     -31.505  31.142   5.243  0.00  0.00    +0.253 C 
ENDBRANCH   8  28
TORSDOF 7
ENDMDL
MODEL 2
REMARK VINA RESULT:      -6.0      1.422      1.861
REMARK  Name = 5318041
REMARK  7 active torsions:
REMARK  status: ('A' for Active; 'I' for Inactive)
REMARK    1  A    between atoms: C_5  and  O_22
REMARK    2  A    between atoms: C_6  and  O_24
REMARK    3  A    between atoms: C_7  and  O_26
REMARK    4  A    between atoms: C_8  and  O_28
REMARK    5  A    between atoms: C_9  and  C_12
REMARK    6  A    between atoms: C_15  and  O_18
REMARK    7  A    between atoms: C_17  and  O_20
REMARK                            x       y       z     vdW  Elec       q    Type
REMARK                         _______ _______ _______ _____ _____    ______ ____
ROOT
ATOM      1  O   UNL     1     -34.873  26.260   3.319  0.00  0.00    -0.450 OA
ATOM      2  O   UNL     1     -38.254  27.269   1.282  0.00  0.00    -0.286 OA
ATOM      3  C   UNL     1     -36.084  27.888   1.984  0.00  0.00    +0.114 A 
ATOM      4  C   UNL     1     -34.958  27.479   2.697  0.00  0.00    +0.188 A 
ATOM      5  C   UNL     1     -36.115  29.141   1.369  0.00  0.00    +0.182 A 
ATOM      6  C   UNL     1     -33.853  28.324   2.798  0.00  0.00    +0.210 A 
ATOM      7  C   UNL     1     -35.008  29.986   1.474  0.00  0.00    +0.209 A 
ATOM      8  C   UNL     1     -33.880  29.578   2.186  0.00  0.00    +0.212 A 
ATOM      9  C   UNL     1     -35.959  25.401   3.239  0.00  0.00    +0.149 C 
ATOM     10  C   UNL     1     -37.235  26.976   1.891  0.00  0.00    +0.205 C 
ATOM     11  C   UNL     1     -37.095  25.677   2.579  0.00  0.00    +0.080 C 
ENDROOT
BRANCH   9  12
ATOM     12  C   UNL     1     -35.759  24.115   3.938  0.00  0.00    +0.038 C 
ATOM     13  C   UNL     1     -35.879  22.910   3.240  0.00  0.00    +0.043 C 
ATOM     14  C   UNL     1     -35.450  24.097   5.300  0.00  0.00    +0.006 C 
ATOM     15  C   UNL     1     -35.689  21.696   3.899  0.00  0.00    +0.168 C 
ATOM     16  C   UNL     1     -35.261  22.883   5.960  0.00  0.00    +0.040 C 
ATOM     17  C   UNL     1     -35.381  21.683   5.260  0.00  0.00    +0.167 C 
BRANCH  15  18
ATOM     18  O   UNL     1     -35.809  20.530   3.204  0.00  0.00    -0.503 OA
ATOM     19  H   UNL     1     -35.361  19.762   3.497  0.00  0.00    +0.292 HD
ENDBRANCH  15  18
BRANCH  17  20
ATOM     20  O   UNL     1     -35.194  20.503   5.915  0.00  0.00    -0.503 OA
ATOM     21  H   UNL     1     -35.107  20.494   6.847  0.00  0.00    +0.292 HD
ENDBRANCH  17  20
ENDBRANCH   9  12
BRANCH   5  22
ATOM     22  O   UNL     1     -37.198  29.575   0.666  0.00  0.00    -0.468 OA
ATOM     23  C   UNL     1     -37.099  29.548  -0.757  0.00  0.00    +0.253 C 
ENDBRANCH   5  22
BRANCH   6  24
ATOM     24  O   UNL     1     -32.748  27.931   3.493  0.00  0.00    -0.465 OA
ATOM     25  C   UNL     1     -31.712  27.290   2.754  0.00  0.00    +0.253 C 
ENDBRANCH   6  24
BRANCH   7  26
ATOM     26  O   UNL     1     -35.026  31.213   0.878  0.00  0.00    -0.465 OA
ATOM     27  C   UNL     1     -35.651  32.272   1.598  0.00  0.00    +0.253 C 
ENDBRANCH   7  26
BRANCH   8  28
ATOM     28  O   UNL     1     -32.800  30.407   2.285  0.00  0.00    -0.465 OA
ATOM     29  C   UNL     1     -32.691  31.186   3.472  0.00  0.00    +0.253 C 
ENDBRANCH   8  28
TORSDOF 7
ENDMDL
MODEL 3
REMARK VINA RESULT:      -6.0      4.573      9.977
REMARK  Name = 5318041
REMARK  7 active torsions:
REMARK  status: ('A' for Active; 'I' for Inactive)
REMARK    1  A    between atoms: C_5  and  O_22
REMARK    2  A    between atoms: C_6  and  O_24
REMARK    3  A    between atoms: C_7  and  O_26
REMARK    4  A    between atoms: C_8  and  O_28
REMARK    5  A    between atoms: C_9  and  C_12
REMARK    6  A    between atoms: C_15  and  O_18
REMARK    7  A    between atoms: C_17  and  O_20
REMARK                            x       y       z     vdW  Elec       q    Type
REMARK                         _______ _______ _______ _____ _____    ______ ____
ROOT
ATOM      1  O   UNL     1     -37.357  21.635   1.813  0.00  0.00    -0.450 OA
ATOM      2  O   UNL     1     -34.087  19.223   1.511  0.00  0.00    -0.286 OA
ATOM      3  C   UNL     1     -36.309  19.669   0.842  0.00  0.00    +0.114 A 
ATOM      4  C   UNL     1     -37.390  20.536   0.992  0.00  0.00    +0.188 A 
ATOM      5  C   UNL     1     -36.400  18.566  -0.009  0.00  0.00    +0.182 A 
ATOM      6  C   UNL     1     -38.573  20.303   0.288  0.00  0.00    +0.210 A 
ATOM      7  C   UNL     1     -37.584  18.335  -0.711  0.00  0.00    +0.209 A 
ATOM      8  C   UNL     1     -38.667  19.201  -0.563  0.00  0.00    +0.212 A 
ATOM      9  C   UNL     1     -36.196  21.888   2.529  0.00  0.00    +0.149 C 
ATOM     10  C   UNL     1     -35.074  19.939   1.595  0.00  0.00    +0.205 C 
ATOM     11  C   UNL     1     -35.089  21.133   2.466  0.00  0.00    +0.080 C 
ENDROOT
BRANCH   9  12
ATOM     12  C   UNL     1     -36.266  23.097   3.375  0.00  0.00    +0.038 C 
ATOM     13  C   UNL     1     -37.202  24.096   3.097  0.00  0.00    +0.043 C 
ATOM     14  C   UNL     1     -35.395  23.247   4.457  0.00  0.00    +0.006 C 
ATOM     15  C   UNL     1     -37.267  25.237   3.896  0.00  0.00    +0.168 C 
ATOM     16  C   UNL     1     -35.460  24.388   5.256  0.00  0.00    +0.040 C 
ATOM     17  C   UNL     1     -36.396  25.383   4.975  0.00  0.00    +0.167 C 
BRANCH  15  18
ATOM     18  O   UNL     1     -38.186  26.202   3.611  0.00  0.00    -0.503 OA
ATOM     19  H   UNL     1     -38.109  26.705   2.824  0.00  0.00    +0.292 HD
ENDBRANCH  15  18
BRANCH  17  20
ATOM     20  O   UNL     1     -36.450  26.494   5.762  0.00  0.00    -0.503 OA
ATOM     21  H   UNL     1     -37.238  26.703   6.223  0.00  0.00    +0.292 HD
ENDBRANCH  17  20
ENDBRANCH   9  12
BRANCH   5  22
ATOM     22  O   UNL     1     -35.364  17.697  -0.179  0.00  0.00    -0.468 OA
ATOM     23  C   UNL     1     -34.621  17.806  -1.392  0.00  0.00    +0.253 C 
ENDBRANCH   5  22
BRANCH   6  24
ATOM     24  O   UNL     1     -39.634  21.147   0.429  0.00  0.00    -0.465 OA
ATOM     25  C   UNL     1     -39.643  22.318  -0.384  0.00  0.00    +0.253 C 
ENDBRANCH   6  24
BRANCH   7  26
ATOM     26  O   UNL     1     -37.685  17.260  -1.545  0.00  0.00    -0.465 OA
ATOM     27  C   UNL     1     -38.196  16.053  -0.985  0.00  0.00    +0.253 C 
ENDBRANCH   7  26
BRANCH   8  28
ATOM     28  O   UNL     1     -39.823  18.971  -1.252  0.00  0.00    -0.465 OA
ATOM     29  C   UNL     1     -39.876  19.435  -2.598  0.00  0.00    +0.253 C 
ENDBRANCH   8  28
TORSDOF 7
ENDMDL
MODEL 4
REMARK VINA RESULT:      -5.8      4.217      8.970
REMARK  Name = 5318041
REMARK  7 active torsions:
REMARK  status: ('A' for Active; 'I' for Inactive)
REMARK    1  A    between atoms: C_5  and  O_22
REMARK    2  A    between atoms: C_6  and  O_24
REMARK    3  A    between atoms: C_7  and  O_26
REMARK    4  A    between atoms: C_8  and  O_28
REMARK    5  A    between atoms: C_9  and  C_12
REMARK    6  A    between atoms: C_15  and  O_18
REMARK    7  A    between atoms: C_17  and  O_20
REMARK                            x       y       z     vdW  Elec       q    Type
REMARK                         _______ _______ _______ _____ _____    ______ ____
ROOT
ATOM      1  O   UNL     1     -36.218  22.151   2.010  0.00  0.00    -0.450 OA
ATOM      2  O   UNL     1     -40.275  22.152   1.637  0.00  0.00    -0.286 OA
ATOM      3  C   UNL     1     -38.208  21.220   0.973  0.00  0.00    +0.114 A 
ATOM      4  C   UNL     1     -36.826  21.273   1.150  0.00  0.00    +0.188 A 
ATOM      5  C   UNL     1     -38.772  20.304   0.083  0.00  0.00    +0.182 A 
ATOM      6  C   UNL     1     -35.998  20.406   0.435  0.00  0.00    +0.210 A 
ATOM      7  C   UNL     1     -37.942  19.439  -0.631  0.00  0.00    +0.209 A 
ATOM      8  C   UNL     1     -36.559  19.489  -0.456  0.00  0.00    +0.212 A 
ATOM      9  C   UNL     1     -37.016  23.029   2.730  0.00  0.00    +0.149 C 
ATOM     10  C   UNL     1     -39.057  22.144   1.741  0.00  0.00    +0.205 C 
ATOM     11  C   UNL     1     -38.355  23.071   2.652  0.00  0.00    +0.080 C 
ENDROOT
BRANCH   9  12
ATOM     12  C   UNL     1     -36.261  23.925   3.630  0.00  0.00    +0.038 C 
ATOM     13  C   UNL     1     -36.232  25.301   3.389  0.00  0.00    +0.043 C 
ATOM     14  C   UNL     1     -35.571  23.400   4.725  0.00  0.00    +0.006 C 
ATOM     15  C   UNL     1     -35.520  26.146   4.239  0.00  0.00    +0.168 C 
ATOM     16  C   UNL     1     -34.858  24.245   5.575  0.00  0.00    +0.040 C 
ATOM     17  C   UNL     1     -34.832  25.618   5.332  0.00  0.00    +0.167 C 
BRANCH  15  18
ATOM     18  O   UNL     1     -35.502  27.486   3.990  0.00  0.00    -0.503 OA
ATOM     19  H   UNL     1     -34.748  27.995   4.215  0.00  0.00    +0.292 HD
ENDBRANCH  15  18
BRANCH  17  20
ATOM     20  O   UNL     1     -34.132  26.434   6.169  0.00  0.00    -0.503 OA
ATOM     21  H   UNL     1     -34.584  27.061   6.697  0.00  0.00    +0.292 HD
ENDBRANCH  17  20
ENDBRANCH   9  12
BRANCH   5  22
ATOM     22  O   UNL     1     -40.118  20.225  -0.116  0.00  0.00    -0.468 OA
ATOM     23  C   UNL     1     -40.628  20.789  -1.323  0.00  0.00    +0.253 C 
ENDBRANCH   5  22
BRANCH   6  24
ATOM     24  O   UNL     1     -34.647  20.452   0.603  0.00  0.00    -0.465 OA
ATOM     25  C   UNL     1     -34.079  19.541   1.542  0.00  0.00    +0.253 C 
ENDBRANCH   6  24
BRANCH   7  26
ATOM     26  O   UNL     1     -38.481  18.540  -1.504  0.00  0.00    -0.465 OA
ATOM     27  C   UNL     1     -38.749  17.233  -1.003  0.00  0.00    +0.253 C 
ENDBRANCH   7  26
BRANCH   8  28
ATOM     28  O   UNL     1     -35.751  18.641  -1.156  0.00  0.00    -0.465 OA
ATOM     29  C   UNL     1     -35.282  19.095  -2.423  0.00  0.00    +0.253 C 
ENDBRANCH   8  28
TORSDOF 7
ENDMDL
MODEL 5
REMARK VINA RESULT:      -5.8      5.210      8.167
REMARK  Name = 5318041
REMARK  7 active torsions:
REMARK  status: ('A' for Active; 'I' for Inactive)
REMARK    1  A    between atoms: C_5  and  O_22
REMARK    2  A    between atoms: C_6  and  O_24
REMARK    3  A    between atoms: C_7  and  O_26
REMARK    4  A    between atoms: C_8  and  O_28
REMARK    5  A    between atoms: C_9  and  C_12
REMARK    6  A    between atoms: C_15  and  O_18
REMARK    7  A    between atoms: C_17  and  O_20
REMARK                            x       y       z     vdW  Elec       q    Type
REMARK                         _______ _______ _______ _____ _____    ______ ____
ROOT
ATOM      1  O   UNL     1     -35.167  21.017   1.645  0.00  0.00    -0.450 OA
ATOM      2  O   UNL     1     -38.215  19.169  -0.327  0.00  0.00    -0.286 OA
ATOM      3  C   UNL     1     -37.541  20.892   1.142  0.00  0.00    +0.114 A 
ATOM      4  C   UNL     1     -36.452  21.477   1.786  0.00  0.00    +0.188 A 
ATOM      5  C   UNL     1     -38.827  21.403   1.322  0.00  0.00    +0.182 A 
ATOM      6  C   UNL     1     -36.645  22.581   2.618  0.00  0.00    +0.210 A 
ATOM      7  C   UNL     1     -39.018  22.507   2.155  0.00  0.00    +0.209 A 
ATOM      8  C   UNL     1     -37.929  23.095   2.801  0.00  0.00    +0.212 A 
ATOM      9  C   UNL     1     -34.946  19.918   0.829  0.00  0.00    +0.149 C 
ATOM     10  C   UNL     1     -37.308  19.730   0.269  0.00  0.00    +0.205 C 
ATOM     11  C   UNL     1     -35.908  19.273   0.152  0.00  0.00    +0.080 C 
ENDROOT
BRANCH   9  12
ATOM     12  C   UNL     1     -33.528  19.511   0.742  0.00  0.00    +0.038 C 
ATOM     13  C   UNL     1     -32.602  20.329   0.090  0.00  0.00    +0.043 C 
ATOM     14  C   UNL     1     -33.108  18.307   1.312  0.00  0.00    +0.006 C 
ATOM     15  C   UNL     1     -31.263  19.944   0.009  0.00  0.00    +0.168 C 
ATOM     16  C   UNL     1     -31.770  17.922   1.230  0.00  0.00    +0.040 C 
ATOM     17  C   UNL     1     -30.848  18.741   0.578  0.00  0.00    +0.167 C 
BRANCH  15  18
ATOM     18  O   UNL     1     -30.372  20.753  -0.631  0.00  0.00    -0.503 OA
ATOM     19  H   UNL     1     -30.662  21.316  -1.321  0.00  0.00    +0.292 HD
ENDBRANCH  15  18
BRANCH  17  20
ATOM     20  O   UNL     1     -29.544  18.355   0.505  0.00  0.00    -0.503 OA
ATOM     21  H   UNL     1     -29.028  18.586  -0.242  0.00  0.00    +0.292 HD
ENDBRANCH  17  20
ENDBRANCH   9  12
BRANCH   5  22
ATOM     22  O   UNL     1     -39.915  20.857   0.709  0.00  0.00    -0.468 OA
ATOM     23  C   UNL     1     -40.330  21.449  -0.520  0.00  0.00    +0.253 C 
ENDBRANCH   5  22
BRANCH   6  24
ATOM     24  O   UNL     1     -35.585  23.159   3.251  0.00  0.00    -0.465 OA
ATOM     25  C   UNL     1     -35.315  22.731   4.584  0.00  0.00    +0.253 C 
ENDBRANCH   6  24
BRANCH   7  26
ATOM     26  O   UNL     1     -40.270  23.016   2.340  0.00  0.00    -0.465 OA
ATOM     27  C   UNL     1     -40.640  24.132   1.536  0.00  0.00    +0.253 C 
ENDBRANCH   7  26
BRANCH   8  28
ATOM     28  O   UNL     1     -38.121  24.174   3.614  0.00  0.00    -0.465 OA
ATOM     29  C   UNL     1     -37.783  25.452   3.082  0.00  0.00    +0.253 C 
ENDBRANCH   8  28
TORSDOF 7
ENDMDL
MODEL 6
REMARK VINA RESULT:      -5.8      1.655      4.084
REMARK  Name = 5318041
REMARK  7 active torsions:
REMARK  status: ('A' for Active; 'I' for Inactive)
REMARK    1  A    between atoms: C_5  and  O_22
REMARK    2  A    between atoms: C_6  and  O_24
REMARK    3  A    between atoms: C_7  and  O_26
REMARK    4  A    between atoms: C_8  and  O_28
REMARK    5  A    between atoms: C_9  and  C_12
REMARK    6  A    between atoms: C_15  and  O_18
REMARK    7  A    between atoms: C_17  and  O_20
REMARK                            x       y       z     vdW  Elec       q    Type
REMARK                         _______ _______ _______ _____ _____    ______ ____
ROOT
ATOM      1  O   UNL     1     -36.072  25.772   2.893  0.00  0.00    -0.450 OA
ATOM      2  O   UNL     1     -33.340  28.563   4.051  0.00  0.00    -0.286 OA
ATOM      3  C   UNL     1     -35.173  28.017   2.664  0.00  0.00    +0.114 A 
ATOM      4  C   UNL     1     -36.078  27.016   2.316  0.00  0.00    +0.188 A 
ATOM      5  C   UNL     1     -35.227  29.267   2.044  0.00  0.00    +0.182 A 
ATOM      6  C   UNL     1     -37.047  27.261   1.342  0.00  0.00    +0.210 A 
ATOM      7  C   UNL     1     -36.196  29.509   1.070  0.00  0.00    +0.209 A 
ATOM      8  C   UNL     1     -37.104  28.509   0.719  0.00  0.00    +0.212 A 
ATOM      9  C   UNL     1     -35.116  25.498   3.860  0.00  0.00    +0.149 C 
ATOM     10  C   UNL     1     -34.163  27.732   3.696  0.00  0.00    +0.205 C 
ATOM     11  C   UNL     1     -34.196  26.378   4.284  0.00  0.00    +0.080 C 
ENDROOT
BRANCH   9  12
ATOM     12  C   UNL     1     -35.203  24.133   4.418  0.00  0.00    +0.038 C 
ATOM     13  C   UNL     1     -35.427  23.042   3.575  0.00  0.00    +0.043 C 
ATOM     14  C   UNL     1     -35.062  23.927   5.793  0.00  0.00    +0.006 C 
ATOM     15  C   UNL     1     -35.508  21.753   4.103  0.00  0.00    +0.168 C 
ATOM     16  C   UNL     1     -35.143  22.639   6.321  0.00  0.00    +0.040 C 
ATOM     17  C   UNL     1     -35.367  21.552   5.476  0.00  0.00    +0.167 C 
BRANCH  15  18
ATOM     18  O   UNL     1     -35.727  20.700   3.267  0.00  0.00    -0.503 OA
ATOM     19  H   UNL     1     -36.302  20.795   2.533  0.00  0.00    +0.292 HD
ENDBRANCH  15  18
BRANCH  17  20
ATOM     20  O   UNL     1     -35.445  20.298   6.003  0.00  0.00    -0.503 OA
ATOM     21  H   UNL     1     -36.208  19.776   5.857  0.00  0.00    +0.292 HD
ENDBRANCH  17  20
ENDBRANCH   9  12
BRANCH   5  22
ATOM     22  O   UNL     1     -34.358  30.268   2.359  0.00  0.00    -0.468 OA
ATOM     23  C   UNL     1     -33.306  30.527   1.430  0.00  0.00    +0.253 C 
ENDBRANCH   5  22
BRANCH   6  24
ATOM     24  O   UNL     1     -37.936  26.288   0.996  0.00  0.00    -0.465 OA
ATOM     25  C   UNL     1     -39.145  26.216   1.749  0.00  0.00    +0.253 C 
ENDBRANCH   6  24
BRANCH   7  26
ATOM     26  O   UNL     1     -36.259  30.726   0.456  0.00  0.00    -0.465 OA
ATOM     27  C   UNL     1     -37.112  31.704   1.046  0.00  0.00    +0.253 C 
ENDBRANCH   7  26
BRANCH   8  28
ATOM     28  O   UNL     1     -38.050  28.751  -0.234  0.00  0.00    -0.465 OA
ATOM     29  C   UNL     1     -37.699  28.454  -1.582  0.00  0.00    +0.253 C 
ENDBRANCH   8  28
TORSDOF 7
ENDMDL
MODEL 7
REMARK VINA RESULT:      -5.7      4.722      7.389
REMARK  Name = 5318041
REMARK  7 active torsions:
REMARK  status: ('A' for Active; 'I' for Inactive)
REMARK    1  A    between atoms: C_5  and  O_22
REMARK    2  A    between atoms: C_6  and  O_24
REMARK    3  A    between atoms: C_7  and  O_26
REMARK    4  A    between atoms: C_8  and  O_28
REMARK    5  A    between atoms: C_9  and  C_12
REMARK    6  A    between atoms: C_15  and  O_18
REMARK    7  A    between atoms: C_17  and  O_20
REMARK                            x       y       z     vdW  Elec       q    Type
REMARK                         _______ _______ _______ _____ _____    ______ ____
ROOT
ATOM      1  O   UNL     1     -36.169  21.529   0.932  0.00  0.00    -0.450 OA
ATOM      2  O   UNL     1     -35.967  22.489   4.886  0.00  0.00    -0.286 OA
ATOM      3  C   UNL     1     -36.774  23.041   2.735  0.00  0.00    +0.114 A 
ATOM      4  C   UNL     1     -36.803  22.654   1.396  0.00  0.00    +0.188 A 
ATOM      5  C   UNL     1     -37.438  24.197   3.151  0.00  0.00    +0.182 A 
ATOM      6  C   UNL     1     -37.500  23.423   0.463  0.00  0.00    +0.210 A 
ATOM      7  C   UNL     1     -38.133  24.965   2.216  0.00  0.00    +0.209 A 
ATOM      8  C   UNL     1     -38.164  24.579   0.875  0.00  0.00    +0.212 A 
ATOM      9  C   UNL     1     -35.465  20.749   1.836  0.00  0.00    +0.149 C 
ATOM     10  C   UNL     1     -36.034  22.211   3.697  0.00  0.00    +0.205 C 
ATOM     11  C   UNL     1     -35.368  21.012   3.148  0.00  0.00    +0.080 C 
ENDROOT
BRANCH   9  12
ATOM     12  C   UNL     1     -34.828  19.560   1.232  0.00  0.00    +0.038 C 
ATOM     13  C   UNL     1     -33.572  19.136   1.674  0.00  0.00    +0.043 C 
ATOM     14  C   UNL     1     -35.478  18.856   0.216  0.00  0.00    +0.006 C 
ATOM     15  C   UNL     1     -32.971  18.013   1.104  0.00  0.00    +0.168 C 
ATOM     16  C   UNL     1     -34.877  17.733  -0.354  0.00  0.00    +0.040 C 
ATOM     17  C   UNL     1     -33.624  17.313   0.090  0.00  0.00    +0.167 C 
BRANCH  15  18
ATOM     18  O   UNL     1     -31.746  17.612   1.547  0.00  0.00    -0.503 OA
ATOM     19  H   UNL     1     -31.210  17.064   1.009  0.00  0.00    +0.292 HD
ENDBRANCH  15  18
BRANCH  17  20
ATOM     20  O   UNL     1     -33.047  16.215  -0.475  0.00  0.00    -0.503 OA
ATOM     21  H   UNL     1     -32.115  16.164  -0.552  0.00  0.00    +0.292 HD
ENDBRANCH  17  20
ENDBRANCH   9  12
BRANCH   5  22
ATOM     22  O   UNL     1     -37.431  24.606   4.451  0.00  0.00    -0.468 OA
ATOM     23  C   UNL     1     -36.507  25.636   4.799  0.00  0.00    +0.253 C 
ENDBRANCH   5  22
BRANCH   6  24
ATOM     24  O   UNL     1     -37.533  23.051  -0.848  0.00  0.00    -0.465 OA
ATOM     25  C   UNL     1     -38.620  22.226  -1.260  0.00  0.00    +0.253 C 
ENDBRANCH   6  24
BRANCH   7  26
ATOM     26  O   UNL     1     -38.786  26.096   2.610  0.00  0.00    -0.465 OA
ATOM     27  C   UNL     1     -40.171  25.969   2.920  0.00  0.00    +0.253 C 
ENDBRANCH   7  26
BRANCH   8  28
ATOM     28  O   UNL     1     -38.845  25.333  -0.035  0.00  0.00    -0.465 OA
ATOM     29  C   UNL     1     -38.121  26.377  -0.681  0.00  0.00    +0.253 C 
ENDBRANCH   8  28
TORSDOF 7
ENDMDL
MODEL 8
REMARK VINA RESULT:      -5.6      4.589      7.264
REMARK  Name = 5318041
REMARK  7 active torsions:
REMARK  status: ('A' for Active; 'I' for Inactive)
REMARK    1  A    between atoms: C_5  and  O_22
REMARK    2  A    between atoms: C_6  and  O_24
REMARK    3  A    between atoms: C_7  and  O_26
REMARK    4  A    between atoms: C_8  and  O_28
REMARK    5  A    between atoms: C_9  and  C_12
REMARK    6  A    between atoms: C_15  and  O_18
REMARK    7  A    between atoms: C_17  and  O_20
REMARK                            x       y       z     vdW  Elec       q    Type
REMARK                         _______ _______ _______ _____ _____    ______ ____
ROOT
ATOM      1  O   UNL     1     -35.281  20.642   2.044  0.00  0.00    -0.450 OA
ATOM      2  O   UNL     1     -38.183  21.672  -0.623  0.00  0.00    -0.286 OA
ATOM      3  C   UNL     1     -37.116  22.115   1.437  0.00  0.00    +0.114 A 
ATOM      4  C   UNL     1     -36.103  21.709   2.306  0.00  0.00    +0.188 A 
ATOM      5  C   UNL     1     -37.922  23.209   1.755  0.00  0.00    +0.182 A 
ATOM      6  C   UNL     1     -35.891  22.398   3.500  0.00  0.00    +0.210 A 
ATOM      7  C   UNL     1     -37.709  23.896   2.951  0.00  0.00    +0.209 A 
ATOM      8  C   UNL     1     -36.696  23.493   3.821  0.00  0.00    +0.212 A 
ATOM      9  C   UNL     1     -35.472  19.935   0.867  0.00  0.00    +0.149 C 
ATOM     10  C   UNL     1     -37.316  21.371   0.184  0.00  0.00    +0.205 C 
ATOM     11  C   UNL     1     -36.407  20.231  -0.050  0.00  0.00    +0.080 C 
ENDROOT
BRANCH   9  12
ATOM     12  C   UNL     1     -34.530  18.812   0.682  0.00  0.00    +0.038 C 
ATOM     13  C   UNL     1     -33.292  18.821   1.330  0.00  0.00    +0.043 C 
ATOM     14  C   UNL     1     -34.873  17.737  -0.141  0.00  0.00    +0.006 C 
ATOM     15  C   UNL     1     -32.402  17.760   1.156  0.00  0.00    +0.168 C 
ATOM     16  C   UNL     1     -33.983  16.677  -0.315  0.00  0.00    +0.040 C 
ATOM     17  C   UNL     1     -32.748  16.689   0.332  0.00  0.00    +0.167 C 
BRANCH  15  18
ATOM     18  O   UNL     1     -31.199  17.784   1.794  0.00  0.00    -0.503 OA
ATOM     19  H   UNL     1     -30.907  18.568   2.216  0.00  0.00    +0.292 HD
ENDBRANCH  15  18
BRANCH  17  20
ATOM     20  O   UNL     1     -31.888  15.648   0.154  0.00  0.00    -0.503 OA
ATOM     21  H   UNL     1     -31.848  14.959   0.787  0.00  0.00    +0.292 HD
ENDBRANCH  17  20
ENDBRANCH   9  12
BRANCH   5  22
ATOM     22  O   UNL     1     -38.922  23.634   0.932  0.00  0.00    -0.468 OA
ATOM     23  C   UNL     1     -40.259  23.332   1.328  0.00  0.00    +0.253 C 
ENDBRANCH   5  22
BRANCH   6  24
ATOM     24  O   UNL     1     -34.903  22.007   4.354  0.00  0.00    -0.465 OA
ATOM     25  C   UNL     1     -35.306  21.367   5.562  0.00  0.00    +0.253 C 
ENDBRANCH   6  24
BRANCH   7  26
ATOM     26  O   UNL     1     -38.491  24.967   3.273  0.00  0.00    -0.465 OA
ATOM     27  C   UNL     1     -38.164  26.213   2.663  0.00  0.00    +0.253 C 
ENDBRANCH   7  26
BRANCH   8  28
ATOM     28  O   UNL     1     -36.491  24.168   4.989  0.00  0.00    -0.465 OA
ATOM     29  C   UNL     1     -35.501  25.193   4.978  0.00  0.00    +0.253 C 
ENDBRANCH   8  28
TORSDOF 7
ENDMDL
MODEL 9
REMARK VINA RESULT:      -5.6      4.749      9.684
REMARK  Name = 5318041
REMARK  7 active torsions:
REMARK  status: ('A' for Active; 'I' for Inactive)
REMARK    1  A    between atoms: C_5  and  O_22
REMARK    2  A    between atoms: C_6  and  O_24
REMARK    3  A    between atoms: C_7  and  O_26
REMARK    4  A    between atoms: C_8  and  O_28
REMARK    5  A    between atoms: C_9  and  C_12
REMARK    6  A    between atoms: C_15  and  O_18
REMARK    7  A    between atoms: C_17  and  O_20
REMARK                            x       y       z     vdW  Elec       q    Type
REMARK                         _______ _______ _______ _____ _____    ______ ____
ROOT
ATOM      1  O   UNL     1     -35.835  20.937   1.728  0.00  0.00    -0.450 OA
ATOM      2  O   UNL     1     -39.452  20.220  -0.006  0.00  0.00    -0.286 OA
ATOM      3  C   UNL     1     -37.172  19.628   0.178  0.00  0.00    +0.114 A 
ATOM      4  C   UNL     1     -35.966  19.926   0.809  0.00  0.00    +0.188 A 
ATOM      5  C   UNL     1     -37.246  18.586  -0.748  0.00  0.00    +0.182 A 
ATOM      6  C   UNL     1     -34.822  19.182   0.516  0.00  0.00    +0.210 A 
ATOM      7  C   UNL     1     -36.101  17.843  -1.040  0.00  0.00    +0.209 A 
ATOM      8  C   UNL     1     -34.892  18.140  -0.410  0.00  0.00    +0.212 A 
ATOM      9  C   UNL     1     -36.954  21.698   2.035  0.00  0.00    +0.149 C 
ATOM     10  C   UNL     1     -38.362  20.428   0.508  0.00  0.00    +0.205 C 
ATOM     11  C   UNL     1     -38.169  21.505   1.500  0.00  0.00    +0.080 C 
ENDROOT
BRANCH   9  12
ATOM     12  C   UNL     1     -36.704  22.753   3.038  0.00  0.00    +0.038 C 
ATOM     13  C   UNL     1     -37.419  23.953   2.988  0.00  0.00    +0.043 C 
ATOM     14  C   UNL     1     -35.752  22.556   4.041  0.00  0.00    +0.006 C 
ATOM     15  C   UNL     1     -37.183  24.949   3.936  0.00  0.00    +0.168 C 
ATOM     16  C   UNL     1     -35.516  23.552   4.988  0.00  0.00    +0.040 C 
ATOM     17  C   UNL     1     -36.231  24.748   4.935  0.00  0.00    +0.167 C 
BRANCH  15  18
ATOM     18  O   UNL     1     -37.889  26.113   3.873  0.00  0.00    -0.503 OA
ATOM     19  H   UNL     1     -37.611  26.857   4.370  0.00  0.00    +0.292 HD
ENDBRANCH  15  18
BRANCH  17  20
ATOM     20  O   UNL     1     -35.992  25.714   5.866  0.00  0.00    -0.503 OA
ATOM     21  H   UNL     1     -36.706  26.113   6.322  0.00  0.00    +0.292 HD
ENDBRANCH  17  20
ENDBRANCH   9  12
BRANCH   5  22
ATOM     22  O   UNL     1     -38.407  18.266  -1.385  0.00  0.00    -0.468 OA
ATOM     23  C   UNL     1     -39.020  17.027  -1.030  0.00  0.00    +0.253 C 
ENDBRANCH   5  22
BRANCH   6  24
ATOM     24  O   UNL     1     -33.639  19.468   1.130  0.00  0.00    -0.465 OA
ATOM     25  C   UNL     1     -32.718  20.284   0.411  0.00  0.00    +0.253 C 
ENDBRANCH   6  24
BRANCH   7  26
ATOM     26  O   UNL     1     -36.160  16.823  -1.944  0.00  0.00    -0.465 OA
ATOM     27  C   UNL     1     -35.856  17.141  -3.300  0.00  0.00    +0.253 C 
ENDBRANCH   7  26
BRANCH   8  28
ATOM     28  O   UNL     1     -33.776  17.411  -0.698  0.00  0.00    -0.465 OA
ATOM     29  C   UNL     1     -33.574  16.214   0.048  0.00  0.00    +0.253 C 
ENDBRANCH   8  28
TORSDOF 7
ENDMDL
