MODEL 1
REMARK VINA RESULT:      -6.9      0.000      0.000
REMARK  Name = 193775
REMARK  10 active torsions:
REMARK  status: ('A' for Active; 'I' for Inactive)
REMARK    1  A    between atoms: N_2  and  C_5
REMARK    2  A    between atoms: C_3  and  C_22
REMARK    3  A    between atoms: C_5  and  C_6
REMARK    4  A    between atoms: C_6  and  O_7
REMARK    5  A    between atoms: C_6  and  C_9
REMARK    6  A    between atoms: C_9  and  N_10
REMARK    7  A    between atoms: C_22  and  N_23
REMARK    8  A    between atoms: C_22  and  C_27
REMARK    9  A    between atoms: C_27  and  C_28
REMARK   10  A    between atoms: C_33  and  O_34
REMARK                            x       y       z     vdW  Elec       q    Type
REMARK                         _______ _______ _______ _____ _____    ______ ____
ROOT
ATOM      1  O   UNL     1     -34.802  22.596   1.860  0.00  0.00    -0.277 OA
ATOM      2  N   UNL     1     -36.458  22.115   3.411  0.00  0.00    -0.304 N 
ATOM      3  C   UNL     1     -35.535  21.787   2.429  0.00  0.00    +0.202 C 
ATOM      4  H   UNL     1     -37.003  21.399   3.811  0.00  0.00    +0.149 HD
ENDROOT
BRANCH   2   5
ATOM      5  C   UNL     1     -36.645  23.471   3.867  0.00  0.00    +0.120 C 
BRANCH   5   6
ATOM      6  C   UNL     1     -35.703  23.851   5.010  0.00  0.00    +0.150 C 
BRANCH   6   7
ATOM      7  O   UNL     1     -35.908  22.956   6.104  0.00  0.00    -0.381 OA
ATOM      8  H   UNL     1     -35.093  22.895   6.628  0.00  0.00    +0.210 HD
ENDBRANCH   6   7
BRANCH   6   9
ATOM      9  C   UNL     1     -35.914  25.289   5.494  0.00  0.00    +0.125 C 
BRANCH   9  10
ATOM     10  N   UNL     1     -34.746  26.135   5.247  0.00  0.00    -0.269 N 
ATOM     11  N   UNL     1     -32.824  27.198   5.631  0.00  0.00    -0.242 NA
ATOM     12  N   UNL     1     -35.157  26.829   2.956  0.00  0.00    -0.228 NA
ATOM     13  N   UNL     1     -31.511  28.920   3.495  0.00  0.00    -0.289 N 
ATOM     14  N   UNL     1     -33.384  28.296   2.144  0.00  0.00    -0.228 NA
ATOM     15  C   UNL     1     -34.448  26.805   4.095  0.00  0.00    +0.151 C 
ATOM     16  C   UNL     1     -33.253  27.457   4.353  0.00  0.00    +0.140 C 
ATOM     17  C   UNL     1     -33.742  26.403   6.140  0.00  0.00    +0.221 C 
ATOM     18  C   UNL     1     -32.721  28.225   3.323  0.00  0.00    +0.149 C 
ATOM     19  C   UNL     1     -34.544  27.604   2.035  0.00  0.00    +0.253 C 
ATOM     20  C   UNL     1     -30.793  28.850   4.756  0.00  0.00    +0.114 C 
ATOM     21  C   UNL     1     -30.951  29.710   2.413  0.00  0.00    +0.114 C 
ENDBRANCH   9  10
ENDBRANCH   6   9
ENDBRANCH   5   6
ENDBRANCH   2   5
BRANCH   3  22
ATOM     22  C   UNL     1     -35.498  20.292   2.135  0.00  0.00    +0.017 C 
BRANCH  22  23
ATOM     23  N   UNL     1     -36.861  19.792   2.318  0.00  0.00    +0.388 N 
ATOM     24  H   UNL     1     -36.915  19.262   3.188  0.00  0.00    -0.089 HD
ATOM     25  H   UNL     1     -37.109  19.186   1.535  0.00  0.00    -0.089 HD
ATOM     26  H   UNL     1     -37.509  20.578   2.359  0.00  0.00    -0.089 HD
ENDBRANCH  22  23
BRANCH  22  27
ATOM     27  C   UNL     1     -35.035  20.031   0.693  0.00  0.00    +0.013 C 
BRANCH  27  28
ATOM     28  C   UNL     1     -33.582  19.630   0.608  0.00  0.00    -0.024 C 
ATOM     29  C   UNL     1     -32.675  20.439  -0.077  0.00  0.00    -0.001 C 
ATOM     30  C   UNL     1     -33.146  18.450   1.211  0.00  0.00    -0.001 C 
ATOM     31  C   UNL     1     -31.332  20.069  -0.156  0.00  0.00    +0.037 C 
ATOM     32  C   UNL     1     -31.804  18.080   1.131  0.00  0.00    +0.037 C 
ATOM     33  C   UNL     1     -30.898  18.889   0.447  0.00  0.00    +0.139 C 
BRANCH  33  34
ATOM     34  O   UNL     1     -29.588  18.527   0.368  0.00  0.00    -0.471 OA
ATOM     35  C   UNL     1     -29.160  17.451   1.202  0.00  0.00    +0.252 C 
ENDBRANCH  33  34
ENDBRANCH  27  28
ENDBRANCH  22  27
ENDBRANCH   3  22
TORSDOF 10
ENDMDL
MODEL 2
REMARK VINA RESULT:      -6.9      0.737      1.955
REMARK  Name = 193775
REMARK  10 active torsions:
REMARK  status: ('A' for Active; 'I' for Inactive)
REMARK    1  A    between atoms: N_2  and  C_5
REMARK    2  A    between atoms: C_3  and  C_22
REMARK    3  A    between atoms: C_5  and  C_6
REMARK    4  A    between atoms: C_6  and  O_7
REMARK    5  A    between atoms: C_6  and  C_9
REMARK    6  A    between atoms: C_9  and  N_10
REMARK    7  A    between atoms: C_22  and  N_23
REMARK    8  A    between atoms: C_22  and  C_27
REMARK    9  A    between atoms: C_27  and  C_28
REMARK   10  A    between atoms: C_33  and  O_34
REMARK                            x       y       z     vdW  Elec       q    Type
REMARK                         _______ _______ _______ _____ _____    ______ ____
ROOT
ATOM      1  O   UNL     1     -34.815  22.568   1.791  0.00  0.00    -0.277 OA
ATOM      2  N   UNL     1     -36.497  22.060   3.305  0.00  0.00    -0.304 N 
ATOM      3  C   UNL     1     -35.540  21.747   2.351  0.00  0.00    +0.202 C 
ATOM      4  H   UNL     1     -37.032  21.334   3.700  0.00  0.00    +0.149 HD
ENDROOT
BRANCH   2   5
ATOM      5  C   UNL     1     -36.733  23.417   3.738  0.00  0.00    +0.120 C 
BRANCH   5   6
ATOM      6  C   UNL     1     -35.771  23.866   4.839  0.00  0.00    +0.150 C 
BRANCH   6   7
ATOM      7  O   UNL     1     -35.968  23.052   5.995  0.00  0.00    -0.381 OA
ATOM      8  H   UNL     1     -35.188  22.490   6.130  0.00  0.00    +0.210 HD
ENDBRANCH   6   7
BRANCH   6   9
ATOM      9  C   UNL     1     -35.963  25.336   5.225  0.00  0.00    +0.125 C 
BRANCH   9  10
ATOM     10  N   UNL     1     -34.967  26.208   4.603  0.00  0.00    -0.269 N 
ATOM     11  N   UNL     1     -33.931  27.397   3.026  0.00  0.00    -0.242 NA
ATOM     12  N   UNL     1     -33.496  26.642   6.486  0.00  0.00    -0.228 NA
ATOM     13  N   UNL     1     -31.390  28.956   3.628  0.00  0.00    -0.289 N 
ATOM     14  N   UNL     1     -31.647  28.102   5.848  0.00  0.00    -0.228 NA
ATOM     15  C   UNL     1     -33.878  26.770   5.207  0.00  0.00    +0.151 C 
ATOM     16  C   UNL     1     -33.249  27.503   4.213  0.00  0.00    +0.140 C 
ATOM     17  C   UNL     1     -34.954  26.613   3.294  0.00  0.00    +0.221 C 
ATOM     18  C   UNL     1     -32.092  28.186   4.572  0.00  0.00    +0.149 C 
ATOM     19  C   UNL     1     -32.365  27.347   6.713  0.00  0.00    +0.253 C 
ATOM     20  C   UNL     1     -31.861  29.053   2.257  0.00  0.00    +0.114 C 
ATOM     21  C   UNL     1     -30.191  29.680   4.009  0.00  0.00    +0.114 C 
ENDBRANCH   9  10
ENDBRANCH   6   9
ENDBRANCH   5   6
ENDBRANCH   2   5
BRANCH   3  22
ATOM     22  C   UNL     1     -35.454  20.249   2.078  0.00  0.00    +0.017 C 
BRANCH  22  23
ATOM     23  N   UNL     1     -36.803  19.710   2.254  0.00  0.00    +0.388 N 
ATOM     24  H   UNL     1     -37.464  20.478   2.369  0.00  0.00    -0.089 HD
ATOM     25  H   UNL     1     -36.826  19.115   3.083  0.00  0.00    -0.089 HD
ATOM     26  H   UNL     1     -37.059  19.160   1.434  0.00  0.00    -0.089 HD
ENDBRANCH  22  23
BRANCH  22  27
ATOM     27  C   UNL     1     -34.969  19.985   0.645  0.00  0.00    +0.013 C 
BRANCH  27  28
ATOM     28  C   UNL     1     -33.512  19.590   0.583  0.00  0.00    -0.024 C 
ATOM     29  C   UNL     1     -33.084  18.409   1.190  0.00  0.00    -0.001 C 
ATOM     30  C   UNL     1     -32.595  20.406  -0.081  0.00  0.00    -0.001 C 
ATOM     31  C   UNL     1     -31.739  18.044   1.132  0.00  0.00    +0.037 C 
ATOM     32  C   UNL     1     -31.250  20.041  -0.137  0.00  0.00    +0.037 C 
ATOM     33  C   UNL     1     -30.823  18.860   0.470  0.00  0.00    +0.139 C 
BRANCH  33  34
ATOM     34  O   UNL     1     -29.510  18.504   0.415  0.00  0.00    -0.471 OA
ATOM     35  C   UNL     1     -29.127  17.324   1.121  0.00  0.00    +0.252 C 
ENDBRANCH  33  34
ENDBRANCH  27  28
ENDBRANCH  22  27
ENDBRANCH   3  22
TORSDOF 10
ENDMDL
MODEL 3
REMARK VINA RESULT:      -6.6      3.596      8.417
REMARK  Name = 193775
REMARK  10 active torsions:
REMARK  status: ('A' for Active; 'I' for Inactive)
REMARK    1  A    between atoms: N_2  and  C_5
REMARK    2  A    between atoms: C_3  and  C_22
REMARK    3  A    between atoms: C_5  and  C_6
REMARK    4  A    between atoms: C_6  and  O_7
REMARK    5  A    between atoms: C_6  and  C_9
REMARK    6  A    between atoms: C_9  and  N_10
REMARK    7  A    between atoms: C_22  and  N_23
REMARK    8  A    between atoms: C_22  and  C_27
REMARK    9  A    between atoms: C_27  and  C_28
REMARK   10  A    between atoms: C_33  and  O_34
REMARK                            x       y       z     vdW  Elec       q    Type
REMARK                         _______ _______ _______ _____ _____    ______ ____
ROOT
ATOM      1  O   UNL     1     -35.592  26.198   2.509  0.00  0.00    -0.277 OA
ATOM      2  N   UNL     1     -37.705  26.224   3.464  0.00  0.00    -0.304 N 
ATOM      3  C   UNL     1     -36.320  26.171   3.501  0.00  0.00    +0.202 C 
ATOM      4  H   UNL     1     -38.206  26.195   4.311  0.00  0.00    +0.149 HD
ENDROOT
BRANCH   2   5
ATOM      5  C   UNL     1     -38.437  26.320   2.223  0.00  0.00    +0.120 C 
BRANCH   5   6
ATOM      6  C   UNL     1     -39.851  25.747   2.320  0.00  0.00    +0.150 C 
BRANCH   6   7
ATOM      7  O   UNL     1     -40.696  26.690   2.979  0.00  0.00    -0.381 OA
ATOM      8  H   UNL     1     -40.156  27.276   3.531  0.00  0.00    +0.210 HD
ENDBRANCH   6   7
BRANCH   6   9
ATOM      9  C   UNL     1     -39.897  24.418   3.080  0.00  0.00    +0.125 C 
BRANCH   9  10
ATOM     10  N   UNL     1     -39.298  23.321   2.319  0.00  0.00    -0.269 N 
ATOM     11  N   UNL     1     -39.075  21.747   0.756  0.00  0.00    -0.242 NA
ATOM     12  N   UNL     1     -37.209  23.016   3.520  0.00  0.00    -0.228 NA
ATOM     13  N   UNL     1     -36.605  19.977   0.628  0.00  0.00    -0.289 N 
ATOM     14  N   UNL     1     -35.875  21.224   2.536  0.00  0.00    -0.228 NA
ATOM     15  C   UNL     1     -38.091  22.725   2.552  0.00  0.00    +0.151 C 
ATOM     16  C   UNL     1     -37.972  21.752   1.573  0.00  0.00    +0.140 C 
ATOM     17  C   UNL     1     -39.851  22.699   1.231  0.00  0.00    +0.221 C 
ATOM     18  C   UNL     1     -36.811  20.986   1.586  0.00  0.00    +0.149 C 
ATOM     19  C   UNL     1     -36.128  22.209   3.431  0.00  0.00    +0.253 C 
ATOM     20  C   UNL     1     -37.602  19.716  -0.394  0.00  0.00    +0.114 C 
ATOM     21  C   UNL     1     -35.386  19.189   0.636  0.00  0.00    +0.114 C 
ENDBRANCH   9  10
ENDBRANCH   6   9
ENDBRANCH   5   6
ENDBRANCH   2   5
BRANCH   3  22
ATOM     22  C   UNL     1     -35.774  26.099   4.923  0.00  0.00    +0.017 C 
BRANCH  22  23
ATOM     23  N   UNL     1     -36.588  25.116   5.638  0.00  0.00    +0.388 N 
ATOM     24  H   UNL     1     -36.318  25.100   6.621  0.00  0.00    -0.089 HD
ATOM     25  H   UNL     1     -36.442  24.191   5.230  0.00  0.00    -0.089 HD
ATOM     26  H   UNL     1     -37.574  25.369   5.561  0.00  0.00    -0.089 HD
ENDBRANCH  22  23
BRANCH  22  27
ATOM     27  C   UNL     1     -34.303  25.657   4.920  0.00  0.00    +0.013 C 
BRANCH  27  28
ATOM     28  C   UNL     1     -33.355  26.771   5.294  0.00  0.00    -0.024 C 
ATOM     29  C   UNL     1     -32.843  27.611   4.305  0.00  0.00    -0.001 C 
ATOM     30  C   UNL     1     -32.990  26.961   6.627  0.00  0.00    -0.001 C 
ATOM     31  C   UNL     1     -31.968  28.641   4.649  0.00  0.00    +0.037 C 
ATOM     32  C   UNL     1     -32.115  27.990   6.971  0.00  0.00    +0.037 C 
ATOM     33  C   UNL     1     -31.603  28.830   5.982  0.00  0.00    +0.139 C 
BRANCH  33  34
ATOM     34  O   UNL     1     -30.748  29.834   6.318  0.00  0.00    -0.471 OA
ATOM     35  C   UNL     1     -29.458  29.454   6.798  0.00  0.00    +0.252 C 
ENDBRANCH  33  34
ENDBRANCH  27  28
ENDBRANCH  22  27
ENDBRANCH   3  22
TORSDOF 10
ENDMDL
MODEL 4
REMARK VINA RESULT:      -6.6      2.162      3.469
REMARK  Name = 193775
REMARK  10 active torsions:
REMARK  status: ('A' for Active; 'I' for Inactive)
REMARK    1  A    between atoms: N_2  and  C_5
REMARK    2  A    between atoms: C_3  and  C_22
REMARK    3  A    between atoms: C_5  and  C_6
REMARK    4  A    between atoms: C_6  and  O_7
REMARK    5  A    between atoms: C_6  and  C_9
REMARK    6  A    between atoms: C_9  and  N_10
REMARK    7  A    between atoms: C_22  and  N_23
REMARK    8  A    between atoms: C_22  and  C_27
REMARK    9  A    between atoms: C_27  and  C_28
REMARK   10  A    between atoms: C_33  and  O_34
REMARK                            x       y       z     vdW  Elec       q    Type
REMARK                         _______ _______ _______ _____ _____    ______ ____
ROOT
ATOM      1  O   UNL     1     -35.549  23.350   1.012  0.00  0.00    -0.277 OA
ATOM      2  N   UNL     1     -37.392  22.177   1.790  0.00  0.00    -0.304 N 
ATOM      3  C   UNL     1     -36.033  22.408   1.638  0.00  0.00    +0.202 C 
ATOM      4  H   UNL     1     -37.687  21.394   2.310  0.00  0.00    +0.149 HD
ENDROOT
BRANCH   2   5
ATOM      5  C   UNL     1     -38.387  23.048   1.213  0.00  0.00    +0.120 C 
BRANCH   5   6
ATOM      6  C   UNL     1     -39.703  23.048   1.993  0.00  0.00    +0.150 C 
BRANCH   6   7
ATOM      7  O   UNL     1     -40.795  23.042   1.072  0.00  0.00    -0.381 OA
ATOM      8  H   UNL     1     -40.780  23.860   0.550  0.00  0.00    +0.210 HD
ENDBRANCH   6   7
BRANCH   6   9
ATOM      9  C   UNL     1     -39.838  24.259   2.920  0.00  0.00    +0.125 C 
BRANCH   9  10
ATOM     10  N   UNL     1     -38.705  25.178   2.801  0.00  0.00    -0.269 N 
ATOM     11  N   UNL     1     -37.484  26.898   2.078  0.00  0.00    -0.242 NA
ATOM     12  N   UNL     1     -37.170  24.230   4.427  0.00  0.00    -0.228 NA
ATOM     13  N   UNL     1     -34.703  27.443   3.182  0.00  0.00    -0.289 N 
ATOM     14  N   UNL     1     -35.095  25.510   4.536  0.00  0.00    -0.228 NA
ATOM     15  C   UNL     1     -37.531  25.126   3.496  0.00  0.00    +0.151 C 
ATOM     16  C   UNL     1     -36.788  26.200   3.034  0.00  0.00    +0.140 C 
ATOM     17  C   UNL     1     -38.629  26.258   1.962  0.00  0.00    +0.221 C 
ATOM     18  C   UNL     1     -35.526  26.378   3.590  0.00  0.00    +0.149 C 
ATOM     19  C   UNL     1     -35.931  24.505   4.891  0.00  0.00    +0.253 C 
ATOM     20  C   UNL     1     -35.157  28.379   2.169  0.00  0.00    +0.114 C 
ATOM     21  C   UNL     1     -33.392  27.634   3.775  0.00  0.00    +0.114 C 
ENDBRANCH   9  10
ENDBRANCH   6   9
ENDBRANCH   5   6
ENDBRANCH   2   5
BRANCH   3  22
ATOM     22  C   UNL     1     -35.178  21.371   2.359  0.00  0.00    +0.017 C 
BRANCH  22  23
ATOM     23  N   UNL     1     -35.810  21.133   3.657  0.00  0.00    +0.388 N 
ATOM     24  H   UNL     1     -35.208  20.537   4.225  0.00  0.00    -0.089 HD
ATOM     25  H   UNL     1     -36.710  20.672   3.518  0.00  0.00    -0.089 HD
ATOM     26  H   UNL     1     -35.954  22.023   4.134  0.00  0.00    -0.089 HD
ENDBRANCH  22  23
BRANCH  22  27
ATOM     27  C   UNL     1     -35.120  20.061   1.558  0.00  0.00    +0.013 C 
BRANCH  27  28
ATOM     28  C   UNL     1     -33.718  19.701   1.126  0.00  0.00    -0.024 C 
ATOM     29  C   UNL     1     -32.986  20.582   0.331  0.00  0.00    -0.001 C 
ATOM     30  C   UNL     1     -33.156  18.486   1.521  0.00  0.00    -0.001 C 
ATOM     31  C   UNL     1     -31.691  20.250  -0.068  0.00  0.00    +0.037 C 
ATOM     32  C   UNL     1     -31.862  18.154   1.122  0.00  0.00    +0.037 C 
ATOM     33  C   UNL     1     -31.130  19.036   0.327  0.00  0.00    +0.139 C 
BRANCH  33  34
ATOM     34  O   UNL     1     -29.867  18.711  -0.064  0.00  0.00    -0.471 OA
ATOM     35  C   UNL     1     -29.131  17.830   0.785  0.00  0.00    +0.252 C 
ENDBRANCH  33  34
ENDBRANCH  27  28
ENDBRANCH  22  27
ENDBRANCH   3  22
TORSDOF 10
ENDMDL
MODEL 5
REMARK VINA RESULT:      -6.6      4.137     10.208
REMARK  Name = 193775
REMARK  10 active torsions:
REMARK  status: ('A' for Active; 'I' for Inactive)
REMARK    1  A    between atoms: N_2  and  C_5
REMARK    2  A    between atoms: C_3  and  C_22
REMARK    3  A    between atoms: C_5  and  C_6
REMARK    4  A    between atoms: C_6  and  O_7
REMARK    5  A    between atoms: C_6  and  C_9
REMARK    6  A    between atoms: C_9  and  N_10
REMARK    7  A    between atoms: C_22  and  N_23
REMARK    8  A    between atoms: C_22  and  C_27
REMARK    9  A    between atoms: C_27  and  C_28
REMARK   10  A    between atoms: C_33  and  O_34
REMARK                            x       y       z     vdW  Elec       q    Type
REMARK                         _______ _______ _______ _____ _____    ______ ____
ROOT
ATOM      1  O   UNL     1     -33.959  21.125   0.664  0.00  0.00    -0.277 OA
ATOM      2  N   UNL     1     -34.153  19.175   1.903  0.00  0.00    -0.304 N 
ATOM      3  C   UNL     1     -34.538  20.449   1.513  0.00  0.00    +0.202 C 
ATOM      4  H   UNL     1     -34.678  18.709   2.594  0.00  0.00    +0.149 HD
ENDROOT
BRANCH   2   5
ATOM      5  C   UNL     1     -33.008  18.510   1.330  0.00  0.00    +0.120 C 
BRANCH   5   6
ATOM      6  C   UNL     1     -33.365  17.183   0.657  0.00  0.00    +0.150 C 
BRANCH   6   7
ATOM      7  O   UNL     1     -32.177  16.412   0.478  0.00  0.00    -0.381 OA
ATOM      8  H   UNL     1     -31.762  16.650  -0.366  0.00  0.00    +0.210 HD
ENDBRANCH   6   7
BRANCH   6   9
ATOM      9  C   UNL     1     -34.045  17.376  -0.702  0.00  0.00    +0.125 C 
BRANCH   9  10
ATOM     10  N   UNL     1     -35.336  16.691  -0.780  0.00  0.00    -0.269 N 
ATOM     11  N   UNL     1     -36.803  15.016  -0.888  0.00  0.00    -0.242 NA
ATOM     12  N   UNL     1     -36.859  18.583  -0.811  0.00  0.00    -0.228 NA
ATOM     13  N   UNL     1     -39.797  15.536  -1.019  0.00  0.00    -0.289 N 
ATOM     14  N   UNL     1     -39.182  17.847  -0.941  0.00  0.00    -0.228 NA
ATOM     15  C   UNL     1     -36.571  17.273  -0.827  0.00  0.00    +0.151 C 
ATOM     16  C   UNL     1     -37.466  16.218  -0.893  0.00  0.00    +0.140 C 
ATOM     17  C   UNL     1     -35.527  15.336  -0.820  0.00  0.00    +0.221 C 
ATOM     18  C   UNL     1     -38.818  16.543  -0.951  0.00  0.00    +0.149 C 
ATOM     19  C   UNL     1     -38.195  18.773  -0.872  0.00  0.00    +0.253 C 
ATOM     20  C   UNL     1     -39.414  14.135  -1.030  0.00  0.00    +0.114 C 
ATOM     21  C   UNL     1     -41.207  15.878  -1.066  0.00  0.00    +0.114 C 
ENDBRANCH   9  10
ENDBRANCH   6   9
ENDBRANCH   5   6
ENDBRANCH   2   5
BRANCH   3  22
ATOM     22  C   UNL     1     -35.790  20.931   2.238  0.00  0.00    +0.017 C 
BRANCH  22  23
ATOM     23  N   UNL     1     -36.742  19.820   2.218  0.00  0.00    +0.388 N 
ATOM     24  H   UNL     1     -36.243  18.945   2.059  0.00  0.00    -0.089 HD
ATOM     25  H   UNL     1     -37.419  19.966   1.467  0.00  0.00    -0.089 HD
ATOM     26  H   UNL     1     -37.232  19.775   3.112  0.00  0.00    -0.089 HD
ENDBRANCH  22  23
BRANCH  22  27
ATOM     27  C   UNL     1     -35.465  21.314   3.689  0.00  0.00    +0.013 C 
BRANCH  27  28
ATOM     28  C   UNL     1     -35.390  22.808   3.898  0.00  0.00    -0.024 C 
ATOM     29  C   UNL     1     -35.212  23.656   2.805  0.00  0.00    -0.001 C 
ATOM     30  C   UNL     1     -35.498  23.341   5.183  0.00  0.00    -0.001 C 
ATOM     31  C   UNL     1     -35.143  25.036   2.997  0.00  0.00    +0.037 C 
ATOM     32  C   UNL     1     -35.429  24.720   5.375  0.00  0.00    +0.037 C 
ATOM     33  C   UNL     1     -35.251  25.567   4.282  0.00  0.00    +0.139 C 
BRANCH  33  34
ATOM     34  O   UNL     1     -35.182  26.914   4.469  0.00  0.00    -0.471 OA
ATOM     35  C   UNL     1     -34.757  27.703   3.358  0.00  0.00    +0.252 C 
ENDBRANCH  33  34
ENDBRANCH  27  28
ENDBRANCH  22  27
ENDBRANCH   3  22
TORSDOF 10
ENDMDL
MODEL 6
REMARK VINA RESULT:      -6.4      3.750      8.489
REMARK  Name = 193775
REMARK  10 active torsions:
REMARK  status: ('A' for Active; 'I' for Inactive)
REMARK    1  A    between atoms: N_2  and  C_5
REMARK    2  A    between atoms: C_3  and  C_22
REMARK    3  A    between atoms: C_5  and  C_6
REMARK    4  A    between atoms: C_6  and  O_7
REMARK    5  A    between atoms: C_6  and  C_9
REMARK    6  A    between atoms: C_9  and  N_10
REMARK    7  A    between atoms: C_22  and  N_23
REMARK    8  A    between atoms: C_22  and  C_27
REMARK    9  A    between atoms: C_27  and  C_28
REMARK   10  A    between atoms: C_33  and  O_34
REMARK                            x       y       z     vdW  Elec       q    Type
REMARK                         _______ _______ _______ _____ _____    ______ ____
ROOT
ATOM      1  O   UNL     1     -37.615  25.345   3.731  0.00  0.00    -0.277 OA
ATOM      2  N   UNL     1     -37.941  23.129   3.130  0.00  0.00    -0.304 N 
ATOM      3  C   UNL     1     -37.264  24.166   3.755  0.00  0.00    +0.202 C 
ATOM      4  H   UNL     1     -37.584  22.214   3.204  0.00  0.00    +0.149 HD
ENDROOT
BRANCH   2   5
ATOM      5  C   UNL     1     -39.152  23.348   2.375  0.00  0.00    +0.120 C 
BRANCH   5   6
ATOM      6  C   UNL     1     -39.596  22.112   1.591  0.00  0.00    +0.150 C 
BRANCH   6   7
ATOM      7  O   UNL     1     -39.234  20.938   2.319  0.00  0.00    -0.381 OA
ATOM      8  H   UNL     1     -38.730  20.343   1.742  0.00  0.00    +0.210 HD
ENDBRANCH   6   7
BRANCH   6   9
ATOM      9  C   UNL     1     -38.971  22.045   0.194  0.00  0.00    +0.125 C 
BRANCH   9  10
ATOM     10  N   UNL     1     -38.106  20.877   0.028  0.00  0.00    -0.269 N 
ATOM     11  N   UNL     1     -37.440  18.854  -0.632  0.00  0.00    -0.242 NA
ATOM     12  N   UNL     1     -36.132  21.589   1.250  0.00  0.00    -0.228 NA
ATOM     13  N   UNL     1     -34.688  17.778   0.089  0.00  0.00    -0.289 N 
ATOM     14  N   UNL     1     -34.399  19.870   1.213  0.00  0.00    -0.228 NA
ATOM     15  C   UNL     1     -36.841  20.717   0.519  0.00  0.00    +0.151 C 
ATOM     16  C   UNL     1     -36.446  19.457   0.099  0.00  0.00    +0.140 C 
ATOM     17  C   UNL     1     -38.421  19.731  -0.655  0.00  0.00    +0.221 C 
ATOM     18  C   UNL     1     -35.172  19.041   0.472  0.00  0.00    +0.149 C 
ATOM     19  C   UNL     1     -34.919  21.075   1.551  0.00  0.00    +0.253 C 
ATOM     20  C   UNL     1     -35.509  16.882  -0.706  0.00  0.00    +0.114 C 
ATOM     21  C   UNL     1     -33.353  17.352   0.468  0.00  0.00    +0.114 C 
ENDBRANCH   9  10
ENDBRANCH   6   9
ENDBRANCH   5   6
ENDBRANCH   2   5
BRANCH   3  22
ATOM     22  C   UNL     1     -36.031  23.687   4.513  0.00  0.00    +0.017 C 
BRANCH  22  23
ATOM     23  N   UNL     1     -36.175  22.241   4.685  0.00  0.00    +0.388 N 
ATOM     24  H   UNL     1     -35.520  21.758   4.071  0.00  0.00    -0.089 HD
ATOM     25  H   UNL     1     -37.129  21.964   4.449  0.00  0.00    -0.089 HD
ATOM     26  H   UNL     1     -35.979  21.992   5.655  0.00  0.00    -0.089 HD
ENDBRANCH  22  23
BRANCH  22  27
ATOM     27  C   UNL     1     -34.752  23.994   3.720  0.00  0.00    +0.013 C 
BRANCH  27  28
ATOM     28  C   UNL     1     -34.089  25.281   4.152  0.00  0.00    -0.024 C 
ATOM     29  C   UNL     1     -34.058  25.629   5.502  0.00  0.00    -0.001 C 
ATOM     30  C   UNL     1     -33.508  26.121   3.201  0.00  0.00    -0.001 C 
ATOM     31  C   UNL     1     -33.446  26.818   5.902  0.00  0.00    +0.037 C 
ATOM     32  C   UNL     1     -32.897  27.308   3.600  0.00  0.00    +0.037 C 
ATOM     33  C   UNL     1     -32.866  27.657   4.951  0.00  0.00    +0.139 C 
BRANCH  33  34
ATOM     34  O   UNL     1     -32.270  28.817   5.340  0.00  0.00    -0.471 OA
ATOM     35  C   UNL     1     -31.791  28.882   6.684  0.00  0.00    +0.252 C 
ENDBRANCH  33  34
ENDBRANCH  27  28
ENDBRANCH  22  27
ENDBRANCH   3  22
TORSDOF 10
ENDMDL
MODEL 7
REMARK VINA RESULT:      -6.3      3.555      9.470
REMARK  Name = 193775
REMARK  10 active torsions:
REMARK  status: ('A' for Active; 'I' for Inactive)
REMARK    1  A    between atoms: N_2  and  C_5
REMARK    2  A    between atoms: C_3  and  C_22
REMARK    3  A    between atoms: C_5  and  C_6
REMARK    4  A    between atoms: C_6  and  O_7
REMARK    5  A    between atoms: C_6  and  C_9
REMARK    6  A    between atoms: C_9  and  N_10
REMARK    7  A    between atoms: C_22  and  N_23
REMARK    8  A    between atoms: C_22  and  C_27
REMARK    9  A    between atoms: C_27  and  C_28
REMARK   10  A    between atoms: C_33  and  O_34
REMARK                            x       y       z     vdW  Elec       q    Type
REMARK                         _______ _______ _______ _____ _____    ______ ____
ROOT
ATOM      1  O   UNL     1     -39.497  22.669   2.274  0.00  0.00    -0.277 OA
ATOM      2  N   UNL     1     -37.323  22.275   1.568  0.00  0.00    -0.304 N 
ATOM      3  C   UNL     1     -38.305  22.972   2.257  0.00  0.00    +0.202 C 
ATOM      4  H   UNL     1     -36.393  22.594   1.612  0.00  0.00    +0.149 HD
ENDROOT
BRANCH   2   5
ATOM      5  C   UNL     1     -37.622  21.098   0.789  0.00  0.00    +0.120 C 
BRANCH   5   6
ATOM      6  C   UNL     1     -36.782  19.886   1.196  0.00  0.00    +0.150 C 
BRANCH   6   7
ATOM      7  O   UNL     1     -36.763  19.784   2.620  0.00  0.00    -0.381 OA
ATOM      8  H   UNL     1     -35.874  19.995   2.946  0.00  0.00    +0.210 HD
ENDBRANCH   6   7
BRANCH   6   9
ATOM      9  C   UNL     1     -35.342  19.968   0.681  0.00  0.00    +0.125 C 
BRANCH   9  10
ATOM     10  N   UNL     1     -34.838  18.671   0.231  0.00  0.00    -0.269 N 
ATOM     11  N   UNL     1     -34.811  16.679  -0.771  0.00  0.00    -0.242 NA
ATOM     12  N   UNL     1     -32.600  18.694   1.173  0.00  0.00    -0.228 NA
ATOM     13  N   UNL     1     -32.357  14.885  -0.666  0.00  0.00    -0.289 N 
ATOM     14  N   UNL     1     -31.390  16.644   0.634  0.00  0.00    -0.228 NA
ATOM     15  C   UNL     1     -33.602  18.142   0.475  0.00  0.00    +0.151 C 
ATOM     16  C   UNL     1     -33.606  16.907  -0.154  0.00  0.00    +0.140 C 
ATOM     17  C   UNL     1     -35.527  17.755  -0.520  0.00  0.00    +0.221 C 
ATOM     18  C   UNL     1     -32.444  16.149  -0.057  0.00  0.00    +0.149 C 
ATOM     19  C   UNL     1     -31.530  17.868   1.198  0.00  0.00    +0.253 C 
ATOM     20  C   UNL     1     -33.482  14.346  -1.409  0.00  0.00    +0.114 C 
ATOM     21  C   UNL     1     -31.138  14.102  -0.574  0.00  0.00    +0.114 C 
ENDBRANCH   9  10
ENDBRANCH   6   9
ENDBRANCH   5   6
ENDBRANCH   2   5
BRANCH   3  22
ATOM     22  C   UNL     1     -37.745  24.163   3.028  0.00  0.00    +0.017 C 
BRANCH  22  23
ATOM     23  N   UNL     1     -38.854  24.725   3.800  0.00  0.00    +0.388 N 
ATOM     24  H   UNL     1     -38.900  24.270   4.712  0.00  0.00    -0.089 HD
ATOM     25  H   UNL     1     -39.730  24.571   3.299  0.00  0.00    -0.089 HD
ATOM     26  H   UNL     1     -38.707  25.727   3.927  0.00  0.00    -0.089 HD
ENDBRANCH  22  23
BRANCH  22  27
ATOM     27  C   UNL     1     -36.621  23.717   3.976  0.00  0.00    +0.013 C 
BRANCH  27  28
ATOM     28  C   UNL     1     -35.649  24.828   4.295  0.00  0.00    -0.024 C 
ATOM     29  C   UNL     1     -35.261  25.722   3.296  0.00  0.00    -0.001 C 
ATOM     30  C   UNL     1     -35.137  24.960   5.586  0.00  0.00    -0.001 C 
ATOM     31  C   UNL     1     -34.362  26.748   3.590  0.00  0.00    +0.037 C 
ATOM     32  C   UNL     1     -34.239  25.985   5.879  0.00  0.00    +0.037 C 
ATOM     33  C   UNL     1     -33.851  26.879   4.881  0.00  0.00    +0.139 C 
BRANCH  33  34
ATOM     34  O   UNL     1     -32.974  27.879   5.167  0.00  0.00    -0.471 OA
ATOM     35  C   UNL     1     -32.228  27.762   6.379  0.00  0.00    +0.252 C 
ENDBRANCH  33  34
ENDBRANCH  27  28
ENDBRANCH  22  27
ENDBRANCH   3  22
TORSDOF 10
ENDMDL
MODEL 8
REMARK VINA RESULT:      -6.3      2.386      4.117
REMARK  Name = 193775
REMARK  10 active torsions:
REMARK  status: ('A' for Active; 'I' for Inactive)
REMARK    1  A    between atoms: N_2  and  C_5
REMARK    2  A    between atoms: C_3  and  C_22
REMARK    3  A    between atoms: C_5  and  C_6
REMARK    4  A    between atoms: C_6  and  O_7
REMARK    5  A    between atoms: C_6  and  C_9
REMARK    6  A    between atoms: C_9  and  N_10
REMARK    7  A    between atoms: C_22  and  N_23
REMARK    8  A    between atoms: C_22  and  C_27
REMARK    9  A    between atoms: C_27  and  C_28
REMARK   10  A    between atoms: C_33  and  O_34
REMARK                            x       y       z     vdW  Elec       q    Type
REMARK                         _______ _______ _______ _____ _____    ______ ____
ROOT
ATOM      1  O   UNL     1     -35.463  22.593   1.234  0.00  0.00    -0.277 OA
ATOM      2  N   UNL     1     -35.136  22.310   3.512  0.00  0.00    -0.304 N 
ATOM      3  C   UNL     1     -35.410  21.868   2.227  0.00  0.00    +0.202 C 
ATOM      4  H   UNL     1     -35.115  21.656   4.247  0.00  0.00    +0.149 HD
ENDROOT
BRANCH   2   5
ATOM      5  C   UNL     1     -34.882  23.700   3.808  0.00  0.00    +0.120 C 
BRANCH   5   6
ATOM      6  C   UNL     1     -35.299  24.094   5.226  0.00  0.00    +0.150 C 
BRANCH   6   7
ATOM      7  O   UNL     1     -36.260  23.155   5.710  0.00  0.00    -0.381 OA
ATOM      8  H   UNL     1     -36.537  22.574   4.984  0.00  0.00    +0.210 HD
ENDBRANCH   6   7
BRANCH   6   9
ATOM      9  C   UNL     1     -35.898  25.502   5.294  0.00  0.00    +0.125 C 
BRANCH   9  10
ATOM     10  N   UNL     1     -36.422  25.945   4.002  0.00  0.00    -0.269 N 
ATOM     11  N   UNL     1     -36.545  27.057   2.073  0.00  0.00    -0.242 NA
ATOM     12  N   UNL     1     -38.467  24.641   3.863  0.00  0.00    -0.228 NA
ATOM     13  N   UNL     1     -38.874  26.656   0.158  0.00  0.00    -0.289 N 
ATOM     14  N   UNL     1     -39.673  25.103   1.793  0.00  0.00    -0.228 NA
ATOM     15  C   UNL     1     -37.577  25.532   3.401  0.00  0.00    +0.151 C 
ATOM     16  C   UNL     1     -37.635  26.232   2.207  0.00  0.00    +0.140 C 
ATOM     17  C   UNL     1     -35.839  26.861   3.167  0.00  0.00    +0.221 C 
ATOM     18  C   UNL     1     -38.734  25.991   1.389  0.00  0.00    +0.149 C 
ATOM     19  C   UNL     1     -39.485  24.492   2.987  0.00  0.00    +0.253 C 
ATOM     20  C   UNL     1     -37.871  27.609  -0.284  0.00  0.00    +0.114 C 
ATOM     21  C   UNL     1     -40.015  26.392  -0.700  0.00  0.00    +0.114 C 
ENDBRANCH   9  10
ENDBRANCH   6   9
ENDBRANCH   5   6
ENDBRANCH   2   5
BRANCH   3  22
ATOM     22  C   UNL     1     -35.617  20.359   2.158  0.00  0.00    +0.017 C 
BRANCH  22  23
ATOM     23  N   UNL     1     -37.040  20.117   2.393  0.00  0.00    +0.388 N 
ATOM     24  H   UNL     1     -37.592  20.818   1.899  0.00  0.00    -0.089 HD
ATOM     25  H   UNL     1     -37.235  20.174   3.394  0.00  0.00    -0.089 HD
ATOM     26  H   UNL     1     -37.288  19.187   2.053  0.00  0.00    -0.089 HD
ENDBRANCH  22  23
BRANCH  22  27
ATOM     27  C   UNL     1     -35.215  19.816   0.778  0.00  0.00    +0.013 C 
BRANCH  27  28
ATOM     28  C   UNL     1     -33.740  19.508   0.676  0.00  0.00    -0.024 C 
ATOM     29  C   UNL     1     -33.228  18.353   1.266  0.00  0.00    -0.001 C 
ATOM     30  C   UNL     1     -32.890  20.378  -0.008  0.00  0.00    -0.001 C 
ATOM     31  C   UNL     1     -31.865  18.067   1.172  0.00  0.00    +0.037 C 
ATOM     32  C   UNL     1     -31.529  20.093  -0.102  0.00  0.00    +0.037 C 
ATOM     33  C   UNL     1     -31.016  18.938   0.489  0.00  0.00    +0.139 C 
BRANCH  33  34
ATOM     34  O   UNL     1     -29.687  18.660   0.398  0.00  0.00    -0.471 OA
ATOM     35  C   UNL     1     -29.211  17.519   1.113  0.00  0.00    +0.252 C 
ENDBRANCH  33  34
ENDBRANCH  27  28
ENDBRANCH  22  27
ENDBRANCH   3  22
TORSDOF 10
ENDMDL
MODEL 9
REMARK VINA RESULT:      -6.3      2.057      3.162
REMARK  Name = 193775
REMARK  10 active torsions:
REMARK  status: ('A' for Active; 'I' for Inactive)
REMARK    1  A    between atoms: N_2  and  C_5
REMARK    2  A    between atoms: C_3  and  C_22
REMARK    3  A    between atoms: C_5  and  C_6
REMARK    4  A    between atoms: C_6  and  O_7
REMARK    5  A    between atoms: C_6  and  C_9
REMARK    6  A    between atoms: C_9  and  N_10
REMARK    7  A    between atoms: C_22  and  N_23
REMARK    8  A    between atoms: C_22  and  C_27
REMARK    9  A    between atoms: C_27  and  C_28
REMARK   10  A    between atoms: C_33  and  O_34
REMARK                            x       y       z     vdW  Elec       q    Type
REMARK                         _______ _______ _______ _____ _____    ______ ____
ROOT
ATOM      1  O   UNL     1     -39.527  24.080   2.005  0.00  0.00    -0.277 OA
ATOM      2  N   UNL     1     -37.666  23.703   3.337  0.00  0.00    -0.304 N 
ATOM      3  C   UNL     1     -38.691  23.316   2.486  0.00  0.00    +0.202 C 
ATOM      4  H   UNL     1     -37.043  23.020   3.674  0.00  0.00    +0.149 HD
ENDROOT
BRANCH   2   5
ATOM      5  C   UNL     1     -37.484  25.076   3.744  0.00  0.00    +0.120 C 
BRANCH   5   6
ATOM      6  C   UNL     1     -36.460  25.233   4.869  0.00  0.00    +0.150 C 
BRANCH   6   7
ATOM      7  O   UNL     1     -36.464  26.586   5.323  0.00  0.00    -0.381 OA
ATOM      8  H   UNL     1     -37.082  26.676   6.065  0.00  0.00    +0.210 HD
ENDBRANCH   6   7
BRANCH   6   9
ATOM      9  C   UNL     1     -35.041  24.857   4.431  0.00  0.00    +0.125 C 
BRANCH   9  10
ATOM     10  N   UNL     1     -34.239  26.029   4.082  0.00  0.00    -0.269 N 
ATOM     11  N   UNL     1     -33.316  27.625   2.827  0.00  0.00    -0.242 NA
ATOM     12  N   UNL     1     -33.322  26.621   6.252  0.00  0.00    -0.228 NA
ATOM     13  N   UNL     1     -31.481  29.728   4.035  0.00  0.00    -0.289 N 
ATOM     14  N   UNL     1     -31.883  28.586   6.099  0.00  0.00    -0.228 NA
ATOM     15  C   UNL     1     -33.485  26.788   4.931  0.00  0.00    +0.151 C 
ATOM     16  C   UNL     1     -32.922  27.772   4.134  0.00  0.00    +0.140 C 
ATOM     17  C   UNL     1     -34.105  26.570   2.831  0.00  0.00    +0.221 C 
ATOM     18  C   UNL     1     -32.093  28.695   4.765  0.00  0.00    +0.149 C 
ATOM     19  C   UNL     1     -32.501  27.572   6.750  0.00  0.00    +0.253 C 
ATOM     20  C   UNL     1     -31.701  29.852   2.605  0.00  0.00    +0.114 C 
ATOM     21  C   UNL     1     -30.628  30.697   4.699  0.00  0.00    +0.114 C 
ENDBRANCH   9  10
ENDBRANCH   6   9
ENDBRANCH   5   6
ENDBRANCH   2   5
BRANCH   3  22
ATOM     22  C   UNL     1     -38.664  21.823   2.178  0.00  0.00    +0.017 C 
BRANCH  22  23
ATOM     23  N   UNL     1     -40.057  21.385   2.089  0.00  0.00    +0.388 N 
ATOM     24  H   UNL     1     -40.092  20.366   2.049  0.00  0.00    -0.089 HD
ATOM     25  H   UNL     1     -40.482  21.773   1.246  0.00  0.00    -0.089 HD
ATOM     26  H   UNL     1     -40.569  21.711   2.908  0.00  0.00    -0.089 HD
ENDBRANCH  22  23
BRANCH  22  27
ATOM     27  C   UNL     1     -37.945  21.555   0.848  0.00  0.00    +0.013 C 
BRANCH  27  28
ATOM     28  C   UNL     1     -36.641  20.812   1.025  0.00  0.00    -0.024 C 
ATOM     29  C   UNL     1     -36.136  20.035  -0.017  0.00  0.00    -0.001 C 
ATOM     30  C   UNL     1     -35.944  20.902   2.230  0.00  0.00    -0.001 C 
ATOM     31  C   UNL     1     -34.932  19.348   0.145  0.00  0.00    +0.037 C 
ATOM     32  C   UNL     1     -34.741  20.217   2.392  0.00  0.00    +0.037 C 
ATOM     33  C   UNL     1     -34.235  19.439   1.350  0.00  0.00    +0.139 C 
BRANCH  33  34
ATOM     34  O   UNL     1     -33.061  18.769   1.509  0.00  0.00    -0.471 OA
ATOM     35  C   UNL     1     -31.994  19.108   0.624  0.00  0.00    +0.252 C 
ENDBRANCH  33  34
ENDBRANCH  27  28
ENDBRANCH  22  27
ENDBRANCH   3  22
TORSDOF 10
ENDMDL
