MODEL 1
REMARK VINA RESULT:      -5.6      0.000      0.000
REMARK  Name = 50906608
REMARK  7 active torsions:
REMARK  status: ('A' for Active; 'I' for Inactive)
REMARK    1  A    between atoms: C_2  and  N_9
REMARK    2  A    between atoms: C_3  and  O_20
REMARK    3  A    between atoms: C_5  and  O_18
REMARK    4  A    between atoms: C_6  and  O_22
REMARK    5  A    between atoms: C_10  and  C_12
REMARK    6  A    between atoms: C_12  and  C_13
REMARK    7  A    between atoms: C_13  and  O_16
REMARK                            x       y       z     vdW  Elec       q    Type
REMARK                         _______ _______ _______ _____ _____    ______ ____
ROOT
ATOM      1  O   UNL     1     -38.303  21.072   1.872  0.00  0.00    -0.330 OA
ATOM      2  C   UNL     1     -37.286  22.886   3.134  0.00  0.00    +0.128 C 
ATOM      3  C   UNL     1     -38.449  23.803   2.739  0.00  0.00    +0.163 C 
ATOM      4  C   UNL     1     -37.080  21.785   2.081  0.00  0.00    +0.138 C 
ATOM      5  C   UNL     1     -39.688  22.999   2.346  0.00  0.00    +0.199 C 
ATOM      6  C   UNL     1     -39.340  21.897   1.349  0.00  0.00    +0.263 C 
ATOM      7  C   UNL     1     -36.039  20.759   2.520  0.00  0.00    +0.034 C 
ENDROOT
BRANCH   2   9
ATOM      8  O   UNL     1     -35.912  23.443   5.624  0.00  0.00    -0.275 OA
ATOM      9  N   UNL     1     -36.081  23.664   3.317  0.00  0.00    -0.301 N 
ATOM     10  C   UNL     1     -35.496  23.876   4.552  0.00  0.00    +0.225 C 
ATOM     11  H   UNL     1     -35.656  24.062   2.523  0.00  0.00    +0.150 HD
BRANCH  10  12
ATOM     12  C   UNL     1     -34.243  24.732   4.476  0.00  0.00    +0.112 C 
BRANCH  12  13
ATOM     13  C   UNL     1     -34.454  26.184   4.943  0.00  0.00    +0.097 C 
ATOM     14  C   UNL     1     -34.023  27.150   3.835  0.00  0.00    +0.030 C 
ATOM     15  C   UNL     1     -33.686  26.500   6.228  0.00  0.00    +0.030 C 
BRANCH  13  16
ATOM     16  O   UNL     1     -35.840  26.413   5.199  0.00  0.00    -0.386 OA
ATOM     17  H   UNL     1     -36.138  27.187   4.695  0.00  0.00    +0.210 HD
ENDBRANCH  13  16
ENDBRANCH  12  13
ENDBRANCH  10  12
ENDBRANCH   2   9
BRANCH   5  18
ATOM     18  O   UNL     1     -40.634  23.891   1.759  0.00  0.00    -0.346 OA
ATOM     19  C   UNL     1     -40.082  24.561   0.637  0.00  0.00    +0.174 C 
ENDBRANCH   5  18
BRANCH   3  20
ATOM     20  O   UNL     1     -38.775  24.634   3.857  0.00  0.00    -0.380 OA
ATOM     21  H   UNL     1     -38.353  24.281   4.656  0.00  0.00    +0.211 HD
ENDBRANCH   3  20
BRANCH   6  22
ATOM     22  O   UNL     1     -40.515  21.118   1.130  0.00  0.00    -0.358 OA
ATOM     23  H   UNL     1     -41.271  21.546   1.561  0.00  0.00    +0.213 HD
ENDBRANCH   6  22
TORSDOF 7
ENDMDL
MODEL 2
REMARK VINA RESULT:      -5.3      2.843      5.040
REMARK  Name = 50906608
REMARK  7 active torsions:
REMARK  status: ('A' for Active; 'I' for Inactive)
REMARK    1  A    between atoms: C_2  and  N_9
REMARK    2  A    between atoms: C_3  and  O_20
REMARK    3  A    between atoms: C_5  and  O_18
REMARK    4  A    between atoms: C_6  and  O_22
REMARK    5  A    between atoms: C_10  and  C_12
REMARK    6  A    between atoms: C_12  and  C_13
REMARK    7  A    between atoms: C_13  and  O_16
REMARK                            x       y       z     vdW  Elec       q    Type
REMARK                         _______ _______ _______ _____ _____    ______ ____
ROOT
ATOM      1  O   UNL     1     -36.781  25.469   2.823  0.00  0.00    -0.330 OA
ATOM      2  C   UNL     1     -34.677  26.215   3.791  0.00  0.00    +0.128 C 
ATOM      3  C   UNL     1     -34.815  25.155   4.890  0.00  0.00    +0.163 C 
ATOM      4  C   UNL     1     -36.058  26.625   3.255  0.00  0.00    +0.138 C 
ATOM      5  C   UNL     1     -35.742  24.019   4.458  0.00  0.00    +0.199 C 
ATOM      6  C   UNL     1     -37.050  24.558   3.884  0.00  0.00    +0.263 C 
ATOM      7  C   UNL     1     -35.952  27.557   2.051  0.00  0.00    +0.034 C 
ENDROOT
BRANCH   2   9
ATOM      8  O   UNL     1     -31.852  26.784   3.478  0.00  0.00    -0.275 OA
ATOM      9  N   UNL     1     -33.951  27.360   4.295  0.00  0.00    -0.301 N 
ATOM     10  C   UNL     1     -32.595  27.546   4.093  0.00  0.00    +0.225 C 
ATOM     11  H   UNL     1     -34.446  28.040   4.805  0.00  0.00    +0.150 HD
BRANCH  10  12
ATOM     12  C   UNL     1     -32.071  28.823   4.729  0.00  0.00    +0.112 C 
BRANCH  12  13
ATOM     13  C   UNL     1     -31.315  28.594   6.050  0.00  0.00    +0.097 C 
ATOM     14  C   UNL     1     -31.681  29.694   7.052  0.00  0.00    +0.030 C 
ATOM     15  C   UNL     1     -29.798  28.560   5.855  0.00  0.00    +0.030 C 
BRANCH  13  16
ATOM     16  O   UNL     1     -31.706  27.344   6.621  0.00  0.00    -0.386 OA
ATOM     17  H   UNL     1     -31.288  27.241   7.491  0.00  0.00    +0.210 HD
ENDBRANCH  13  16
ENDBRANCH  12  13
ENDBRANCH  10  12
ENDBRANCH   2   9
BRANCH   5  18
ATOM     18  O   UNL     1     -36.021  23.210   5.601  0.00  0.00    -0.346 OA
ATOM     19  C   UNL     1     -35.395  21.942   5.500  0.00  0.00    +0.174 C 
ENDBRANCH   5  18
BRANCH   3  20
ATOM     20  O   UNL     1     -33.521  24.613   5.166  0.00  0.00    -0.380 OA
ATOM     21  H   UNL     1     -32.994  25.266   5.653  0.00  0.00    +0.211 HD
ENDBRANCH   3  20
BRANCH   6  22
ATOM     22  O   UNL     1     -37.802  23.450   3.394  0.00  0.00    -0.358 OA
ATOM     23  H   UNL     1     -38.708  23.736   3.196  0.00  0.00    +0.213 HD
ENDBRANCH   6  22
TORSDOF 7
ENDMDL
MODEL 3
REMARK VINA RESULT:      -5.1      2.614      4.824
REMARK  Name = 50906608
REMARK  7 active torsions:
REMARK  status: ('A' for Active; 'I' for Inactive)
REMARK    1  A    between atoms: C_2  and  N_9
REMARK    2  A    between atoms: C_3  and  O_20
REMARK    3  A    between atoms: C_5  and  O_18
REMARK    4  A    between atoms: C_6  and  O_22
REMARK    5  A    between atoms: C_10  and  C_12
REMARK    6  A    between atoms: C_12  and  C_13
REMARK    7  A    between atoms: C_13  and  O_16
REMARK                            x       y       z     vdW  Elec       q    Type
REMARK                         _______ _______ _______ _____ _____    ______ ____
ROOT
ATOM      1  O   UNL     1     -34.960  24.315   5.825  0.00  0.00    -0.330 OA
ATOM      2  C   UNL     1     -35.746  26.366   4.778  0.00  0.00    +0.128 C 
ATOM      3  C   UNL     1     -36.661  25.540   3.865  0.00  0.00    +0.163 C 
ATOM      4  C   UNL     1     -34.529  25.538   5.220  0.00  0.00    +0.138 C 
ATOM      5  C   UNL     1     -36.954  24.165   4.462  0.00  0.00    +0.199 C 
ATOM      6  C   UNL     1     -35.672  23.474   4.922  0.00  0.00    +0.263 C 
ATOM      7  C   UNL     1     -33.683  26.270   6.257  0.00  0.00    +0.034 C 
ENDROOT
BRANCH   2   9
ATOM      8  O   UNL     1     -34.395  26.588   2.224  0.00  0.00    -0.275 OA
ATOM      9  N   UNL     1     -35.336  27.578   4.104  0.00  0.00    -0.301 N 
ATOM     10  C   UNL     1     -34.694  27.584   2.879  0.00  0.00    +0.225 C 
ATOM     11  H   UNL     1     -35.525  28.441   4.538  0.00  0.00    +0.150 HD
BRANCH  10  12
ATOM     12  C   UNL     1     -34.364  28.984   2.389  0.00  0.00    +0.112 C 
BRANCH  12  13
ATOM     13  C   UNL     1     -35.538  29.687   1.684  0.00  0.00    +0.097 C 
ATOM     14  C   UNL     1     -35.173  29.956   0.220  0.00  0.00    +0.030 C 
ATOM     15  C   UNL     1     -35.925  31.000   2.367  0.00  0.00    +0.030 C 
BRANCH  13  16
ATOM     16  O   UNL     1     -36.686  28.838   1.693  0.00  0.00    -0.386 OA
ATOM     17  H   UNL     1     -36.523  28.069   1.123  0.00  0.00    +0.210 HD
ENDBRANCH  13  16
ENDBRANCH  12  13
ENDBRANCH  10  12
ENDBRANCH   2   9
BRANCH   5  18
ATOM     18  O   UNL     1     -37.591  23.369   3.463  0.00  0.00    -0.346 OA
ATOM     19  C   UNL     1     -36.772  23.234   2.313  0.00  0.00    +0.174 C 
ENDBRANCH   5  18
BRANCH   3  20
ATOM     20  O   UNL     1     -37.894  26.243   3.698  0.00  0.00    -0.380 OA
ATOM     21  H   UNL     1     -37.925  26.993   4.313  0.00  0.00    +0.211 HD
ENDBRANCH   3  20
BRANCH   6  22
ATOM     22  O   UNL     1     -36.039  22.261   5.576  0.00  0.00    -0.358 OA
ATOM     23  H   UNL     1     -35.344  21.598   5.441  0.00  0.00    +0.213 HD
ENDBRANCH   6  22
TORSDOF 7
ENDMDL
MODEL 4
REMARK VINA RESULT:      -5.1      2.625      3.517
REMARK  Name = 50906608
REMARK  7 active torsions:
REMARK  status: ('A' for Active; 'I' for Inactive)
REMARK    1  A    between atoms: C_2  and  N_9
REMARK    2  A    between atoms: C_3  and  O_20
REMARK    3  A    between atoms: C_5  and  O_18
REMARK    4  A    between atoms: C_6  and  O_22
REMARK    5  A    between atoms: C_10  and  C_12
REMARK    6  A    between atoms: C_12  and  C_13
REMARK    7  A    between atoms: C_13  and  O_16
REMARK                            x       y       z     vdW  Elec       q    Type
REMARK                         _______ _______ _______ _____ _____    ______ ____
ROOT
ATOM      1  O   UNL     1     -35.925  21.140   4.393  0.00  0.00    -0.330 OA
ATOM      2  C   UNL     1     -35.382  23.503   4.197  0.00  0.00    +0.128 C 
ATOM      3  C   UNL     1     -35.382  23.369   2.669  0.00  0.00    +0.163 C 
ATOM      4  C   UNL     1     -35.038  22.160   4.861  0.00  0.00    +0.138 C 
ATOM      5  C   UNL     1     -36.194  22.157   2.215  0.00  0.00    +0.199 C 
ATOM      6  C   UNL     1     -35.805  20.903   2.994  0.00  0.00    +0.263 C 
ATOM      7  C   UNL     1     -35.187  22.216   6.378  0.00  0.00    +0.034 C 
ENDROOT
BRANCH   2   9
ATOM      8  O   UNL     1     -35.997  25.949   5.624  0.00  0.00    -0.275 OA
ATOM      9  N   UNL     1     -34.457  24.538   4.603  0.00  0.00    -0.301 N 
ATOM     10  C   UNL     1     -34.847  25.677   5.286  0.00  0.00    +0.225 C 
ATOM     11  H   UNL     1     -33.504  24.427   4.385  0.00  0.00    +0.150 HD
BRANCH  10  12
ATOM     12  C   UNL     1     -33.688  26.611   5.591  0.00  0.00    +0.112 C 
BRANCH  12  13
ATOM     13  C   UNL     1     -33.083  27.279   4.342  0.00  0.00    +0.097 C 
ATOM     14  C   UNL     1     -32.094  28.369   4.767  0.00  0.00    +0.030 C 
ATOM     15  C   UNL     1     -34.152  27.881   3.428  0.00  0.00    +0.030 C 
BRANCH  13  16
ATOM     16  O   UNL     1     -32.357  26.312   3.581  0.00  0.00    -0.386 OA
ATOM     17  H   UNL     1     -31.769  25.813   4.170  0.00  0.00    +0.210 HD
ENDBRANCH  13  16
ENDBRANCH  12  13
ENDBRANCH  10  12
ENDBRANCH   2   9
BRANCH   5  18
ATOM     18  O   UNL     1     -35.947  21.949   0.824  0.00  0.00    -0.346 OA
ATOM     19  C   UNL     1     -34.570  21.724   0.574  0.00  0.00    +0.174 C 
ENDBRANCH   5  18
BRANCH   3  20
ATOM     20  O   UNL     1     -35.960  24.549   2.107  0.00  0.00    -0.380 OA
ATOM     21  H   UNL     1     -36.866  24.654   2.438  0.00  0.00    +0.211 HD
ENDBRANCH   3  20
BRANCH   6  22
ATOM     22  O   UNL     1     -36.687  19.853   2.602  0.00  0.00    -0.358 OA
ATOM     23  H   UNL     1     -36.169  19.094   2.293  0.00  0.00    +0.213 HD
ENDBRANCH   6  22
TORSDOF 7
ENDMDL
MODEL 5
REMARK VINA RESULT:      -4.9      1.255      1.637
REMARK  Name = 50906608
REMARK  7 active torsions:
REMARK  status: ('A' for Active; 'I' for Inactive)
REMARK    1  A    between atoms: C_2  and  N_9
REMARK    2  A    between atoms: C_3  and  O_20
REMARK    3  A    between atoms: C_5  and  O_18
REMARK    4  A    between atoms: C_6  and  O_22
REMARK    5  A    between atoms: C_10  and  C_12
REMARK    6  A    between atoms: C_12  and  C_13
REMARK    7  A    between atoms: C_13  and  O_16
REMARK                            x       y       z     vdW  Elec       q    Type
REMARK                         _______ _______ _______ _____ _____    ______ ____
ROOT
ATOM      1  O   UNL     1     -39.483  22.858   1.549  0.00  0.00    -0.330 OA
ATOM      2  C   UNL     1     -37.974  24.247   2.858  0.00  0.00    +0.128 C 
ATOM      3  C   UNL     1     -38.792  25.486   2.472  0.00  0.00    +0.163 C 
ATOM      4  C   UNL     1     -38.103  23.155   1.784  0.00  0.00    +0.138 C 
ATOM      5  C   UNL     1     -40.212  25.110   2.052  0.00  0.00    +0.199 C 
ATOM      6  C   UNL     1     -40.207  23.971   1.034  0.00  0.00    +0.263 C 
ATOM      7  C   UNL     1     -37.436  21.851   2.210  0.00  0.00    +0.034 C 
ENDROOT
BRANCH   2   9
ATOM      8  O   UNL     1     -36.405  23.885   5.267  0.00  0.00    -0.275 OA
ATOM      9  N   UNL     1     -36.591  24.613   3.067  0.00  0.00    -0.301 N 
ATOM     10  C   UNL     1     -35.923  24.398   4.259  0.00  0.00    +0.225 C 
ATOM     11  H   UNL     1     -36.100  25.033   2.325  0.00  0.00    +0.150 HD
BRANCH  10  12
ATOM     12  C   UNL     1     -34.481  24.876   4.226  0.00  0.00    +0.112 C 
BRANCH  12  13
ATOM     13  C   UNL     1     -34.292  26.316   4.739  0.00  0.00    +0.097 C 
ATOM     14  C   UNL     1     -33.380  27.089   3.781  0.00  0.00    +0.030 C 
ATOM     15  C   UNL     1     -33.709  26.359   6.152  0.00  0.00    +0.030 C 
BRANCH  13  16
ATOM     16  O   UNL     1     -35.553  26.987   4.769  0.00  0.00    -0.386 OA
ATOM     17  H   UNL     1     -36.249  26.356   5.011  0.00  0.00    +0.210 HD
ENDBRANCH  13  16
ENDBRANCH  12  13
ENDBRANCH  10  12
ENDBRANCH   2   9
BRANCH   5  18
ATOM     18  O   UNL     1     -40.828  26.261   1.475  0.00  0.00    -0.346 OA
ATOM     19  C   UNL     1     -40.085  26.741   0.366  0.00  0.00    +0.174 C 
ENDBRANCH   5  18
BRANCH   3  20
ATOM     20  O   UNL     1     -38.862  26.357   3.604  0.00  0.00    -0.380 OA
ATOM     21  H   UNL     1     -39.277  25.890   4.346  0.00  0.00    +0.211 HD
ENDBRANCH   3  20
BRANCH   6  22
ATOM     22  O   UNL     1     -41.561  23.598   0.789  0.00  0.00    -0.358 OA
ATOM     23  H   UNL     1     -42.155  24.238   1.210  0.00  0.00    +0.213 HD
ENDBRANCH   6  22
TORSDOF 7
ENDMDL
MODEL 6
REMARK VINA RESULT:      -4.9      2.699      4.498
REMARK  Name = 50906608
REMARK  7 active torsions:
REMARK  status: ('A' for Active; 'I' for Inactive)
REMARK    1  A    between atoms: C_2  and  N_9
REMARK    2  A    between atoms: C_3  and  O_20
REMARK    3  A    between atoms: C_5  and  O_18
REMARK    4  A    between atoms: C_6  and  O_22
REMARK    5  A    between atoms: C_10  and  C_12
REMARK    6  A    between atoms: C_12  and  C_13
REMARK    7  A    between atoms: C_13  and  O_16
REMARK                            x       y       z     vdW  Elec       q    Type
REMARK                         _______ _______ _______ _____ _____    ______ ____
ROOT
ATOM      1  O   UNL     1     -35.892  23.391   5.457  0.00  0.00    -0.330 OA
ATOM      2  C   UNL     1     -36.198  24.612   3.374  0.00  0.00    +0.128 C 
ATOM      3  C   UNL     1     -35.799  23.357   2.589  0.00  0.00    +0.163 C 
ATOM      4  C   UNL     1     -35.560  24.603   4.772  0.00  0.00    +0.138 C 
ATOM      5  C   UNL     1     -35.998  22.090   3.419  0.00  0.00    +0.199 C 
ATOM      6  C   UNL     1     -35.378  22.232   4.807  0.00  0.00    +0.263 C 
ATOM      7  C   UNL     1     -36.063  25.753   5.640  0.00  0.00    +0.034 C 
ENDROOT
BRANCH   2   9
ATOM      8  O   UNL     1     -37.952  26.696   2.386  0.00  0.00    -0.275 OA
ATOM      9  N   UNL     1     -35.823  25.798   2.637  0.00  0.00    -0.301 N 
ATOM     10  C   UNL     1     -36.737  26.742   2.205  0.00  0.00    +0.225 C 
ATOM     11  H   UNL     1     -34.871  25.941   2.433  0.00  0.00    +0.150 HD
BRANCH  10  12
ATOM     12  C   UNL     1     -36.091  27.890   1.448  0.00  0.00    +0.112 C 
BRANCH  12  13
ATOM     13  C   UNL     1     -35.146  28.748   2.308  0.00  0.00    +0.097 C 
ATOM     14  C   UNL     1     -35.558  30.221   2.215  0.00  0.00    +0.030 C 
ATOM     15  C   UNL     1     -33.682  28.596   1.893  0.00  0.00    +0.030 C 
BRANCH  13  16
ATOM     16  O   UNL     1     -35.251  28.357   3.678  0.00  0.00    -0.386 OA
ATOM     17  H   UNL     1     -36.139  28.570   4.007  0.00  0.00    +0.210 HD
ENDBRANCH  13  16
ENDBRANCH  12  13
ENDBRANCH  10  12
ENDBRANCH   2   9
BRANCH   5  18
ATOM     18  O   UNL     1     -35.381  21.002   2.732  0.00  0.00    -0.346 OA
ATOM     19  C   UNL     1     -36.345  20.190   2.081  0.00  0.00    +0.174 C 
ENDBRANCH   5  18
BRANCH   3  20
ATOM     20  O   UNL     1     -36.615  23.273   1.417  0.00  0.00    -0.380 OA
ATOM     21  H   UNL     1     -36.896  24.163   1.154  0.00  0.00    +0.211 HD
ENDBRANCH   3  20
BRANCH   6  22
ATOM     22  O   UNL     1     -35.712  21.067   5.558  0.00  0.00    -0.358 OA
ATOM     23  H   UNL     1     -34.967  20.446   5.541  0.00  0.00    +0.213 HD
ENDBRANCH   6  22
TORSDOF 7
ENDMDL
MODEL 7
REMARK VINA RESULT:      -4.9      2.469      4.645
REMARK  Name = 50906608
REMARK  7 active torsions:
REMARK  status: ('A' for Active; 'I' for Inactive)
REMARK    1  A    between atoms: C_2  and  N_9
REMARK    2  A    between atoms: C_3  and  O_20
REMARK    3  A    between atoms: C_5  and  O_18
REMARK    4  A    between atoms: C_6  and  O_22
REMARK    5  A    between atoms: C_10  and  C_12
REMARK    6  A    between atoms: C_12  and  C_13
REMARK    7  A    between atoms: C_13  and  O_16
REMARK                            x       y       z     vdW  Elec       q    Type
REMARK                         _______ _______ _______ _____ _____    ______ ____
ROOT
ATOM      1  O   UNL     1     -34.963  24.293   5.795  0.00  0.00    -0.330 OA
ATOM      2  C   UNL     1     -35.787  26.330   4.750  0.00  0.00    +0.128 C 
ATOM      3  C   UNL     1     -36.684  25.489   3.834  0.00  0.00    +0.163 C 
ATOM      4  C   UNL     1     -34.555  25.525   5.192  0.00  0.00    +0.138 C 
ATOM      5  C   UNL     1     -36.952  24.107   4.429  0.00  0.00    +0.199 C 
ATOM      6  C   UNL     1     -35.657  23.441   4.889  0.00  0.00    +0.263 C 
ATOM      7  C   UNL     1     -33.725  26.272   6.232  0.00  0.00    +0.034 C 
ENDROOT
BRANCH   2   9
ATOM      8  O   UNL     1     -34.228  26.583   2.320  0.00  0.00    -0.275 OA
ATOM      9  N   UNL     1     -35.400  27.551   4.079  0.00  0.00    -0.301 N 
ATOM     10  C   UNL     1     -34.651  27.571   2.916  0.00  0.00    +0.225 C 
ATOM     11  H   UNL     1     -35.684  28.409   4.467  0.00  0.00    +0.150 HD
BRANCH  10  12
ATOM     12  C   UNL     1     -34.372  28.979   2.415  0.00  0.00    +0.112 C 
BRANCH  12  13
ATOM     13  C   UNL     1     -33.167  29.653   3.095  0.00  0.00    +0.097 C 
ATOM     14  C   UNL     1     -33.393  31.167   3.163  0.00  0.00    +0.030 C 
ATOM     15  C   UNL     1     -31.851  29.361   2.372  0.00  0.00    +0.030 C 
BRANCH  13  16
ATOM     16  O   UNL     1     -33.040  29.176   4.436  0.00  0.00    -0.386 OA
ATOM     17  H   UNL     1     -33.832  28.670   4.675  0.00  0.00    +0.210 HD
ENDBRANCH  13  16
ENDBRANCH  12  13
ENDBRANCH  10  12
ENDBRANCH   2   9
BRANCH   5  18
ATOM     18  O   UNL     1     -37.572  23.301   3.427  0.00  0.00    -0.346 OA
ATOM     19  C   UNL     1     -36.746  23.178   2.281  0.00  0.00    +0.174 C 
ENDBRANCH   5  18
BRANCH   3  20
ATOM     20  O   UNL     1     -37.931  26.168   3.667  0.00  0.00    -0.380 OA
ATOM     21  H   UNL     1     -37.809  27.115   3.836  0.00  0.00    +0.211 HD
ENDBRANCH   3  20
BRANCH   6  22
ATOM     22  O   UNL     1     -36.002  22.220   5.541  0.00  0.00    -0.358 OA
ATOM     23  H   UNL     1     -35.244  21.904   6.058  0.00  0.00    +0.213 HD
ENDBRANCH   6  22
TORSDOF 7
ENDMDL
MODEL 8
REMARK VINA RESULT:      -4.9      2.740      3.457
REMARK  Name = 50906608
REMARK  7 active torsions:
REMARK  status: ('A' for Active; 'I' for Inactive)
REMARK    1  A    between atoms: C_2  and  N_9
REMARK    2  A    between atoms: C_3  and  O_20
REMARK    3  A    between atoms: C_5  and  O_18
REMARK    4  A    between atoms: C_6  and  O_22
REMARK    5  A    between atoms: C_10  and  C_12
REMARK    6  A    between atoms: C_12  and  C_13
REMARK    7  A    between atoms: C_13  and  O_16
REMARK                            x       y       z     vdW  Elec       q    Type
REMARK                         _______ _______ _______ _____ _____    ______ ____
ROOT
ATOM      1  O   UNL     1     -39.167  26.424   0.398  0.00  0.00    -0.330 OA
ATOM      2  C   UNL     1     -38.433  25.724   2.610  0.00  0.00    +0.128 C 
ATOM      3  C   UNL     1     -39.875  25.842   3.118  0.00  0.00    +0.163 C 
ATOM      4  C   UNL     1     -38.197  26.669   1.421  0.00  0.00    +0.138 C 
ATOM      5  C   UNL     1     -40.881  25.757   1.971  0.00  0.00    +0.199 C 
ATOM      6  C   UNL     1     -40.499  26.693   0.827  0.00  0.00    +0.263 C 
ATOM      7  C   UNL     1     -36.824  26.460   0.787  0.00  0.00    +0.034 C 
ENDROOT
BRANCH   2   9
ATOM      8  O   UNL     1     -37.073  23.792   4.288  0.00  0.00    -0.275 OA
ATOM      9  N   UNL     1     -37.505  25.995   3.685  0.00  0.00    -0.301 N 
ATOM     10  C   UNL     1     -36.902  25.000   4.434  0.00  0.00    +0.225 C 
ATOM     11  H   UNL     1     -37.291  26.932   3.894  0.00  0.00    +0.150 HD
BRANCH  10  12
ATOM     12  C   UNL     1     -35.975  25.546   5.507  0.00  0.00    +0.112 C 
BRANCH  12  13
ATOM     13  C   UNL     1     -34.703  26.211   4.949  0.00  0.00    +0.097 C 
ATOM     14  C   UNL     1     -34.075  25.309   3.881  0.00  0.00    +0.030 C 
ATOM     15  C   UNL     1     -33.674  26.507   6.041  0.00  0.00    +0.030 C 
BRANCH  13  16
ATOM     16  O   UNL     1     -35.040  27.450   4.323  0.00  0.00    -0.386 OA
ATOM     17  H   UNL     1     -35.834  27.330   3.778  0.00  0.00    +0.210 HD
ENDBRANCH  13  16
ENDBRANCH  12  13
ENDBRANCH  10  12
ENDBRANCH   2   9
BRANCH   5  18
ATOM     18  O   UNL     1     -42.166  26.122   2.474  0.00  0.00    -0.346 OA
ATOM     19  C   UNL     1     -42.133  27.396   3.096  0.00  0.00    +0.174 C 
ENDBRANCH   5  18
BRANCH   3  20
ATOM     20  O   UNL     1     -40.127  24.772   4.031  0.00  0.00    -0.380 OA
ATOM     21  H   UNL     1     -40.633  25.105   4.789  0.00  0.00    +0.211 HD
ENDBRANCH   3  20
BRANCH   6  22
ATOM     22  O   UNL     1     -41.409  26.465  -0.248  0.00  0.00    -0.358 OA
ATOM     23  H   UNL     1     -41.264  25.577  -0.612  0.00  0.00    +0.213 HD
ENDBRANCH   6  22
TORSDOF 7
ENDMDL
MODEL 9
REMARK VINA RESULT:      -4.8      2.547      5.607
REMARK  Name = 50906608
REMARK  7 active torsions:
REMARK  status: ('A' for Active; 'I' for Inactive)
REMARK    1  A    between atoms: C_2  and  N_9
REMARK    2  A    between atoms: C_3  and  O_20
REMARK    3  A    between atoms: C_5  and  O_18
REMARK    4  A    between atoms: C_6  and  O_22
REMARK    5  A    between atoms: C_10  and  C_12
REMARK    6  A    between atoms: C_12  and  C_13
REMARK    7  A    between atoms: C_13  and  O_16
REMARK                            x       y       z     vdW  Elec       q    Type
REMARK                         _______ _______ _______ _____ _____    ______ ____
ROOT
ATOM      1  O   UNL     1     -37.149  24.913   1.680  0.00  0.00    -0.330 OA
ATOM      2  C   UNL     1     -36.199  22.843   2.536  0.00  0.00    +0.128 C 
ATOM      3  C   UNL     1     -36.030  23.499   3.912  0.00  0.00    +0.163 C 
ATOM      4  C   UNL     1     -36.169  23.902   1.423  0.00  0.00    +0.138 C 
ATOM      5  C   UNL     1     -36.969  24.692   4.082  0.00  0.00    +0.199 C 
ATOM      6  C   UNL     1     -36.895  25.633   2.882  0.00  0.00    +0.263 C 
ATOM      7  C   UNL     1     -36.496  23.307   0.056  0.00  0.00    +0.034 C 
ENDROOT
BRANCH   2   9
ATOM      8  O   UNL     1     -36.574  20.011   2.051  0.00  0.00    -0.275 OA
ATOM      9  N   UNL     1     -35.173  21.844   2.334  0.00  0.00    -0.301 N 
ATOM     10  C   UNL     1     -35.452  20.508   2.107  0.00  0.00    +0.225 C 
ATOM     11  H   UNL     1     -34.231  22.128   2.358  0.00  0.00    +0.150 HD
BRANCH  10  12
ATOM     12  C   UNL     1     -34.201  19.663   1.933  0.00  0.00    +0.112 C 
BRANCH  12  13
ATOM     13  C   UNL     1     -33.722  19.556   0.474  0.00  0.00    +0.097 C 
ATOM     14  C   UNL     1     -33.872  18.111  -0.014  0.00  0.00    +0.030 C 
ATOM     15  C   UNL     1     -32.271  20.009   0.302  0.00  0.00    +0.030 C 
BRANCH  13  16
ATOM     16  O   UNL     1     -34.535  20.380  -0.364  0.00  0.00    -0.386 OA
ATOM     17  H   UNL     1     -35.062  20.980   0.188  0.00  0.00    +0.210 HD
ENDBRANCH  13  16
ENDBRANCH  12  13
ENDBRANCH  10  12
ENDBRANCH   2   9
BRANCH   5  18
ATOM     18  O   UNL     1     -36.588  25.397   5.264  0.00  0.00    -0.346 OA
ATOM     19  C   UNL     1     -35.250  25.858   5.179  0.00  0.00    +0.174 C 
ENDBRANCH   5  18
BRANCH   3  20
ATOM     20  O   UNL     1     -36.329  22.530   4.920  0.00  0.00    -0.380 OA
ATOM     21  H   UNL     1     -36.902  21.842   4.547  0.00  0.00    +0.211 HD
ENDBRANCH   3  20
BRANCH   6  22
ATOM     22  O   UNL     1     -37.884  26.646   3.059  0.00  0.00    -0.358 OA
ATOM     23  H   UNL     1     -37.943  27.184   2.253  0.00  0.00    +0.213 HD
ENDBRANCH   6  22
TORSDOF 7
ENDMDL
