MODEL 1
REMARK VINA RESULT:      -6.5      0.000      0.000
REMARK  Name = 512286
REMARK  5 active torsions:
REMARK  status: ('A' for Active; 'I' for Inactive)
REMARK    1  A    between atoms: N_2  and  C_11
REMARK    2  A    between atoms: C_12  and  O_16
REMARK    3  A    between atoms: C_13  and  O_18
REMARK    4  A    between atoms: C_14  and  C_20
REMARK    5  A    between atoms: C_20  and  O_21
REMARK                            x       y       z     vdW  Elec       q    Type
REMARK                         _______ _______ _______ _____ _____    ______ ____
ROOT
ATOM      1  F   UNL     1     -31.960  28.607   7.227  0.00  0.00    -0.098 F 
ATOM      2  N   UNL     1     -34.275  26.138   3.981  0.00  0.00    -0.260 N 
ATOM      3  N   UNL     1     -32.978  26.802   2.295  0.00  0.00    -0.240 NA
ATOM      4  N   UNL     1     -33.222  27.335   5.814  0.00  0.00    -0.300 NA
ATOM      5  N   UNL     1     -31.322  28.654   5.034  0.00  0.00    -0.301 NA
ATOM      6  C   UNL     1     -33.345  26.975   4.527  0.00  0.00    +0.221 C 
ATOM      7  C   UNL     1     -34.014  26.066   2.639  0.00  0.00    +0.222 C 
ATOM      8  C   UNL     1     -32.550  27.376   3.465  0.00  0.00    +0.167 C 
ATOM      9  C   UNL     1     -31.506  28.249   3.754  0.00  0.00    +0.213 C 
ATOM     10  C   UNL     1     -32.179  28.178   5.970  0.00  0.00    +0.300 C 
ATOM     11  N   UNL     1     -30.648  28.704   2.738  0.00  0.00    -0.331 N 
ATOM     12  H   UNL     1     -29.913  29.322   2.955  0.00  0.00    +0.145 HD
ATOM     13  H   UNL     1     -30.783  28.407   1.810  0.00  0.00    +0.145 HD
ENDROOT
BRANCH   2  14
ATOM     14  C   UNL     1     -35.355  25.445   4.688  0.00  0.00    +0.106 C 
ATOM     15  C   UNL     1     -36.301  24.637   3.774  0.00  0.00    +0.155 C 
ATOM     16  C   UNL     1     -35.936  23.156   3.993  0.00  0.00    +0.141 C 
ATOM     17  C   UNL     1     -35.203  23.170   5.303  0.00  0.00    +0.060 C 
ATOM     18  C   UNL     1     -34.863  24.416   5.662  0.00  0.00    +0.027 C 
BRANCH  15  19
ATOM     19  O   UNL     1     -37.650  24.898   4.163  0.00  0.00    -0.380 OA
ATOM     20  H   UNL     1     -37.744  24.754   5.118  0.00  0.00    +0.211 HD
ENDBRANCH  15  19
BRANCH  16  21
ATOM     21  O   UNL     1     -37.091  22.338   4.020  0.00  0.00    -0.382 OA
ATOM     22  H   UNL     1     -37.723  22.648   3.354  0.00  0.00    +0.210 HD
ENDBRANCH  16  21
BRANCH  17  23
ATOM     23  C   UNL     1     -34.853  21.919   6.026  0.00  0.00    +0.140 C 
BRANCH  23  24
ATOM     24  O   UNL     1     -35.241  20.787   5.263  0.00  0.00    -0.382 OA
ATOM     25  H   UNL     1     -34.450  20.332   4.933  0.00  0.00    +0.210 HD
ENDBRANCH  23  24
ENDBRANCH  17  23
ENDBRANCH   2  14
TORSDOF 5
ENDMDL
MODEL 2
REMARK VINA RESULT:      -6.3      4.538      5.939
REMARK  Name = 512286
REMARK  5 active torsions:
REMARK  status: ('A' for Active; 'I' for Inactive)
REMARK    1  A    between atoms: N_2  and  C_11
REMARK    2  A    between atoms: C_12  and  O_16
REMARK    3  A    between atoms: C_13  and  O_18
REMARK    4  A    between atoms: C_14  and  C_20
REMARK    5  A    between atoms: C_20  and  O_21
REMARK                            x       y       z     vdW  Elec       q    Type
REMARK                         _______ _______ _______ _____ _____    ______ ____
ROOT
ATOM      1  F   UNL     1     -35.115  22.400   6.947  0.00  0.00    -0.098 F 
ATOM      2  N   UNL     1     -36.258  21.697   2.454  0.00  0.00    -0.260 N 
ATOM      3  N   UNL     1     -36.906  23.800   2.104  0.00  0.00    -0.240 NA
ATOM      4  N   UNL     1     -35.607  21.843   4.789  0.00  0.00    -0.300 NA
ATOM      5  N   UNL     1     -35.935  24.100   5.660  0.00  0.00    -0.301 NA
ATOM      6  C   UNL     1     -36.078  22.349   3.639  0.00  0.00    +0.221 C 
ATOM      7  C   UNL     1     -36.756  22.609   1.563  0.00  0.00    +0.222 C 
ATOM      8  C   UNL     1     -36.485  23.652   3.401  0.00  0.00    +0.167 C 
ATOM      9  C   UNL     1     -36.402  24.542   4.468  0.00  0.00    +0.213 C 
ATOM     10  C   UNL     1     -35.572  22.797   5.745  0.00  0.00    +0.300 C 
ATOM     11  N   UNL     1     -36.792  25.884   4.315  0.00  0.00    -0.331 N 
ATOM     12  H   UNL     1     -36.729  26.504   5.077  0.00  0.00    +0.145 HD
ATOM     13  H   UNL     1     -37.128  26.203   3.447  0.00  0.00    +0.145 HD
ENDROOT
BRANCH   2  14
ATOM     14  C   UNL     1     -35.976  20.286   2.176  0.00  0.00    +0.106 C 
ATOM     15  C   UNL     1     -36.329  19.834   0.743  0.00  0.00    +0.155 C 
ATOM     16  C   UNL     1     -34.987  19.690   0.003  0.00  0.00    +0.141 C 
ATOM     17  C   UNL     1     -33.987  19.582   1.117  0.00  0.00    +0.060 C 
ATOM     18  C   UNL     1     -34.522  19.936   2.294  0.00  0.00    +0.027 C 
BRANCH  15  19
ATOM     19  O   UNL     1     -37.017  18.584   0.812  0.00  0.00    -0.380 OA
ATOM     20  H   UNL     1     -37.933  18.734   1.094  0.00  0.00    +0.211 HD
ENDBRANCH  15  19
BRANCH  16  21
ATOM     21  O   UNL     1     -34.984  18.558  -0.847  0.00  0.00    -0.382 OA
ATOM     22  H   UNL     1     -34.655  18.812  -1.723  0.00  0.00    +0.210 HD
ENDBRANCH  16  21
BRANCH  17  23
ATOM     23  C   UNL     1     -32.569  19.203   0.874  0.00  0.00    +0.140 C 
BRANCH  23  24
ATOM     24  O   UNL     1     -32.236  18.044   1.622  0.00  0.00    -0.382 OA
ATOM     25  H   UNL     1     -33.049  17.600   1.909  0.00  0.00    +0.210 HD
ENDBRANCH  23  24
ENDBRANCH  17  23
ENDBRANCH   2  14
TORSDOF 5
ENDMDL
MODEL 3
REMARK VINA RESULT:      -6.1      2.170      2.747
REMARK  Name = 512286
REMARK  5 active torsions:
REMARK  status: ('A' for Active; 'I' for Inactive)
REMARK    1  A    between atoms: N_2  and  C_11
REMARK    2  A    between atoms: C_12  and  O_16
REMARK    3  A    between atoms: C_13  and  O_18
REMARK    4  A    between atoms: C_14  and  C_20
REMARK    5  A    between atoms: C_20  and  O_21
REMARK                            x       y       z     vdW  Elec       q    Type
REMARK                         _______ _______ _______ _____ _____    ______ ____
ROOT
ATOM      1  F   UNL     1     -36.438  28.587   0.917  0.00  0.00    -0.098 F 
ATOM      2  N   UNL     1     -34.758  26.296   4.648  0.00  0.00    -0.260 N 
ATOM      3  N   UNL     1     -32.770  27.302   4.594  0.00  0.00    -0.240 NA
ATOM      4  N   UNL     1     -35.819  27.366   2.743  0.00  0.00    -0.300 NA
ATOM      5  N   UNL     1     -34.320  28.973   1.682  0.00  0.00    -0.301 NA
ATOM      6  C   UNL     1     -34.799  27.156   3.589  0.00  0.00    +0.221 C 
ATOM      7  C   UNL     1     -33.521  26.419   5.220  0.00  0.00    +0.222 C 
ATOM      8  C   UNL     1     -33.557  27.770   3.573  0.00  0.00    +0.167 C 
ATOM      9  C   UNL     1     -33.333  28.710   2.571  0.00  0.00    +0.213 C 
ATOM     10  C   UNL     1     -35.485  28.295   1.822  0.00  0.00    +0.300 C 
ATOM     11  N   UNL     1     -32.102  29.383   2.481  0.00  0.00    -0.331 N 
ATOM     12  H   UNL     1     -31.955  30.046   1.768  0.00  0.00    +0.145 HD
ATOM     13  H   UNL     1     -31.387  29.191   3.130  0.00  0.00    +0.145 HD
ENDROOT
BRANCH   2  14
ATOM     14  C   UNL     1     -35.830  25.403   5.096  0.00  0.00    +0.106 C 
ATOM     15  C   UNL     1     -36.518  24.611   3.964  0.00  0.00    +0.155 C 
ATOM     16  C   UNL     1     -35.998  23.166   4.084  0.00  0.00    +0.141 C 
ATOM     17  C   UNL     1     -35.474  23.102   5.488  0.00  0.00    +0.060 C 
ATOM     18  C   UNL     1     -35.356  24.325   6.025  0.00  0.00    +0.027 C 
BRANCH  15  19
ATOM     19  O   UNL     1     -37.932  24.668   4.156  0.00  0.00    -0.380 OA
ATOM     20  H   UNL     1     -38.208  23.943   4.738  0.00  0.00    +0.211 HD
ENDBRANCH  15  19
BRANCH  16  21
ATOM     21  O   UNL     1     -37.028  22.225   3.839  0.00  0.00    -0.382 OA
ATOM     22  H   UNL     1     -37.526  22.071   4.656  0.00  0.00    +0.210 HD
ENDBRANCH  16  21
BRANCH  17  23
ATOM     23  C   UNL     1     -35.073  21.820   6.125  0.00  0.00    +0.140 C 
BRANCH  23  24
ATOM     24  O   UNL     1     -35.143  20.761   5.181  0.00  0.00    -0.382 OA
ATOM     25  H   UNL     1     -35.678  21.040   4.421  0.00  0.00    +0.210 HD
ENDBRANCH  23  24
ENDBRANCH  17  23
ENDBRANCH   2  14
TORSDOF 5
ENDMDL
MODEL 4
REMARK VINA RESULT:      -5.9      2.365      3.065
REMARK  Name = 512286
REMARK  5 active torsions:
REMARK  status: ('A' for Active; 'I' for Inactive)
REMARK    1  A    between atoms: N_2  and  C_11
REMARK    2  A    between atoms: C_12  and  O_16
REMARK    3  A    between atoms: C_13  and  O_18
REMARK    4  A    between atoms: C_14  and  C_20
REMARK    5  A    between atoms: C_20  and  O_21
REMARK                            x       y       z     vdW  Elec       q    Type
REMARK                         _______ _______ _______ _____ _____    ______ ____
ROOT
ATOM      1  F   UNL     1     -33.434  26.289   6.823  0.00  0.00    -0.098 F 
ATOM      2  N   UNL     1     -36.517  25.905   3.310  0.00  0.00    -0.260 N 
ATOM      3  N   UNL     1     -35.489  27.393   2.008  0.00  0.00    -0.240 NA
ATOM      4  N   UNL     1     -35.043  25.951   5.240  0.00  0.00    -0.300 NA
ATOM      5  N   UNL     1     -33.200  27.517   4.910  0.00  0.00    -0.301 NA
ATOM      6  C   UNL     1     -35.429  26.335   4.014  0.00  0.00    +0.221 C 
ATOM      7  C   UNL     1     -36.510  26.568   2.112  0.00  0.00    +0.222 C 
ATOM      8  C   UNL     1     -34.805  27.257   3.189  0.00  0.00    +0.167 C 
ATOM      9  C   UNL     1     -33.649  27.858   3.678  0.00  0.00    +0.213 C 
ATOM     10  C   UNL     1     -33.915  26.598   5.604  0.00  0.00    +0.300 C 
ATOM     11  N   UNL     1     -32.950  28.803   2.907  0.00  0.00    -0.331 N 
ATOM     12  H   UNL     1     -32.133  29.221   3.264  0.00  0.00    +0.145 HD
ATOM     13  H   UNL     1     -33.277  29.047   2.012  0.00  0.00    +0.145 HD
ENDROOT
BRANCH   2  14
ATOM     14  C   UNL     1     -37.512  24.921   3.745  0.00  0.00    +0.106 C 
ATOM     15  C   UNL     1     -38.905  25.096   3.104  0.00  0.00    +0.155 C 
ATOM     16  C   UNL     1     -39.036  23.967   2.064  0.00  0.00    +0.141 C 
ATOM     17  C   UNL     1     -37.993  22.977   2.494  0.00  0.00    +0.060 C 
ATOM     18  C   UNL     1     -37.148  23.511   3.388  0.00  0.00    +0.027 C 
BRANCH  15  19
ATOM     19  O   UNL     1     -39.898  24.974   4.124  0.00  0.00    -0.380 OA
ATOM     20  H   UNL     1     -39.717  25.615   4.829  0.00  0.00    +0.211 HD
ENDBRANCH  15  19
BRANCH  16  21
ATOM     21  O   UNL     1     -40.341  23.420   2.056  0.00  0.00    -0.382 OA
ATOM     22  H   UNL     1     -40.746  23.536   2.928  0.00  0.00    +0.210 HD
ENDBRANCH  16  21
BRANCH  17  23
ATOM     23  C   UNL     1     -37.908  21.614   1.907  0.00  0.00    +0.140 C 
BRANCH  23  24
ATOM     24  O   UNL     1     -39.060  20.859   2.250  0.00  0.00    -0.382 OA
ATOM     25  H   UNL     1     -39.116  20.076   1.680  0.00  0.00    +0.210 HD
ENDBRANCH  23  24
ENDBRANCH  17  23
ENDBRANCH   2  14
TORSDOF 5
ENDMDL
MODEL 5
REMARK VINA RESULT:      -5.9      4.253      6.367
REMARK  Name = 512286
REMARK  5 active torsions:
REMARK  status: ('A' for Active; 'I' for Inactive)
REMARK    1  A    between atoms: N_2  and  C_11
REMARK    2  A    between atoms: C_12  and  O_16
REMARK    3  A    between atoms: C_13  and  O_18
REMARK    4  A    between atoms: C_14  and  C_20
REMARK    5  A    between atoms: C_20  and  O_21
REMARK                            x       y       z     vdW  Elec       q    Type
REMARK                         _______ _______ _______ _____ _____    ______ ____
ROOT
ATOM      1  F   UNL     1     -35.056  21.552   6.225  0.00  0.00    -0.098 F 
ATOM      2  N   UNL     1     -36.681  24.087   2.630  0.00  0.00    -0.260 N 
ATOM      3  N   UNL     1     -36.433  22.453   1.135  0.00  0.00    -0.240 NA
ATOM      4  N   UNL     1     -35.874  22.955   4.622  0.00  0.00    -0.300 NA
ATOM      5  N   UNL     1     -35.192  20.665   4.124  0.00  0.00    -0.301 NA
ATOM      6  C   UNL     1     -36.171  23.022   3.315  0.00  0.00    +0.221 C 
ATOM      7  C   UNL     1     -36.821  23.697   1.325  0.00  0.00    +0.222 C 
ATOM      8  C   UNL     1     -36.025  22.020   2.370  0.00  0.00    +0.167 C 
ATOM      9  C   UNL     1     -35.513  20.804   2.815  0.00  0.00    +0.213 C 
ATOM     10  C   UNL     1     -35.390  21.733   4.934  0.00  0.00    +0.300 C 
ATOM     11  N   UNL     1     -35.334  19.731   1.925  0.00  0.00    -0.331 N 
ATOM     12  H   UNL     1     -34.971  18.877   2.252  0.00  0.00    +0.145 HD
ATOM     13  H   UNL     1     -35.571  19.835   0.975  0.00  0.00    +0.145 HD
ENDROOT
BRANCH   2  14
ATOM     14  C   UNL     1     -37.017  25.404   3.177  0.00  0.00    +0.106 C 
ATOM     15  C   UNL     1     -35.860  26.098   3.927  0.00  0.00    +0.155 C 
ATOM     16  C   UNL     1     -35.359  27.213   2.991  0.00  0.00    +0.141 C 
ATOM     17  C   UNL     1     -36.505  27.409   2.041  0.00  0.00    +0.060 C 
ATOM     18  C   UNL     1     -37.390  26.407   2.126  0.00  0.00    +0.027 C 
BRANCH  15  19
ATOM     19  O   UNL     1     -36.364  26.640   5.149  0.00  0.00    -0.380 OA
ATOM     20  H   UNL     1     -35.627  26.982   5.679  0.00  0.00    +0.211 HD
ENDBRANCH  15  19
BRANCH  16  21
ATOM     21  O   UNL     1     -35.036  28.388   3.712  0.00  0.00    -0.382 OA
ATOM     22  H   UNL     1     -34.519  28.982   3.148  0.00  0.00    +0.210 HD
ENDBRANCH  16  21
BRANCH  17  23
ATOM     23  C   UNL     1     -36.557  28.552   1.091  0.00  0.00    +0.140 C 
BRANCH  23  24
ATOM     24  O   UNL     1     -37.902  28.830   0.731  0.00  0.00    -0.382 OA
ATOM     25  H   UNL     1     -38.497  28.490   1.418  0.00  0.00    +0.210 HD
ENDBRANCH  23  24
ENDBRANCH  17  23
ENDBRANCH   2  14
TORSDOF 5
ENDMDL
MODEL 6
REMARK VINA RESULT:      -5.8      4.053      5.685
REMARK  Name = 512286
REMARK  5 active torsions:
REMARK  status: ('A' for Active; 'I' for Inactive)
REMARK    1  A    between atoms: N_2  and  C_11
REMARK    2  A    between atoms: C_12  and  O_16
REMARK    3  A    between atoms: C_13  and  O_18
REMARK    4  A    between atoms: C_14  and  C_20
REMARK    5  A    between atoms: C_20  and  O_21
REMARK                            x       y       z     vdW  Elec       q    Type
REMARK                         _______ _______ _______ _____ _____    ______ ____
ROOT
ATOM      1  F   UNL     1     -34.862  22.643   6.381  0.00  0.00    -0.098 F 
ATOM      2  N   UNL     1     -37.720  23.390   2.740  0.00  0.00    -0.260 N 
ATOM      3  N   UNL     1     -37.491  25.606   2.785  0.00  0.00    -0.240 NA
ATOM      4  N   UNL     1     -36.281  22.783   4.599  0.00  0.00    -0.300 NA
ATOM      5  N   UNL     1     -35.282  24.758   5.627  0.00  0.00    -0.301 NA
ATOM      6  C   UNL     1     -36.869  23.660   3.772  0.00  0.00    +0.221 C 
ATOM      7  C   UNL     1     -38.066  24.589   2.178  0.00  0.00    +0.222 C 
ATOM      8  C   UNL     1     -36.739  25.040   3.783  0.00  0.00    +0.167 C 
ATOM      9  C   UNL     1     -35.910  25.586   4.757  0.00  0.00    +0.213 C 
ATOM     10  C   UNL     1     -35.503  23.428   5.496  0.00  0.00    +0.300 C 
ATOM     11  N   UNL     1     -35.718  26.976   4.840  0.00  0.00    -0.331 N 
ATOM     12  H   UNL     1     -35.129  27.351   5.534  0.00  0.00    +0.145 HD
ATOM     13  H   UNL     1     -36.173  27.574   4.205  0.00  0.00    +0.145 HD
ENDROOT
BRANCH   2  14
ATOM     14  C   UNL     1     -38.185  22.069   2.307  0.00  0.00    +0.106 C 
ATOM     15  C   UNL     1     -39.617  22.053   1.731  0.00  0.00    +0.155 C 
ATOM     16  C   UNL     1     -39.456  21.899   0.207  0.00  0.00    +0.141 C 
ATOM     17  C   UNL     1     -38.062  21.364   0.057  0.00  0.00    +0.060 C 
ATOM     18  C   UNL     1     -37.365  21.485   1.195  0.00  0.00    +0.027 C 
BRANCH  15  19
ATOM     19  O   UNL     1     -40.325  20.945   2.289  0.00  0.00    -0.380 OA
ATOM     20  H   UNL     1     -39.957  20.733   3.161  0.00  0.00    +0.211 HD
ENDBRANCH  15  19
BRANCH  16  21
ATOM     21  O   UNL     1     -40.438  21.032  -0.332  0.00  0.00    -0.382 OA
ATOM     22  H   UNL     1     -41.132  20.880   0.327  0.00  0.00    +0.210 HD
ENDBRANCH  16  21
BRANCH  17  23
ATOM     23  C   UNL     1     -37.548  20.849  -1.239  0.00  0.00    +0.140 C 
BRANCH  23  24
ATOM     24  O   UNL     1     -38.317  21.369  -2.313  0.00  0.00    -0.382 OA
ATOM     25  H   UNL     1     -38.690  20.637  -2.828  0.00  0.00    +0.210 HD
ENDBRANCH  23  24
ENDBRANCH  17  23
ENDBRANCH   2  14
TORSDOF 5
ENDMDL
MODEL 7
REMARK VINA RESULT:      -5.7      1.834      1.966
REMARK  Name = 512286
REMARK  5 active torsions:
REMARK  status: ('A' for Active; 'I' for Inactive)
REMARK    1  A    between atoms: N_2  and  C_11
REMARK    2  A    between atoms: C_12  and  O_16
REMARK    3  A    between atoms: C_13  and  O_18
REMARK    4  A    between atoms: C_14  and  C_20
REMARK    5  A    between atoms: C_20  and  O_21
REMARK                            x       y       z     vdW  Elec       q    Type
REMARK                         _______ _______ _______ _____ _____    ______ ____
ROOT
ATOM      1  F   UNL     1     -33.890  31.367   3.484  0.00  0.00    -0.098 F 
ATOM      2  N   UNL     1     -33.915  26.685   3.745  0.00  0.00    -0.260 N 
ATOM      3  N   UNL     1     -31.991  26.436   2.648  0.00  0.00    -0.240 NA
ATOM      4  N   UNL     1     -34.097  29.107   3.723  0.00  0.00    -0.300 NA
ATOM      5  N   UNL     1     -32.201  30.127   2.574  0.00  0.00    -0.301 NA
ATOM      6  C   UNL     1     -33.491  27.945   3.434  0.00  0.00    +0.221 C 
ATOM      7  C   UNL     1     -32.982  25.814   3.253  0.00  0.00    +0.222 C 
ATOM      8  C   UNL     1     -32.297  27.769   2.754  0.00  0.00    +0.167 C 
ATOM      9  C   UNL     1     -31.646  28.918   2.317  0.00  0.00    +0.213 C 
ATOM     10  C   UNL     1     -33.374  30.146   3.251  0.00  0.00    +0.300 C 
ATOM     11  N   UNL     1     -30.428  28.833   1.621  0.00  0.00    -0.331 N 
ATOM     12  H   UNL     1     -29.977  29.653   1.316  0.00  0.00    +0.145 HD
ATOM     13  H   UNL     1     -30.027  27.953   1.438  0.00  0.00    +0.145 HD
ENDROOT
BRANCH   2  14
ATOM     14  C   UNL     1     -35.137  26.323   4.468  0.00  0.00    +0.106 C 
ATOM     15  C   UNL     1     -36.241  25.703   3.585  0.00  0.00    +0.155 C 
ATOM     16  C   UNL     1     -36.246  24.197   3.911  0.00  0.00    +0.141 C 
ATOM     17  C   UNL     1     -35.543  24.127   5.236  0.00  0.00    +0.060 C 
ATOM     18  C   UNL     1     -34.916  25.277   5.521  0.00  0.00    +0.027 C 
BRANCH  15  19
ATOM     19  O   UNL     1     -37.491  26.307   3.921  0.00  0.00    -0.380 OA
ATOM     20  H   UNL     1     -37.601  27.126   3.413  0.00  0.00    +0.211 HD
ENDBRANCH  15  19
BRANCH  16  21
ATOM     21  O   UNL     1     -37.564  23.683   3.962  0.00  0.00    -0.382 OA
ATOM     22  H   UNL     1     -37.944  23.680   3.070  0.00  0.00    +0.210 HD
ENDBRANCH  16  21
BRANCH  17  23
ATOM     23  C   UNL     1     -35.512  22.883   6.049  0.00  0.00    +0.140 C 
BRANCH  23  24
ATOM     24  O   UNL     1     -35.991  21.786   5.286  0.00  0.00    -0.382 OA
ATOM     25  H   UNL     1     -36.497  22.117   4.527  0.00  0.00    +0.210 HD
ENDBRANCH  23  24
ENDBRANCH  17  23
ENDBRANCH   2  14
TORSDOF 5
ENDMDL
MODEL 8
REMARK VINA RESULT:      -5.7      5.093      6.695
REMARK  Name = 512286
REMARK  5 active torsions:
REMARK  status: ('A' for Active; 'I' for Inactive)
REMARK    1  A    between atoms: N_2  and  C_11
REMARK    2  A    between atoms: C_12  and  O_16
REMARK    3  A    between atoms: C_13  and  O_18
REMARK    4  A    between atoms: C_14  and  C_20
REMARK    5  A    between atoms: C_20  and  O_21
REMARK                            x       y       z     vdW  Elec       q    Type
REMARK                         _______ _______ _______ _____ _____    ______ ____
ROOT
ATOM      1  F   UNL     1     -35.815  19.879   1.799  0.00  0.00    -0.098 F 
ATOM      2  N   UNL     1     -37.196  24.108   3.281  0.00  0.00    -0.260 N 
ATOM      3  N   UNL     1     -36.175  23.947   5.255  0.00  0.00    -0.240 NA
ATOM      4  N   UNL     1     -36.593  21.960   2.322  0.00  0.00    -0.300 NA
ATOM      5  N   UNL     1     -35.216  20.659   3.862  0.00  0.00    -0.301 NA
ATOM      6  C   UNL     1     -36.588  22.886   3.293  0.00  0.00    +0.221 C 
ATOM      7  C   UNL     1     -36.920  24.708   4.480  0.00  0.00    +0.222 C 
ATOM      8  C   UNL     1     -35.960  22.806   4.525  0.00  0.00    +0.167 C 
ATOM      9  C   UNL     1     -35.254  21.638   4.797  0.00  0.00    +0.213 C 
ATOM     10  C   UNL     1     -35.878  20.878   2.699  0.00  0.00    +0.300 C 
ATOM     11  N   UNL     1     -34.584  21.473   6.022  0.00  0.00    -0.331 N 
ATOM     12  H   UNL     1     -34.088  20.642   6.203  0.00  0.00    +0.145 HD
ATOM     13  H   UNL     1     -34.612  22.187   6.698  0.00  0.00    +0.145 HD
ENDROOT
BRANCH   2  14
ATOM     14  C   UNL     1     -37.999  24.680   2.196  0.00  0.00    +0.106 C 
ATOM     15  C   UNL     1     -38.981  23.688   1.537  0.00  0.00    +0.155 C 
ATOM     16  C   UNL     1     -40.380  24.076   2.050  0.00  0.00    +0.141 C 
ATOM     17  C   UNL     1     -40.192  25.483   2.538  0.00  0.00    +0.060 C 
ATOM     18  C   UNL     1     -38.894  25.797   2.644  0.00  0.00    +0.027 C 
BRANCH  15  19
ATOM     19  O   UNL     1     -38.894  23.830   0.118  0.00  0.00    -0.380 OA
ATOM     20  H   UNL     1     -39.718  23.517  -0.289  0.00  0.00    +0.211 HD
ENDBRANCH  15  19
BRANCH  16  21
ATOM     21  O   UNL     1     -41.352  23.976   1.026  0.00  0.00    -0.382 OA
ATOM     22  H   UNL     1     -40.912  23.941   0.163  0.00  0.00    +0.210 HD
ENDBRANCH  16  21
BRANCH  17  23
ATOM     23  C   UNL     1     -41.341  26.347   2.919  0.00  0.00    +0.140 C 
BRANCH  23  24
ATOM     24  O   UNL     1     -41.007  27.134   4.053  0.00  0.00    -0.382 OA
ATOM     25  H   UNL     1     -41.242  26.651   4.861  0.00  0.00    +0.210 HD
ENDBRANCH  23  24
ENDBRANCH  17  23
ENDBRANCH   2  14
TORSDOF 5
ENDMDL
MODEL 9
REMARK VINA RESULT:      -5.6      4.787      7.025
REMARK  Name = 512286
REMARK  5 active torsions:
REMARK  status: ('A' for Active; 'I' for Inactive)
REMARK    1  A    between atoms: N_2  and  C_11
REMARK    2  A    between atoms: C_12  and  O_16
REMARK    3  A    between atoms: C_13  and  O_18
REMARK    4  A    between atoms: C_14  and  C_20
REMARK    5  A    between atoms: C_20  and  O_21
REMARK                            x       y       z     vdW  Elec       q    Type
REMARK                         _______ _______ _______ _____ _____    ______ ____
ROOT
ATOM      1  F   UNL     1     -38.221  22.262  -1.594  0.00  0.00    -0.098 F 
ATOM      2  N   UNL     1     -36.276  23.140   2.581  0.00  0.00    -0.260 N 
ATOM      3  N   UNL     1     -35.829  21.002   3.023  0.00  0.00    -0.240 NA
ATOM      4  N   UNL     1     -37.317  22.907   0.399  0.00  0.00    -0.300 NA
ATOM      5  N   UNL     1     -37.404  20.569  -0.295  0.00  0.00    -0.301 NA
ATOM      6  C   UNL     1     -36.725  22.430   1.505  0.00  0.00    +0.221 C 
ATOM      7  C   UNL     1     -35.746  22.239   3.465  0.00  0.00    +0.222 C 
ATOM      8  C   UNL     1     -36.439  21.107   1.799  0.00  0.00    +0.167 C 
ATOM      9  C   UNL     1     -36.802  20.159   0.847  0.00  0.00    +0.213 C 
ATOM     10  C   UNL     1     -37.620  21.898  -0.446  0.00  0.00    +0.300 C 
ATOM     11  N   UNL     1     -36.548  18.793   1.061  0.00  0.00    -0.331 N 
ATOM     12  H   UNL     1     -36.809  18.131   0.381  0.00  0.00    +0.145 HD
ATOM     13  H   UNL     1     -36.108  18.498   1.891  0.00  0.00    +0.145 HD
ENDROOT
BRANCH   2  14
ATOM     14  C   UNL     1     -36.344  24.592   2.767  0.00  0.00    +0.106 C 
ATOM     15  C   UNL     1     -37.172  25.042   3.989  0.00  0.00    +0.155 C 
ATOM     16  C   UNL     1     -36.150  25.497   5.047  0.00  0.00    +0.141 C 
ATOM     17  C   UNL     1     -34.906  25.743   4.244  0.00  0.00    +0.060 C 
ATOM     18  C   UNL     1     -35.005  25.223   3.013  0.00  0.00    +0.027 C 
BRANCH  15  19
ATOM     19  O   UNL     1     -38.022  26.121   3.596  0.00  0.00    -0.380 OA
ATOM     20  H   UNL     1     -37.869  26.881   4.179  0.00  0.00    +0.211 HD
ENDBRANCH  15  19
BRANCH  16  21
ATOM     21  O   UNL     1     -36.597  26.651   5.734  0.00  0.00    -0.382 OA
ATOM     22  H   UNL     1     -37.551  26.757   5.603  0.00  0.00    +0.210 HD
ENDBRANCH  16  21
BRANCH  17  23
ATOM     23  C   UNL     1     -33.712  26.415   4.822  0.00  0.00    +0.140 C 
BRANCH  23  24
ATOM     24  O   UNL     1     -33.861  26.555   6.227  0.00  0.00    -0.382 OA
ATOM     25  H   UNL     1     -34.206  25.729   6.600  0.00  0.00    +0.210 HD
ENDBRANCH  23  24
ENDBRANCH  17  23
ENDBRANCH   2  14
TORSDOF 5
ENDMDL
