MODEL 1
REMARK VINA RESULT:      -6.5      0.000      0.000
REMARK  Name = 54691486
REMARK  12 active torsions:
REMARK  status: ('A' for Active; 'I' for Inactive)
REMARK    1  A    between atoms: C_3  and  C_26
REMARK    2  A    between atoms: C_4  and  O_39
REMARK    3  A    between atoms: C_6  and  C_10
REMARK    4  A    between atoms: C_12  and  C_16
REMARK    5  A    between atoms: C_17  and  C_19
REMARK    6  A    between atoms: C_19  and  C_21
REMARK    7  A    between atoms: C_21  and  C_22
REMARK    8  A    between atoms: C_22  and  C_24
REMARK    9  A    between atoms: C_27  and  O_31
REMARK   10  A    between atoms: C_28  and  O_33
REMARK   11  A    between atoms: C_29  and  O_37
REMARK   12  A    between atoms: C_30  and  O_35
REMARK                            x       y       z     vdW  Elec       q    Type
REMARK                         _______ _______ _______ _____ _____    ______ ____
ROOT
ATOM      1  O   UNL     1     -36.888  26.259   0.829  0.00  0.00    -0.270 OA
ATOM      2  N   UNL     1     -39.105  26.945   0.683  0.00  0.00    -0.253 N 
ATOM      3  C   UNL     1     -40.691  26.196   2.305  0.00  0.00    +0.031 C 
ATOM      4  C   UNL     1     -39.632  25.444   2.963  0.00  0.00    +0.134 C 
ATOM      5  C   UNL     1     -40.383  26.904   1.207  0.00  0.00    +0.067 C 
ATOM      6  C   UNL     1     -38.370  25.449   2.496  0.00  0.00    +0.092 C 
ATOM      7  C   UNL     1     -38.041  26.249   1.262  0.00  0.00    +0.254 C 
ATOM      8  C   UNL     1     -38.858  27.741  -0.515  0.00  0.00    +0.120 C 
ENDROOT
BRANCH   6  10
ATOM      9  O   UNL     1     -37.155  25.027   4.486  0.00  0.00    -0.346 OA
ATOM     10  C   UNL     1     -37.210  24.717   3.089  0.00  0.00    +0.150 C 
ATOM     11  C   UNL     1     -37.354  23.205   2.913  0.00  0.00    +0.060 C 
ATOM     12  C   UNL     1     -35.993  24.497   5.151  0.00  0.00    +0.152 C 
ATOM     13  C   UNL     1     -35.725  23.049   4.787  0.00  0.00    -0.018 C 
ATOM     14  C   UNL     1     -36.371  22.463   3.765  0.00  0.00    -0.029 C 
ATOM     15  C   UNL     1     -34.766  22.283   5.652  0.00  0.00    +0.029 C 
BRANCH  12  16
ATOM     16  C   UNL     1     -34.823  25.402   4.907  0.00  0.00    -0.018 C 
ATOM     17  C   UNL     1     -34.322  25.544   3.665  0.00  0.00    -0.032 C 
ATOM     18  C   UNL     1     -34.311  26.091   6.140  0.00  0.00    +0.029 C 
BRANCH  17  19
ATOM     19  C   UNL     1     -33.174  26.416   3.213  0.00  0.00    +0.021 C 
ATOM     20  C   UNL     1     -32.557  25.813   1.945  0.00  0.00    +0.005 C 
BRANCH  19  21
ATOM     21  C   UNL     1     -33.637  27.863   2.932  0.00  0.00    +0.004 C 
BRANCH  21  22
ATOM     22  C   UNL     1     -32.906  28.972   3.728  0.00  0.00    +0.000 C 
ATOM     23  C   UNL     1     -32.341  29.998   2.736  0.00  0.00    +0.000 C 
BRANCH  22  24
ATOM     24  C   UNL     1     -31.802  28.393   4.634  0.00  0.00    +0.000 C 
ATOM     25  C   UNL     1     -31.819  28.947   6.054  0.00  0.00    +0.000 C 
ENDBRANCH  22  24
ENDBRANCH  21  22
ENDBRANCH  19  21
ENDBRANCH  17  19
ENDBRANCH  12  16
ENDBRANCH   6  10
BRANCH   3  26
ATOM     26  C   UNL     1     -42.078  26.163   2.858  0.00  0.00    +0.085 C 
ATOM     27  C   UNL     1     -42.369  27.220   3.931  0.00  0.00    +0.146 C 
ATOM     28  C   UNL     1     -43.169  26.409   1.792  0.00  0.00    +0.146 C 
ATOM     29  C   UNL     1     -44.328  27.114   2.523  0.00  0.00    +0.167 C 
ATOM     30  C   UNL     1     -43.895  27.149   3.993  0.00  0.00    +0.167 C 
BRANCH  27  31
ATOM     31  O   UNL     1     -41.968  28.522   3.515  0.00  0.00    -0.381 OA
ATOM     32  H   UNL     1     -41.445  28.939   4.218  0.00  0.00    +0.210 HD
ENDBRANCH  27  31
BRANCH  28  33
ATOM     33  O   UNL     1     -43.607  25.170   1.246  0.00  0.00    -0.381 OA
ATOM     34  H   UNL     1     -44.387  25.320   0.689  0.00  0.00    +0.210 HD
ENDBRANCH  28  33
BRANCH  30  35
ATOM     35  O   UNL     1     -44.475  28.221   4.706  0.00  0.00    -0.379 OA
ATOM     36  H   UNL     1     -45.414  28.035   4.862  0.00  0.00    +0.211 HD
ENDBRANCH  30  35
BRANCH  29  37
ATOM     37  O   UNL     1     -44.450  28.434   1.998  0.00  0.00    -0.379 OA
ATOM     38  H   UNL     1     -43.641  28.664   1.515  0.00  0.00    +0.211 HD
ENDBRANCH  29  37
ENDBRANCH   3  26
BRANCH   4  39
ATOM     39  O   UNL     1     -40.049  24.752   4.080  0.00  0.00    -0.506 OA
ATOM     40  H   UNL     1     -40.418  23.896   3.989  0.00  0.00    +0.292 HD
ENDBRANCH   4  39
TORSDOF 12
ENDMDL
MODEL 2
REMARK VINA RESULT:      -6.5      0.560      1.039
REMARK  Name = 54691486
REMARK  12 active torsions:
REMARK  status: ('A' for Active; 'I' for Inactive)
REMARK    1  A    between atoms: C_3  and  C_26
REMARK    2  A    between atoms: C_4  and  O_39
REMARK    3  A    between atoms: C_6  and  C_10
REMARK    4  A    between atoms: C_12  and  C_16
REMARK    5  A    between atoms: C_17  and  C_19
REMARK    6  A    between atoms: C_19  and  C_21
REMARK    7  A    between atoms: C_21  and  C_22
REMARK    8  A    between atoms: C_22  and  C_24
REMARK    9  A    between atoms: C_27  and  O_31
REMARK   10  A    between atoms: C_28  and  O_33
REMARK   11  A    between atoms: C_29  and  O_37
REMARK   12  A    between atoms: C_30  and  O_35
REMARK                            x       y       z     vdW  Elec       q    Type
REMARK                         _______ _______ _______ _____ _____    ______ ____
ROOT
ATOM      1  O   UNL     1     -36.894  26.254   0.817  0.00  0.00    -0.270 OA
ATOM      2  N   UNL     1     -39.117  26.917   0.657  0.00  0.00    -0.253 N 
ATOM      3  C   UNL     1     -40.694  26.198   2.300  0.00  0.00    +0.031 C 
ATOM      4  C   UNL     1     -39.628  25.473   2.977  0.00  0.00    +0.134 C 
ATOM      5  C   UNL     1     -40.394  26.879   1.183  0.00  0.00    +0.067 C 
ATOM      6  C   UNL     1     -38.366  25.476   2.507  0.00  0.00    +0.092 C 
ATOM      7  C   UNL     1     -38.046  26.245   1.252  0.00  0.00    +0.254 C 
ATOM      8  C   UNL     1     -38.879  27.683  -0.563  0.00  0.00    +0.120 C 
ENDROOT
BRANCH   6  10
ATOM      9  O   UNL     1     -37.160  25.098   4.511  0.00  0.00    -0.346 OA
ATOM     10  C   UNL     1     -37.199  24.770   3.117  0.00  0.00    +0.150 C 
ATOM     11  C   UNL     1     -37.319  23.254   2.959  0.00  0.00    +0.060 C 
ATOM     12  C   UNL     1     -35.995  24.595   5.191  0.00  0.00    +0.152 C 
ATOM     13  C   UNL     1     -35.701  23.147   4.847  0.00  0.00    -0.018 C 
ATOM     14  C   UNL     1     -36.330  22.538   3.827  0.00  0.00    -0.029 C 
ATOM     15  C   UNL     1     -34.737  22.406   5.728  0.00  0.00    +0.029 C 
BRANCH  12  16
ATOM     16  C   UNL     1     -34.838  25.515   4.945  0.00  0.00    -0.018 C 
ATOM     17  C   UNL     1     -34.413  25.750   3.688  0.00  0.00    -0.032 C 
ATOM     18  C   UNL     1     -34.248  26.109   6.192  0.00  0.00    +0.029 C 
BRANCH  17  19
ATOM     19  C   UNL     1     -33.290  26.654   3.233  0.00  0.00    +0.021 C 
ATOM     20  C   UNL     1     -32.641  26.052   1.982  0.00  0.00    +0.005 C 
BRANCH  19  21
ATOM     21  C   UNL     1     -33.800  28.079   2.925  0.00  0.00    +0.004 C 
BRANCH  21  22
ATOM     22  C   UNL     1     -32.859  29.237   3.341  0.00  0.00    +0.000 C 
ATOM     23  C   UNL     1     -32.154  28.853   4.648  0.00  0.00    +0.000 C 
BRANCH  22  24
ATOM     24  C   UNL     1     -33.618  30.571   3.477  0.00  0.00    +0.000 C 
ATOM     25  C   UNL     1     -35.024  30.542   2.890  0.00  0.00    +0.000 C 
ENDBRANCH  22  24
ENDBRANCH  21  22
ENDBRANCH  19  21
ENDBRANCH  17  19
ENDBRANCH  12  16
ENDBRANCH   6  10
BRANCH   3  26
ATOM     26  C   UNL     1     -42.080  26.168   2.856  0.00  0.00    +0.085 C 
ATOM     27  C   UNL     1     -42.375  27.245   3.908  0.00  0.00    +0.146 C 
ATOM     28  C   UNL     1     -43.175  26.387   1.788  0.00  0.00    +0.146 C 
ATOM     29  C   UNL     1     -44.336  27.100   2.507  0.00  0.00    +0.167 C 
ATOM     30  C   UNL     1     -43.900  27.166   3.975  0.00  0.00    +0.167 C 
BRANCH  27  31
ATOM     31  O   UNL     1     -41.983  28.540   3.466  0.00  0.00    -0.381 OA
ATOM     32  H   UNL     1     -41.037  28.669   3.642  0.00  0.00    +0.210 HD
ENDBRANCH  27  31
BRANCH  28  33
ATOM     33  O   UNL     1     -43.606  25.135   1.267  0.00  0.00    -0.381 OA
ATOM     34  H   UNL     1     -43.467  25.119   0.307  0.00  0.00    +0.210 HD
ENDBRANCH  28  33
BRANCH  30  35
ATOM     35  O   UNL     1     -44.485  28.249   4.667  0.00  0.00    -0.379 OA
ATOM     36  H   UNL     1     -45.438  28.272   4.486  0.00  0.00    +0.211 HD
ENDBRANCH  30  35
BRANCH  29  37
ATOM     37  O   UNL     1     -44.466  28.408   1.956  0.00  0.00    -0.379 OA
ATOM     38  H   UNL     1     -45.374  28.723   2.081  0.00  0.00    +0.211 HD
ENDBRANCH  29  37
ENDBRANCH   3  26
BRANCH   4  39
ATOM     39  O   UNL     1     -40.037  24.807   4.112  0.00  0.00    -0.506 OA
ATOM     40  H   UNL     1     -39.739  23.934   4.276  0.00  0.00    +0.292 HD
ENDBRANCH   4  39
TORSDOF 12
ENDMDL
MODEL 3
REMARK VINA RESULT:      -6.3      2.736      4.749
REMARK  Name = 54691486
REMARK  12 active torsions:
REMARK  status: ('A' for Active; 'I' for Inactive)
REMARK    1  A    between atoms: C_3  and  C_26
REMARK    2  A    between atoms: C_4  and  O_39
REMARK    3  A    between atoms: C_6  and  C_10
REMARK    4  A    between atoms: C_12  and  C_16
REMARK    5  A    between atoms: C_17  and  C_19
REMARK    6  A    between atoms: C_19  and  C_21
REMARK    7  A    between atoms: C_21  and  C_22
REMARK    8  A    between atoms: C_22  and  C_24
REMARK    9  A    between atoms: C_27  and  O_31
REMARK   10  A    between atoms: C_28  and  O_33
REMARK   11  A    between atoms: C_29  and  O_37
REMARK   12  A    between atoms: C_30  and  O_35
REMARK                            x       y       z     vdW  Elec       q    Type
REMARK                         _______ _______ _______ _____ _____    ______ ____
ROOT
ATOM      1  O   UNL     1     -40.252  27.762  -0.478  0.00  0.00    -0.270 OA
ATOM      2  N   UNL     1     -41.827  29.234   0.395  0.00  0.00    -0.253 N 
ATOM      3  C   UNL     1     -43.032  28.650   2.372  0.00  0.00    +0.031 C 
ATOM      4  C   UNL     1     -42.307  27.388   2.418  0.00  0.00    +0.134 C 
ATOM      5  C   UNL     1     -42.762  29.506   1.374  0.00  0.00    +0.067 C 
ATOM      6  C   UNL     1     -41.385  27.072   1.489  0.00  0.00    +0.092 C 
ATOM      7  C   UNL     1     -41.095  28.043   0.375  0.00  0.00    +0.254 C 
ATOM      8  C   UNL     1     -41.596  30.221  -0.655  0.00  0.00    +0.120 C 
ENDROOT
BRANCH   6  10
ATOM      9  O   UNL     1     -40.443  25.319   2.775  0.00  0.00    -0.346 OA
ATOM     10  C   UNL     1     -40.586  25.811   1.438  0.00  0.00    +0.150 C 
ATOM     11  C   UNL     1     -41.274  24.747   0.580  0.00  0.00    +0.060 C 
ATOM     12  C   UNL     1     -39.568  24.181   2.882  0.00  0.00    +0.152 C 
ATOM     13  C   UNL     1     -39.846  23.133   1.822  0.00  0.00    -0.018 C 
ATOM     14  C   UNL     1     -40.646  23.402   0.777  0.00  0.00    -0.029 C 
ATOM     15  C   UNL     1     -39.250  21.768   2.023  0.00  0.00    +0.029 C 
BRANCH  12  16
ATOM     16  C   UNL     1     -38.144  24.647   2.905  0.00  0.00    -0.018 C 
ATOM     17  C   UNL     1     -37.465  24.699   4.068  0.00  0.00    -0.032 C 
ATOM     18  C   UNL     1     -37.598  25.026   1.558  0.00  0.00    +0.029 C 
BRANCH  17  19
ATOM     19  C   UNL     1     -36.031  25.115   4.297  0.00  0.00    +0.021 C 
ATOM     20  C   UNL     1     -35.937  25.875   5.625  0.00  0.00    +0.005 C 
BRANCH  19  21
ATOM     21  C   UNL     1     -35.084  23.894   4.325  0.00  0.00    +0.004 C 
BRANCH  21  22
ATOM     22  C   UNL     1     -35.743  22.537   4.675  0.00  0.00    +0.000 C 
ATOM     23  C   UNL     1     -35.155  22.032   6.000  0.00  0.00    +0.000 C 
BRANCH  22  24
ATOM     24  C   UNL     1     -35.562  21.504   3.546  0.00  0.00    +0.000 C 
ATOM     25  C   UNL     1     -35.319  22.126   2.177  0.00  0.00    +0.000 C 
ENDBRANCH  22  24
ENDBRANCH  21  22
ENDBRANCH  19  21
ENDBRANCH  17  19
ENDBRANCH  12  16
ENDBRANCH   6  10
BRANCH   3  26
ATOM     26  C   UNL     1     -44.047  28.960   3.424  0.00  0.00    +0.085 C 
ATOM     27  C   UNL     1     -43.580  28.706   4.864  0.00  0.00    +0.146 C 
ATOM     28  C   UNL     1     -44.486  30.441   3.435  0.00  0.00    +0.146 C 
ATOM     29  C   UNL     1     -44.825  30.775   4.900  0.00  0.00    +0.167 C 
ATOM     30  C   UNL     1     -44.663  29.447   5.648  0.00  0.00    +0.167 C 
BRANCH  27  31
ATOM     31  O   UNL     1     -42.312  29.301   5.123  0.00  0.00    -0.381 OA
ATOM     32  H   UNL     1     -41.781  29.296   4.311  0.00  0.00    +0.210 HD
ENDBRANCH  27  31
BRANCH  28  33
ATOM     33  O   UNL     1     -45.630  30.618   2.608  0.00  0.00    -0.381 OA
ATOM     34  H   UNL     1     -46.072  29.764   2.481  0.00  0.00    +0.210 HD
ENDBRANCH  28  33
BRANCH  30  35
ATOM     35  O   UNL     1     -44.343  29.624   7.011  0.00  0.00    -0.379 OA
ATOM     36  H   UNL     1     -44.749  30.444   7.335  0.00  0.00    +0.211 HD
ENDBRANCH  30  35
BRANCH  29  37
ATOM     37  O   UNL     1     -43.883  31.738   5.367  0.00  0.00    -0.379 OA
ATOM     38  H   UNL     1     -43.098  31.282   5.710  0.00  0.00    +0.211 HD
ENDBRANCH  29  37
ENDBRANCH   3  26
BRANCH   4  39
ATOM     39  O   UNL     1     -42.655  26.580   3.479  0.00  0.00    -0.506 OA
ATOM     40  H   UNL     1     -43.354  25.963   3.389  0.00  0.00    +0.292 HD
ENDBRANCH   4  39
TORSDOF 12
ENDMDL
MODEL 4
REMARK VINA RESULT:      -6.3      4.149      8.594
REMARK  Name = 54691486
REMARK  12 active torsions:
REMARK  status: ('A' for Active; 'I' for Inactive)
REMARK    1  A    between atoms: C_3  and  C_26
REMARK    2  A    between atoms: C_4  and  O_39
REMARK    3  A    between atoms: C_6  and  C_10
REMARK    4  A    between atoms: C_12  and  C_16
REMARK    5  A    between atoms: C_17  and  C_19
REMARK    6  A    between atoms: C_19  and  C_21
REMARK    7  A    between atoms: C_21  and  C_22
REMARK    8  A    between atoms: C_22  and  C_24
REMARK    9  A    between atoms: C_27  and  O_31
REMARK   10  A    between atoms: C_28  and  O_33
REMARK   11  A    between atoms: C_29  and  O_37
REMARK   12  A    between atoms: C_30  and  O_35
REMARK                            x       y       z     vdW  Elec       q    Type
REMARK                         _______ _______ _______ _____ _____    ______ ____
ROOT
ATOM      1  O   UNL     1     -32.983  24.921   0.768  0.00  0.00    -0.270 OA
ATOM      2  N   UNL     1     -31.738  26.582   1.815  0.00  0.00    -0.253 N 
ATOM      3  C   UNL     1     -32.652  27.754   3.684  0.00  0.00    +0.031 C 
ATOM      4  C   UNL     1     -33.864  26.955   3.566  0.00  0.00    +0.134 C 
ATOM      5  C   UNL     1     -31.656  27.534   2.813  0.00  0.00    +0.067 C 
ATOM      6  C   UNL     1     -33.997  26.015   2.613  0.00  0.00    +0.092 C 
ATOM      7  C   UNL     1     -32.869  25.781   1.642  0.00  0.00    +0.254 C 
ATOM      8  C   UNL     1     -30.606  26.409   0.910  0.00  0.00    +0.120 C 
ENDROOT
BRANCH   6  10
ATOM      9  O   UNL     1     -35.767  24.855   3.680  0.00  0.00    -0.346 OA
ATOM     10  C   UNL     1     -35.191  25.141   2.400  0.00  0.00    +0.150 C 
ATOM     11  C   UNL     1     -36.236  25.828   1.519  0.00  0.00    +0.060 C 
ATOM     12  C   UNL     1     -36.844  23.902   3.629  0.00  0.00    +0.152 C 
ATOM     13  C   UNL     1     -37.830  24.198   2.515  0.00  0.00    -0.018 C 
ATOM     14  C   UNL     1     -37.543  25.099   1.560  0.00  0.00    -0.029 C 
ATOM     15  C   UNL     1     -39.159  23.500   2.561  0.00  0.00    +0.029 C 
BRANCH  12  16
ATOM     16  C   UNL     1     -36.280  22.514   3.576  0.00  0.00    -0.018 C 
ATOM     17  C   UNL     1     -36.478  21.742   2.489  0.00  0.00    -0.032 C 
ATOM     18  C   UNL     1     -35.514  22.115   4.804  0.00  0.00    +0.029 C 
BRANCH  17  19
ATOM     19  C   UNL     1     -35.978  20.339   2.235  0.00  0.00    +0.021 C 
ATOM     20  C   UNL     1     -36.525  19.850   0.889  0.00  0.00    +0.005 C 
BRANCH  19  21
ATOM     21  C   UNL     1     -34.434  20.280   2.225  0.00  0.00    +0.004 C 
BRANCH  21  22
ATOM     22  C   UNL     1     -33.791  19.634   0.974  0.00  0.00    +0.000 C 
ATOM     23  C   UNL     1     -32.982  18.406   1.413  0.00  0.00    +0.000 C 
BRANCH  22  24
ATOM     24  C   UNL     1     -32.918  20.638   0.195  0.00  0.00    +0.000 C 
ATOM     25  C   UNL     1     -31.506  20.138  -0.083  0.00  0.00    +0.000 C 
ENDBRANCH  22  24
ENDBRANCH  21  22
ENDBRANCH  19  21
ENDBRANCH  17  19
ENDBRANCH  12  16
ENDBRANCH   6  10
BRANCH   3  26
ATOM     26  C   UNL     1     -32.547  28.787   4.758  0.00  0.00    +0.085 C 
ATOM     27  C   UNL     1     -31.852  28.313   6.042  0.00  0.00    +0.146 C 
ATOM     28  C   UNL     1     -31.731  30.030   4.335  0.00  0.00    +0.146 C 
ATOM     29  C   UNL     1     -31.056  30.553   5.618  0.00  0.00    +0.167 C 
ATOM     30  C   UNL     1     -31.593  29.651   6.734  0.00  0.00    +0.167 C 
BRANCH  27  31
ATOM     31  O   UNL     1     -30.612  27.669   5.767  0.00  0.00    -0.381 OA
ATOM     32  H   UNL     1     -29.954  27.943   6.425  0.00  0.00    +0.210 HD
ENDBRANCH  27  31
BRANCH  28  33
ATOM     33  O   UNL     1     -32.597  31.020   3.791  0.00  0.00    -0.381 OA
ATOM     34  H   UNL     1     -33.080  31.457   4.509  0.00  0.00    +0.210 HD
ENDBRANCH  28  33
BRANCH  30  35
ATOM     35  O   UNL     1     -30.705  29.551   7.827  0.00  0.00    -0.379 OA
ATOM     36  H   UNL     1     -30.142  28.769   7.716  0.00  0.00    +0.211 HD
ENDBRANCH  30  35
BRANCH  29  37
ATOM     37  O   UNL     1     -29.646  30.398   5.473  0.00  0.00    -0.379 OA
ATOM     38  H   UNL     1     -29.401  29.479   5.662  0.00  0.00    +0.211 HD
ENDBRANCH  29  37
ENDBRANCH   3  26
BRANCH   4  39
ATOM     39  O   UNL     1     -34.826  27.256   4.507  0.00  0.00    -0.506 OA
ATOM     40  H   UNL     1     -34.578  27.645   5.322  0.00  0.00    +0.292 HD
ENDBRANCH   4  39
TORSDOF 12
ENDMDL
MODEL 5
REMARK VINA RESULT:      -5.8      5.606      8.325
REMARK  Name = 54691486
REMARK  12 active torsions:
REMARK  status: ('A' for Active; 'I' for Inactive)
REMARK    1  A    between atoms: C_3  and  C_26
REMARK    2  A    between atoms: C_4  and  O_39
REMARK    3  A    between atoms: C_6  and  C_10
REMARK    4  A    between atoms: C_12  and  C_16
REMARK    5  A    between atoms: C_17  and  C_19
REMARK    6  A    between atoms: C_19  and  C_21
REMARK    7  A    between atoms: C_21  and  C_22
REMARK    8  A    between atoms: C_22  and  C_24
REMARK    9  A    between atoms: C_27  and  O_31
REMARK   10  A    between atoms: C_28  and  O_33
REMARK   11  A    between atoms: C_29  and  O_37
REMARK   12  A    between atoms: C_30  and  O_35
REMARK                            x       y       z     vdW  Elec       q    Type
REMARK                         _______ _______ _______ _____ _____    ______ ____
ROOT
ATOM      1  O   UNL     1     -35.582  22.336  -1.747  0.00  0.00    -0.270 OA
ATOM      2  N   UNL     1     -35.981  24.001  -0.174  0.00  0.00    -0.253 N 
ATOM      3  C   UNL     1     -35.775  23.512   2.155  0.00  0.00    +0.031 C 
ATOM      4  C   UNL     1     -35.417  22.142   1.814  0.00  0.00    +0.134 C 
ATOM      5  C   UNL     1     -36.038  24.369   1.157  0.00  0.00    +0.067 C 
ATOM      6  C   UNL     1     -35.346  21.730   0.535  0.00  0.00    +0.092 C 
ATOM      7  C   UNL     1     -35.645  22.705  -0.574  0.00  0.00    +0.254 C 
ATOM      8  C   UNL     1     -36.283  24.999  -1.195  0.00  0.00    +0.120 C 
ENDROOT
BRANCH   6  10
ATOM      9  O   UNL     1     -34.051  19.801   1.000  0.00  0.00    -0.346 OA
ATOM     10  C   UNL     1     -34.991  20.354   0.072  0.00  0.00    +0.150 C 
ATOM     11  C   UNL     1     -36.224  19.451   0.006  0.00  0.00    +0.060 C 
ATOM     12  C   UNL     1     -33.515  18.529   0.592  0.00  0.00    +0.152 C 
ATOM     13  C   UNL     1     -34.589  17.578   0.099  0.00  0.00    -0.018 C 
ATOM     14  C   UNL     1     -35.835  18.014  -0.151  0.00  0.00    -0.029 C 
ATOM     15  C   UNL     1     -34.224  16.127  -0.032  0.00  0.00    +0.029 C 
BRANCH  12  16
ATOM     16  C   UNL     1     -32.409  18.747  -0.395  0.00  0.00    -0.018 C 
ATOM     17  C   UNL     1     -31.190  19.138   0.028  0.00  0.00    -0.032 C 
ATOM     18  C   UNL     1     -32.799  18.492  -1.823  0.00  0.00    +0.029 C 
BRANCH  17  19
ATOM     19  C   UNL     1     -29.949  19.387  -0.797  0.00  0.00    +0.021 C 
ATOM     20  C   UNL     1     -29.612  20.882  -0.753  0.00  0.00    +0.005 C 
BRANCH  19  21
ATOM     21  C   UNL     1     -28.749  18.564  -0.279  0.00  0.00    +0.004 C 
BRANCH  21  22
ATOM     22  C   UNL     1     -29.079  17.480   0.776  0.00  0.00    +0.000 C 
ATOM     23  C   UNL     1     -28.083  17.601   1.936  0.00  0.00    +0.000 C 
BRANCH  22  24
ATOM     24  C   UNL     1     -29.068  16.064   0.165  0.00  0.00    +0.000 C 
ATOM     25  C   UNL     1     -30.445  15.562  -0.249  0.00  0.00    +0.000 C 
ENDBRANCH  22  24
ENDBRANCH  21  22
ENDBRANCH  19  21
ENDBRANCH  17  19
ENDBRANCH  12  16
ENDBRANCH   6  10
BRANCH   3  26
ATOM     26  C   UNL     1     -35.841  23.926   3.588  0.00  0.00    +0.085 C 
ATOM     27  C   UNL     1     -34.504  24.379   4.190  0.00  0.00    +0.146 C 
ATOM     28  C   UNL     1     -36.782  25.126   3.837  0.00  0.00    +0.146 C 
ATOM     29  C   UNL     1     -36.184  25.898   5.029  0.00  0.00    +0.167 C 
ATOM     30  C   UNL     1     -34.985  25.054   5.475  0.00  0.00    +0.167 C 
BRANCH  27  31
ATOM     31  O   UNL     1     -33.849  25.337   3.365  0.00  0.00    -0.381 OA
ATOM     32  H   UNL     1     -33.001  25.584   3.767  0.00  0.00    +0.210 HD
ENDBRANCH  27  31
BRANCH  28  33
ATOM     33  O   UNL     1     -38.090  24.663   4.153  0.00  0.00    -0.381 OA
ATOM     34  H   UNL     1     -38.723  25.019   3.511  0.00  0.00    +0.210 HD
ENDBRANCH  28  33
BRANCH  30  35
ATOM     35  O   UNL     1     -33.985  25.821   6.110  0.00  0.00    -0.379 OA
ATOM     36  H   UNL     1     -33.704  26.538   5.521  0.00  0.00    +0.211 HD
ENDBRANCH  30  35
BRANCH  29  37
ATOM     37  O   UNL     1     -35.758  27.176   4.563  0.00  0.00    -0.379 OA
ATOM     38  H   UNL     1     -35.164  27.063   3.806  0.00  0.00    +0.211 HD
ENDBRANCH  29  37
ENDBRANCH   3  26
BRANCH   4  39
ATOM     39  O   UNL     1     -35.165  21.341   2.908  0.00  0.00    -0.506 OA
ATOM     40  H   UNL     1     -35.857  20.835   3.287  0.00  0.00    +0.292 HD
ENDBRANCH   4  39
TORSDOF 12
ENDMDL
MODEL 6
REMARK VINA RESULT:      -5.8      4.325      8.032
REMARK  Name = 54691486
REMARK  12 active torsions:
REMARK  status: ('A' for Active; 'I' for Inactive)
REMARK    1  A    between atoms: C_3  and  C_26
REMARK    2  A    between atoms: C_4  and  O_39
REMARK    3  A    between atoms: C_6  and  C_10
REMARK    4  A    between atoms: C_12  and  C_16
REMARK    5  A    between atoms: C_17  and  C_19
REMARK    6  A    between atoms: C_19  and  C_21
REMARK    7  A    between atoms: C_21  and  C_22
REMARK    8  A    between atoms: C_22  and  C_24
REMARK    9  A    between atoms: C_27  and  O_31
REMARK   10  A    between atoms: C_28  and  O_33
REMARK   11  A    between atoms: C_29  and  O_37
REMARK   12  A    between atoms: C_30  and  O_35
REMARK                            x       y       z     vdW  Elec       q    Type
REMARK                         _______ _______ _______ _____ _____    ______ ____
ROOT
ATOM      1  O   UNL     1     -38.166  28.767  -0.281  0.00  0.00    -0.270 OA
ATOM      2  N   UNL     1     -38.038  26.615   0.590  0.00  0.00    -0.253 N 
ATOM      3  C   UNL     1     -36.259  26.037   2.075  0.00  0.00    +0.031 C 
ATOM      4  C   UNL     1     -35.743  27.394   1.953  0.00  0.00    +0.134 C 
ATOM      5  C   UNL     1     -37.370  25.713   1.395  0.00  0.00    +0.067 C 
ATOM      6  C   UNL     1     -36.355  28.312   1.181  0.00  0.00    +0.092 C 
ATOM      7  C   UNL     1     -37.600  27.932   0.425  0.00  0.00    +0.254 C 
ATOM      8  C   UNL     1     -39.239  26.178  -0.114  0.00  0.00    +0.120 C 
ENDROOT
BRANCH   6  10
ATOM      9  O   UNL     1     -36.415  30.506   2.076  0.00  0.00    -0.346 OA
ATOM     10  C   UNL     1     -35.915  29.726   0.983  0.00  0.00    +0.150 C 
ATOM     11  C   UNL     1     -34.390  29.837   0.942  0.00  0.00    +0.060 C 
ATOM     12  C   UNL     1     -36.182  31.920   1.932  0.00  0.00    +0.152 C 
ATOM     13  C   UNL     1     -34.764  32.233   1.495  0.00  0.00    -0.018 C 
ATOM     14  C   UNL     1     -33.946  31.262   1.057  0.00  0.00    -0.029 C 
ATOM     15  C   UNL     1     -34.293  33.652   1.635  0.00  0.00    +0.029 C 
BRANCH  12  16
ATOM     16  C   UNL     1     -37.230  32.508   1.036  0.00  0.00    -0.018 C 
ATOM     17  C   UNL     1     -38.504  32.617   1.462  0.00  0.00    -0.032 C 
ATOM     18  C   UNL     1     -36.718  32.936  -0.310  0.00  0.00    +0.029 C 
BRANCH  17  19
ATOM     19  C   UNL     1     -39.690  33.196   0.727  0.00  0.00    +0.021 C 
ATOM     20  C   UNL     1     -40.687  32.072   0.423  0.00  0.00    +0.005 C 
BRANCH  19  21
ATOM     21  C   UNL     1     -40.384  34.302   1.553  0.00  0.00    +0.004 C 
BRANCH  21  22
ATOM     22  C   UNL     1     -39.936  35.753   1.249  0.00  0.00    +0.000 C 
ATOM     23  C   UNL     1     -39.865  35.938  -0.273  0.00  0.00    +0.000 C 
BRANCH  22  24
ATOM     24  C   UNL     1     -38.592  36.091   1.923  0.00  0.00    +0.000 C 
ATOM     25  C   UNL     1     -37.478  36.429   0.940  0.00  0.00    +0.000 C 
ENDBRANCH  22  24
ENDBRANCH  21  22
ENDBRANCH  19  21
ENDBRANCH  17  19
ENDBRANCH  12  16
ENDBRANCH   6  10
BRANCH   3  26
ATOM     26  C   UNL     1     -35.549  25.050   2.942  0.00  0.00    +0.085 C 
ATOM     27  C   UNL     1     -36.077  24.959   4.380  0.00  0.00    +0.146 C 
ATOM     28  C   UNL     1     -35.644  23.598   2.422  0.00  0.00    +0.146 C 
ATOM     29  C   UNL     1     -35.624  22.695   3.671  0.00  0.00    +0.167 C 
ATOM     30  C   UNL     1     -35.416  23.661   4.843  0.00  0.00    +0.167 C 
BRANCH  27  31
ATOM     31  O   UNL     1     -37.493  24.813   4.417  0.00  0.00    -0.381 OA
ATOM     32  H   UNL     1     -37.739  23.952   4.042  0.00  0.00    +0.210 HD
ENDBRANCH  27  31
BRANCH  28  33
ATOM     33  O   UNL     1     -34.534  23.306   1.582  0.00  0.00    -0.381 OA
ATOM     34  H   UNL     1     -34.764  22.582   0.980  0.00  0.00    +0.210 HD
ENDBRANCH  28  33
BRANCH  30  35
ATOM     35  O   UNL     1     -35.946  23.167   6.056  0.00  0.00    -0.379 OA
ATOM     36  H   UNL     1     -35.467  22.364   6.314  0.00  0.00    +0.211 HD
ENDBRANCH  30  35
BRANCH  29  37
ATOM     37  O   UNL     1     -36.887  22.042   3.769  0.00  0.00    -0.379 OA
ATOM     38  H   UNL     1     -37.548  22.541   3.266  0.00  0.00    +0.211 HD
ENDBRANCH  29  37
ENDBRANCH   3  26
BRANCH   4  39
ATOM     39  O   UNL     1     -34.601  27.626   2.689  0.00  0.00    -0.506 OA
ATOM     40  H   UNL     1     -33.834  27.110   2.538  0.00  0.00    +0.292 HD
ENDBRANCH   4  39
TORSDOF 12
ENDMDL
MODEL 7
REMARK VINA RESULT:      -5.8      2.542      9.566
REMARK  Name = 54691486
REMARK  12 active torsions:
REMARK  status: ('A' for Active; 'I' for Inactive)
REMARK    1  A    between atoms: C_3  and  C_26
REMARK    2  A    between atoms: C_4  and  O_39
REMARK    3  A    between atoms: C_6  and  C_10
REMARK    4  A    between atoms: C_12  and  C_16
REMARK    5  A    between atoms: C_17  and  C_19
REMARK    6  A    between atoms: C_19  and  C_21
REMARK    7  A    between atoms: C_21  and  C_22
REMARK    8  A    between atoms: C_22  and  C_24
REMARK    9  A    between atoms: C_27  and  O_31
REMARK   10  A    between atoms: C_28  and  O_33
REMARK   11  A    between atoms: C_29  and  O_37
REMARK   12  A    between atoms: C_30  and  O_35
REMARK                            x       y       z     vdW  Elec       q    Type
REMARK                         _______ _______ _______ _____ _____    ______ ____
ROOT
ATOM      1  O   UNL     1     -41.209  23.352   1.217  0.00  0.00    -0.270 OA
ATOM      2  N   UNL     1     -39.020  22.908   1.862  0.00  0.00    -0.253 N 
ATOM      3  C   UNL     1     -37.569  24.706   2.464  0.00  0.00    +0.031 C 
ATOM      4  C   UNL     1     -38.654  25.642   2.204  0.00  0.00    +0.134 C 
ATOM      5  C   UNL     1     -37.798  23.397   2.283  0.00  0.00    +0.067 C 
ATOM      6  C   UNL     1     -39.864  25.220   1.792  0.00  0.00    +0.092 C 
ATOM      7  C   UNL     1     -40.105  23.746   1.593  0.00  0.00    +0.254 C 
ATOM      8  C   UNL     1     -39.182  21.468   1.690  0.00  0.00    +0.120 C 
ENDROOT
BRANCH   6  10
ATOM      9  O   UNL     1     -41.280  26.922   2.636  0.00  0.00    -0.346 OA
ATOM     10  C   UNL     1     -41.044  26.087   1.496  0.00  0.00    +0.150 C 
ATOM     11  C   UNL     1     -40.797  26.967   0.269  0.00  0.00    +0.060 C 
ATOM     12  C   UNL     1     -42.482  27.709   2.537  0.00  0.00    +0.152 C 
ATOM     13  C   UNL     1     -42.625  28.384   1.187  0.00  0.00    -0.018 C 
ATOM     14  C   UNL     1     -41.832  28.044   0.157  0.00  0.00    -0.029 C 
ATOM     15  C   UNL     1     -43.636  29.488   1.067  0.00  0.00    +0.029 C 
BRANCH  12  16
ATOM     16  C   UNL     1     -43.662  26.865   2.914  0.00  0.00    -0.018 C 
ATOM     17  C   UNL     1     -44.298  27.072   4.084  0.00  0.00    -0.032 C 
ATOM     18  C   UNL     1     -44.027  25.826   1.892  0.00  0.00    +0.029 C 
BRANCH  17  19
ATOM     19  C   UNL     1     -45.509  26.352   4.631  0.00  0.00    +0.021 C 
ATOM     20  C   UNL     1     -45.609  26.617   6.137  0.00  0.00    +0.005 C 
BRANCH  19  21
ATOM     21  C   UNL     1     -46.807  26.812   3.930  0.00  0.00    +0.004 C 
BRANCH  21  22
ATOM     22  C   UNL     1     -47.755  25.683   3.458  0.00  0.00    +0.000 C 
ATOM     23  C   UNL     1     -49.020  25.705   4.327  0.00  0.00    +0.000 C 
BRANCH  22  24
ATOM     24  C   UNL     1     -47.067  24.304   3.495  0.00  0.00    +0.000 C 
ATOM     25  C   UNL     1     -47.971  23.178   3.982  0.00  0.00    +0.000 C 
ENDBRANCH  22  24
ENDBRANCH  21  22
ENDBRANCH  19  21
ENDBRANCH  17  19
ENDBRANCH  12  16
ENDBRANCH   6  10
BRANCH   3  26
ATOM     26  C   UNL     1     -36.242  25.219   2.920  0.00  0.00    +0.085 C 
ATOM     27  C   UNL     1     -36.252  25.894   4.298  0.00  0.00    +0.146 C 
ATOM     28  C   UNL     1     -35.172  24.112   3.060  0.00  0.00    +0.146 C 
ATOM     29  C   UNL     1     -34.240  24.562   4.202  0.00  0.00    +0.167 C 
ATOM     30  C   UNL     1     -34.754  25.951   4.597  0.00  0.00    +0.167 C 
BRANCH  27  31
ATOM     31  O   UNL     1     -36.904  25.092   5.278  0.00  0.00    -0.381 OA
ATOM     32  H   UNL     1     -36.252  24.523   5.716  0.00  0.00    +0.210 HD
ENDBRANCH  27  31
BRANCH  28  33
ATOM     33  O   UNL     1     -34.443  23.982   1.846  0.00  0.00    -0.381 OA
ATOM     34  H   UNL     1     -35.057  24.002   1.096  0.00  0.00    +0.210 HD
ENDBRANCH  28  33
BRANCH  30  35
ATOM     35  O   UNL     1     -34.464  26.276   5.940  0.00  0.00    -0.379 OA
ATOM     36  H   UNL     1     -33.504  26.273   6.074  0.00  0.00    +0.211 HD
ENDBRANCH  30  35
BRANCH  29  37
ATOM     37  O   UNL     1     -34.382  23.642   5.281  0.00  0.00    -0.379 OA
ATOM     38  H   UNL     1     -34.843  22.848   4.971  0.00  0.00    +0.211 HD
ENDBRANCH  29  37
ENDBRANCH   3  26
BRANCH   4  39
ATOM     39  O   UNL     1     -38.319  26.962   2.420  0.00  0.00    -0.506 OA
ATOM     40  H   UNL     1     -38.087  27.510   1.697  0.00  0.00    +0.292 HD
ENDBRANCH   4  39
TORSDOF 12
ENDMDL
MODEL 8
REMARK VINA RESULT:      -5.7      3.862      9.023
REMARK  Name = 54691486
REMARK  12 active torsions:
REMARK  status: ('A' for Active; 'I' for Inactive)
REMARK    1  A    between atoms: C_3  and  C_26
REMARK    2  A    between atoms: C_4  and  O_39
REMARK    3  A    between atoms: C_6  and  C_10
REMARK    4  A    between atoms: C_12  and  C_16
REMARK    5  A    between atoms: C_17  and  C_19
REMARK    6  A    between atoms: C_19  and  C_21
REMARK    7  A    between atoms: C_21  and  C_22
REMARK    8  A    between atoms: C_22  and  C_24
REMARK    9  A    between atoms: C_27  and  O_31
REMARK   10  A    between atoms: C_28  and  O_33
REMARK   11  A    between atoms: C_29  and  O_37
REMARK   12  A    between atoms: C_30  and  O_35
REMARK                            x       y       z     vdW  Elec       q    Type
REMARK                         _______ _______ _______ _____ _____    ______ ____
ROOT
ATOM      1  O   UNL     1     -35.603  28.708   2.412  0.00  0.00    -0.270 OA
ATOM      2  N   UNL     1     -33.837  30.120   2.953  0.00  0.00    -0.253 N 
ATOM      3  C   UNL     1     -32.035  29.310   4.295  0.00  0.00    +0.031 C 
ATOM      4  C   UNL     1     -32.695  28.014   4.364  0.00  0.00    +0.134 C 
ATOM      5  C   UNL     1     -32.629  30.293   3.602  0.00  0.00    +0.067 C 
ATOM      6  C   UNL     1     -33.873  27.791   3.751  0.00  0.00    +0.092 C 
ATOM      7  C   UNL     1     -34.526  28.905   2.976  0.00  0.00    +0.254 C 
ATOM      8  C   UNL     1     -34.412  31.244   2.221  0.00  0.00    +0.120 C 
ENDROOT
BRANCH   6  10
ATOM      9  O   UNL     1     -33.718  25.442   3.483  0.00  0.00    -0.346 OA
ATOM     10  C   UNL     1     -34.636  26.506   3.755  0.00  0.00    +0.150 C 
ATOM     11  C   UNL     1     -35.308  26.260   5.107  0.00  0.00    +0.060 C 
ATOM     12  C   UNL     1     -34.352  24.160   3.316  0.00  0.00    +0.152 C 
ATOM     13  C   UNL     1     -35.385  23.879   4.390  0.00  0.00    -0.018 C 
ATOM     14  C   UNL     1     -35.803  24.851   5.217  0.00  0.00    -0.029 C 
ATOM     15  C   UNL     1     -35.868  22.464   4.535  0.00  0.00    +0.029 C 
BRANCH  12  16
ATOM     16  C   UNL     1     -34.891  24.047   1.922  0.00  0.00    -0.018 C 
ATOM     17  C   UNL     1     -36.158  23.638   1.715  0.00  0.00    -0.032 C 
ATOM     18  C   UNL     1     -33.907  24.424   0.851  0.00  0.00    +0.029 C 
BRANCH  17  19
ATOM     19  C   UNL     1     -36.888  23.483   0.401  0.00  0.00    +0.021 C 
ATOM     20  C   UNL     1     -36.408  22.201  -0.288  0.00  0.00    +0.005 C 
BRANCH  19  21
ATOM     21  C   UNL     1     -38.418  23.425   0.607  0.00  0.00    +0.004 C 
BRANCH  21  22
ATOM     22  C   UNL     1     -38.894  22.980   2.011  0.00  0.00    +0.000 C 
ATOM     23  C   UNL     1     -39.678  21.668   1.874  0.00  0.00    +0.000 C 
BRANCH  22  24
ATOM     24  C   UNL     1     -39.734  24.072   2.703  0.00  0.00    +0.000 C 
ATOM     25  C   UNL     1     -39.743  25.403   1.963  0.00  0.00    +0.000 C 
ENDBRANCH  22  24
ENDBRANCH  21  22
ENDBRANCH  19  21
ENDBRANCH  17  19
ENDBRANCH  12  16
ENDBRANCH   6  10
BRANCH   3  26
ATOM     26  C   UNL     1     -30.729  29.514   4.990  0.00  0.00    +0.085 C 
ATOM     27  C   UNL     1     -30.836  29.767   6.501  0.00  0.00    +0.146 C 
ATOM     28  C   UNL     1     -29.782  28.297   4.887  0.00  0.00    +0.146 C 
ATOM     29  C   UNL     1     -28.949  28.293   6.183  0.00  0.00    +0.167 C 
ATOM     30  C   UNL     1     -29.382  29.562   6.926  0.00  0.00    +0.167 C 
BRANCH  27  31
ATOM     31  O   UNL     1     -31.661  28.801   7.143  0.00  0.00    -0.381 OA
ATOM     32  H   UNL     1     -32.538  29.183   7.307  0.00  0.00    +0.210 HD
ENDBRANCH  27  31
BRANCH  28  33
ATOM     33  O   UNL     1     -28.934  28.434   3.753  0.00  0.00    -0.381 OA
ATOM     34  H   UNL     1     -29.095  27.701   3.138  0.00  0.00    +0.210 HD
ENDBRANCH  28  33
BRANCH  30  35
ATOM     35  O   UNL     1     -29.219  29.456   8.324  0.00  0.00    -0.379 OA
ATOM     36  H   UNL     1     -28.984  30.324   8.689  0.00  0.00    +0.211 HD
ENDBRANCH  30  35
BRANCH  29  37
ATOM     37  O   UNL     1     -29.291  27.127   6.929  0.00  0.00    -0.379 OA
ATOM     38  H   UNL     1     -28.904  26.347   6.504  0.00  0.00    +0.211 HD
ENDBRANCH  29  37
ENDBRANCH   3  26
BRANCH   4  39
ATOM     39  O   UNL     1     -32.006  27.073   5.098  0.00  0.00    -0.506 OA
ATOM     40  H   UNL     1     -31.713  27.278   5.964  0.00  0.00    +0.292 HD
ENDBRANCH   4  39
TORSDOF 12
ENDMDL
MODEL 9
REMARK VINA RESULT:      -5.7      1.204      2.133
REMARK  Name = 54691486
REMARK  12 active torsions:
REMARK  status: ('A' for Active; 'I' for Inactive)
REMARK    1  A    between atoms: C_3  and  C_26
REMARK    2  A    between atoms: C_4  and  O_39
REMARK    3  A    between atoms: C_6  and  C_10
REMARK    4  A    between atoms: C_12  and  C_16
REMARK    5  A    between atoms: C_17  and  C_19
REMARK    6  A    between atoms: C_19  and  C_21
REMARK    7  A    between atoms: C_21  and  C_22
REMARK    8  A    between atoms: C_22  and  C_24
REMARK    9  A    between atoms: C_27  and  O_31
REMARK   10  A    between atoms: C_28  and  O_33
REMARK   11  A    between atoms: C_29  and  O_37
REMARK   12  A    between atoms: C_30  and  O_35
REMARK                            x       y       z     vdW  Elec       q    Type
REMARK                         _______ _______ _______ _____ _____    ______ ____
ROOT
ATOM      1  O   UNL     1     -37.419  26.054   0.424  0.00  0.00    -0.270 OA
ATOM      2  N   UNL     1     -39.626  26.783   0.450  0.00  0.00    -0.253 N 
ATOM      3  C   UNL     1     -41.018  26.295   2.329  0.00  0.00    +0.031 C 
ATOM      4  C   UNL     1     -39.899  25.601   2.951  0.00  0.00    +0.134 C 
ATOM      5  C   UNL     1     -40.833  26.848   1.120  0.00  0.00    +0.067 C 
ATOM      6  C   UNL     1     -38.702  25.508   2.343  0.00  0.00    +0.092 C 
ATOM      7  C   UNL     1     -38.511  26.134   0.986  0.00  0.00    +0.254 C 
ATOM      8  C   UNL     1     -39.513  27.412  -0.862  0.00  0.00    +0.120 C 
ENDROOT
BRANCH   6  10
ATOM      9  O   UNL     1     -37.356  25.183   4.266  0.00  0.00    -0.346 OA
ATOM     10  C   UNL     1     -37.491  24.823   2.887  0.00  0.00    +0.150 C 
ATOM     11  C   UNL     1     -37.611  23.302   2.773  0.00  0.00    +0.060 C 
ATOM     12  C   UNL     1     -36.143  24.702   4.874  0.00  0.00    +0.152 C 
ATOM     13  C   UNL     1     -35.865  23.248   4.545  0.00  0.00    -0.018 C 
ATOM     14  C   UNL     1     -36.560  22.613   3.587  0.00  0.00    -0.029 C 
ATOM     15  C   UNL     1     -34.836  22.534   5.374  0.00  0.00    +0.029 C 
BRANCH  12  16
ATOM     16  C   UNL     1     -35.012  25.623   4.526  0.00  0.00    -0.018 C 
ATOM     17  C   UNL     1     -34.692  25.847   3.236  0.00  0.00    -0.032 C 
ATOM     18  C   UNL     1     -34.323  26.228   5.716  0.00  0.00    +0.029 C 
BRANCH  17  19
ATOM     19  C   UNL     1     -33.612  26.747   2.683  0.00  0.00    +0.021 C 
ATOM     20  C   UNL     1     -32.268  26.015   2.750  0.00  0.00    +0.005 C 
BRANCH  19  21
ATOM     21  C   UNL     1     -33.912  27.161   1.225  0.00  0.00    +0.004 C 
BRANCH  21  22
ATOM     22  C   UNL     1     -33.250  26.293   0.127  0.00  0.00    +0.000 C 
ATOM     23  C   UNL     1     -32.729  27.215  -0.983  0.00  0.00    +0.000 C 
BRANCH  22  24
ATOM     24  C   UNL     1     -34.221  25.232  -0.427  0.00  0.00    +0.000 C 
ATOM     25  C   UNL     1     -34.080  23.865   0.231  0.00  0.00    +0.000 C 
ENDBRANCH  22  24
ENDBRANCH  21  22
ENDBRANCH  19  21
ENDBRANCH  17  19
ENDBRANCH  12  16
ENDBRANCH   6  10
BRANCH   3  26
ATOM     26  C   UNL     1     -42.329  26.374   3.039  0.00  0.00    +0.085 C 
ATOM     27  C   UNL     1     -42.461  27.549   4.018  0.00  0.00    +0.146 C 
ATOM     28  C   UNL     1     -43.533  26.552   2.087  0.00  0.00    +0.146 C 
ATOM     29  C   UNL     1     -44.577  27.374   2.868  0.00  0.00    +0.167 C 
ATOM     30  C   UNL     1     -43.970  27.545   4.264  0.00  0.00    +0.167 C 
BRANCH  27  31
ATOM     31  O   UNL     1     -42.078  28.783   3.420  0.00  0.00    -0.381 OA
ATOM     32  H   UNL     1     -41.200  28.689   3.019  0.00  0.00    +0.210 HD
ENDBRANCH  27  31
BRANCH  28  33
ATOM     33  O   UNL     1     -44.067  25.281   1.733  0.00  0.00    -0.381 OA
ATOM     34  H   UNL     1     -43.779  25.048   0.837  0.00  0.00    +0.210 HD
ENDBRANCH  28  33
BRANCH  30  35
ATOM     35  O   UNL     1     -44.431  28.707   4.920  0.00  0.00    -0.379 OA
ATOM     36  H   UNL     1     -43.732  29.380   4.915  0.00  0.00    +0.211 HD
ENDBRANCH  30  35
BRANCH  29  37
ATOM     37  O   UNL     1     -44.724  28.636   2.220  0.00  0.00    -0.379 OA
ATOM     38  H   UNL     1     -45.582  29.021   2.455  0.00  0.00    +0.211 HD
ENDBRANCH  29  37
ENDBRANCH   3  26
BRANCH   4  39
ATOM     39  O   UNL     1     -40.190  25.069   4.190  0.00  0.00    -0.506 OA
ATOM     40  H   UNL     1     -40.597  24.228   4.254  0.00  0.00    +0.292 HD
ENDBRANCH   4  39
TORSDOF 12
ENDMDL
