MODEL 1
REMARK VINA RESULT:      -6.7      0.000      0.000
REMARK  Name = 5484731
REMARK  8 active torsions:
REMARK  status: ('A' for Active; 'I' for Inactive)
REMARK    1  A    between atoms: C_12  and  O_21
REMARK    2  A    between atoms: C_18  and  O_23
REMARK    3  A    between atoms: O_23  and  C_25
REMARK    4  A    between atoms: C_26  and  O_30
REMARK    5  A    between atoms: C_27  and  O_32
REMARK    6  A    between atoms: C_28  and  O_34
REMARK    7  A    between atoms: C_29  and  C_37
REMARK    8  A    between atoms: C_37  and  O_38
REMARK                            x       y       z     vdW  Elec       q    Type
REMARK                         _______ _______ _______ _____ _____    ______ ____
ROOT
ATOM      1  O   UNL     1     -40.712  25.945   1.950  0.00  0.00    -0.473 OA
ATOM      2  N   UNL     1     -43.831  23.885  -1.731  0.00  0.00    +0.387 N 
ATOM      3  C   UNL     1     -42.003  25.370  -0.034  0.00  0.00    +0.061 C 
ATOM      4  C   UNL     1     -41.898  25.374  -1.566  0.00  0.00    +0.010 C 
ATOM      5  C   UNL     1     -42.386  23.972  -2.056  0.00  0.00    -0.049 C 
ATOM      6  C   UNL     1     -41.315  26.520   0.738  0.00  0.00    +0.200 C 
ATOM      7  C   UNL     1     -43.477  25.174   0.376  0.00  0.00    -0.015 C 
ATOM      8  C   UNL     1     -41.170  24.249   0.494  0.00  0.00    +0.014 C 
ATOM      9  C   UNL     1     -41.512  22.797  -1.498  0.00  0.00    +0.006 C 
ATOM     10  C   UNL     1     -44.122  23.952  -0.296  0.00  0.00    -0.077 C 
ATOM     11  C   UNL     1     -40.964  23.024  -0.114  0.00  0.00    -0.025 C 
ATOM     12  C   UNL     1     -40.262  27.306  -0.087  0.00  0.00    +0.172 C 
ATOM     13  C   UNL     1     -40.513  25.753  -2.025  0.00  0.00    -0.030 C 
ATOM     14  C   UNL     1     -40.517  24.625   1.646  0.00  0.00    +0.168 C 
ATOM     15  C   UNL     1     -39.763  26.622  -1.333  0.00  0.00    +0.002 C 
ATOM     16  C   UNL     1     -40.153  22.108   0.557  0.00  0.00    -0.001 C 
ATOM     17  C   UNL     1     -44.499  22.749  -2.358  0.00  0.00    -0.101 C 
ATOM     18  C   UNL     1     -39.719  23.736   2.332  0.00  0.00    +0.175 C 
ATOM     19  C   UNL     1     -39.552  22.458   1.783  0.00  0.00    +0.040 C 
ATOM     20  H   UNL     1     -44.227  24.728  -2.144  0.00  0.00    -0.080 HD
ENDROOT
BRANCH  12  21
ATOM     21  O   UNL     1     -39.167  27.674   0.748  0.00  0.00    -0.377 OA
ATOM     22  H   UNL     1     -39.416  28.440   1.289  0.00  0.00    +0.211 HD
ENDBRANCH  12  21
BRANCH  18  23
ATOM     23  O   UNL     1     -39.085  24.087   3.477  0.00  0.00    -0.447 OA
BRANCH  23  25
ATOM     24  O   UNL     1     -37.068  23.201   4.244  0.00  0.00    -0.307 OA
ATOM     25  C   UNL     1     -37.664  24.206   3.428  0.00  0.00    +0.319 C 
ATOM     26  C   UNL     1     -37.289  25.598   3.937  0.00  0.00    +0.210 C 
ATOM     27  C   UNL     1     -35.772  25.758   4.045  0.00  0.00    +0.173 C 
ATOM     28  C   UNL     1     -35.137  24.577   4.780  0.00  0.00    +0.178 C 
ATOM     29  C   UNL     1     -35.646  23.255   4.219  0.00  0.00    +0.246 C 
BRANCH  26  30
ATOM     30  O   UNL     1     -37.802  26.563   3.020  0.00  0.00    -0.377 OA
ATOM     31  H   UNL     1     -37.069  27.076   2.646  0.00  0.00    +0.211 HD
ENDBRANCH  26  30
BRANCH  27  32
ATOM     32  O   UNL     1     -35.469  26.947   4.775  0.00  0.00    -0.379 OA
ATOM     33  H   UNL     1     -35.766  26.847   5.693  0.00  0.00    +0.211 HD
ENDBRANCH  27  32
BRANCH  28  34
ATOM     34  O   UNL     1     -33.721  24.630   4.613  0.00  0.00    -0.379 OA
ATOM     35  H   UNL     1     -33.433  25.556   4.592  0.00  0.00    +0.211 HD
ENDBRANCH  28  34
BRANCH  29  37
ATOM     36  O   UNL     1     -34.785  22.218   6.221  0.00  0.00    -0.247 OA
ATOM     37  C   UNL     1     -35.243  22.112   5.093  0.00  0.00    +0.344 C 
BRANCH  37  38
ATOM     38  O   UNL     1     -35.452  20.931   4.463  0.00  0.00    -0.478 OA
ATOM     39  H   UNL     1     -35.959  20.261   4.878  0.00  0.00    +0.295 HD
ENDBRANCH  37  38
ENDBRANCH  29  37
ENDBRANCH  23  25
ENDBRANCH  18  23
TORSDOF 8
ENDMDL
MODEL 2
REMARK VINA RESULT:      -6.6      4.490      7.348
REMARK  Name = 5484731
REMARK  8 active torsions:
REMARK  status: ('A' for Active; 'I' for Inactive)
REMARK    1  A    between atoms: C_12  and  O_21
REMARK    2  A    between atoms: C_18  and  O_23
REMARK    3  A    between atoms: O_23  and  C_25
REMARK    4  A    between atoms: C_26  and  O_30
REMARK    5  A    between atoms: C_27  and  O_32
REMARK    6  A    between atoms: C_28  and  O_34
REMARK    7  A    between atoms: C_29  and  C_37
REMARK    8  A    between atoms: C_37  and  O_38
REMARK                            x       y       z     vdW  Elec       q    Type
REMARK                         _______ _______ _______ _____ _____    ______ ____
ROOT
ATOM      1  O   UNL     1     -34.360  24.946   4.620  0.00  0.00    -0.473 OA
ATOM      2  N   UNL     1     -36.700  20.882   2.269  0.00  0.00    +0.387 N 
ATOM      3  C   UNL     1     -35.863  23.264   3.702  0.00  0.00    +0.061 C 
ATOM      4  C   UNL     1     -37.250  23.131   3.055  0.00  0.00    +0.010 C 
ATOM      5  C   UNL     1     -37.074  22.234   1.788  0.00  0.00    -0.049 C 
ATOM      6  C   UNL     1     -35.682  24.331   4.806  0.00  0.00    +0.200 C 
ATOM      7  C   UNL     1     -35.365  21.869   4.133  0.00  0.00    -0.015 C 
ATOM      8  C   UNL     1     -34.929  23.856   2.698  0.00  0.00    +0.014 C 
ATOM      9  C   UNL     1     -36.090  22.855   0.737  0.00  0.00    +0.006 C 
ATOM     10  C   UNL     1     -35.426  20.839   2.993  0.00  0.00    -0.077 C 
ATOM     11  C   UNL     1     -34.956  23.647   1.331  0.00  0.00    -0.025 C 
ATOM     12  C   UNL     1     -36.797  25.411   4.843  0.00  0.00    +0.172 C 
ATOM     13  C   UNL     1     -37.869  24.480   2.790  0.00  0.00    -0.030 C 
ATOM     14  C   UNL     1     -34.071  24.750   3.297  0.00  0.00    +0.168 C 
ATOM     15  C   UNL     1     -37.641  25.523   3.601  0.00  0.00    +0.002 C 
ATOM     16  C   UNL     1     -33.980  24.292   0.570  0.00  0.00    -0.001 C 
ATOM     17  C   UNL     1     -36.757  19.859   1.230  0.00  0.00    -0.101 C 
ATOM     18  C   UNL     1     -33.094  25.392   2.568  0.00  0.00    +0.175 C 
ATOM     19  C   UNL     1     -33.043  25.143   1.191  0.00  0.00    +0.040 C 
ATOM     20  H   UNL     1     -37.424  20.655   2.950  0.00  0.00    -0.080 HD
ENDROOT
BRANCH  12  21
ATOM     21  O   UNL     1     -36.234  26.677   5.176  0.00  0.00    -0.377 OA
ATOM     22  H   UNL     1     -35.269  26.635   5.093  0.00  0.00    +0.211 HD
ENDBRANCH  12  21
BRANCH  18  23
ATOM     23  O   UNL     1     -32.231  26.261   3.147  0.00  0.00    -0.447 OA
BRANCH  23  25
ATOM     24  O   UNL     1     -31.635  28.313   2.212  0.00  0.00    -0.307 OA
ATOM     25  C   UNL     1     -32.554  27.649   3.075  0.00  0.00    +0.319 C 
ATOM     26  C   UNL     1     -32.470  28.227   4.488  0.00  0.00    +0.210 C 
ATOM     27  C   UNL     1     -32.670  29.743   4.478  0.00  0.00    +0.173 C 
ATOM     28  C   UNL     1     -31.793  30.415   3.422  0.00  0.00    +0.178 C 
ATOM     29  C   UNL     1     -31.919  29.702   2.082  0.00  0.00    +0.246 C 
BRANCH  26  30
ATOM     30  O   UNL     1     -33.490  27.620   5.281  0.00  0.00    -0.377 OA
ATOM     31  H   UNL     1     -33.842  26.845   4.817  0.00  0.00    +0.211 HD
ENDBRANCH  26  30
BRANCH  27  32
ATOM     32  O   UNL     1     -32.314  30.279   5.754  0.00  0.00    -0.379 OA
ATOM     33  H   UNL     1     -33.007  30.888   6.054  0.00  0.00    +0.211 HD
ENDBRANCH  27  32
BRANCH  28  34
ATOM     34  O   UNL     1     -32.211  31.770   3.261  0.00  0.00    -0.379 OA
ATOM     35  H   UNL     1     -33.054  31.904   3.721  0.00  0.00    +0.211 HD
ENDBRANCH  28  34
BRANCH  29  37
ATOM     36  O   UNL     1     -30.751  31.331   0.738  0.00  0.00    -0.247 OA
ATOM     37  C   UNL     1     -30.877  30.178   1.122  0.00  0.00    +0.344 C 
BRANCH  37  38
ATOM     38  O   UNL     1     -30.086  29.151   0.727  0.00  0.00    -0.478 OA
ATOM     39  H   UNL     1     -30.391  28.546   0.079  0.00  0.00    +0.295 HD
ENDBRANCH  37  38
ENDBRANCH  29  37
ENDBRANCH  23  25
ENDBRANCH  18  23
TORSDOF 8
ENDMDL
MODEL 3
REMARK VINA RESULT:      -6.6      4.465      7.095
REMARK  Name = 5484731
REMARK  8 active torsions:
REMARK  status: ('A' for Active; 'I' for Inactive)
REMARK    1  A    between atoms: C_12  and  O_21
REMARK    2  A    between atoms: C_18  and  O_23
REMARK    3  A    between atoms: O_23  and  C_25
REMARK    4  A    between atoms: C_26  and  O_30
REMARK    5  A    between atoms: C_27  and  O_32
REMARK    6  A    between atoms: C_28  and  O_34
REMARK    7  A    between atoms: C_29  and  C_37
REMARK    8  A    between atoms: C_37  and  O_38
REMARK                            x       y       z     vdW  Elec       q    Type
REMARK                         _______ _______ _______ _____ _____    ______ ____
ROOT
ATOM      1  O   UNL     1     -34.919  27.963   3.430  0.00  0.00    -0.473 OA
ATOM      2  N   UNL     1     -37.883  23.914   1.902  0.00  0.00    +0.387 N 
ATOM      3  C   UNL     1     -36.131  26.199   2.268  0.00  0.00    +0.061 C 
ATOM      4  C   UNL     1     -35.968  25.209   1.105  0.00  0.00    +0.010 C 
ATOM      5  C   UNL     1     -36.428  23.812   1.633  0.00  0.00    -0.049 C 
ATOM      6  C   UNL     1     -35.479  27.594   2.122  0.00  0.00    +0.200 C 
ATOM      7  C   UNL     1     -37.618  26.273   2.671  0.00  0.00    -0.015 C 
ATOM      8  C   UNL     1     -35.310  25.715   3.417  0.00  0.00    +0.014 C 
ATOM      9  C   UNL     1     -35.568  23.307   2.842  0.00  0.00    +0.006 C 
ATOM     10  C   UNL     1     -38.229  24.889   2.941  0.00  0.00    -0.077 C 
ATOM     11  C   UNL     1     -35.074  24.395   3.758  0.00  0.00    -0.025 C 
ATOM     12  C   UNL     1     -34.402  27.686   1.010  0.00  0.00    +0.172 C 
ATOM     13  C   UNL     1     -34.570  25.239   0.542  0.00  0.00    -0.030 C 
ATOM     14  C   UNL     1     -34.704  26.769   4.063  0.00  0.00    +0.168 C 
ATOM     15  C   UNL     1     -33.852  26.372   0.521  0.00  0.00    +0.002 C 
ATOM     16  C   UNL     1     -34.282  24.160   4.882  0.00  0.00    -0.001 C 
ATOM     17  C   UNL     1     -38.521  22.624   2.148  0.00  0.00    -0.101 C 
ATOM     18  C   UNL     1     -33.925  26.562   5.181  0.00  0.00    +0.175 C 
ATOM     19  C   UNL     1     -33.729  25.240   5.600  0.00  0.00    +0.040 C 
ATOM     20  H   UNL     1     -38.270  24.275   1.030  0.00  0.00    -0.080 HD
ENDROOT
BRANCH  12  21
ATOM     21  O   UNL     1     -33.342  28.541   1.431  0.00  0.00    -0.377 OA
ATOM     22  H   UNL     1     -33.641  29.462   1.410  0.00  0.00    +0.211 HD
ENDBRANCH  12  21
BRANCH  18  23
ATOM     23  O   UNL     1     -33.337  27.591   5.837  0.00  0.00    -0.447 OA
BRANCH  23  25
ATOM     24  O   UNL     1     -31.036  27.713   6.203  0.00  0.00    -0.307 OA
ATOM     25  C   UNL     1     -32.096  28.073   5.321  0.00  0.00    +0.319 C 
ATOM     26  C   UNL     1     -32.195  29.593   5.198  0.00  0.00    +0.210 C 
ATOM     27  C   UNL     1     -30.856  30.202   4.779  0.00  0.00    +0.173 C 
ATOM     28  C   UNL     1     -29.708  29.668   5.635  0.00  0.00    +0.178 C 
ATOM     29  C   UNL     1     -29.766  28.149   5.729  0.00  0.00    +0.246 C 
BRANCH  26  30
ATOM     30  O   UNL     1     -33.182  29.900   4.215  0.00  0.00    -0.377 OA
ATOM     31  H   UNL     1     -34.040  29.542   4.494  0.00  0.00    +0.211 HD
ENDBRANCH  26  30
BRANCH  27  32
ATOM     32  O   UNL     1     -30.906  31.620   4.942  0.00  0.00    -0.379 OA
ATOM     33  H   UNL     1     -31.269  32.026   4.139  0.00  0.00    +0.211 HD
ENDBRANCH  27  32
BRANCH  28  34
ATOM     34  O   UNL     1     -28.467  30.042   5.038  0.00  0.00    -0.379 OA
ATOM     35  H   UNL     1     -27.880  30.409   5.717  0.00  0.00    +0.211 HD
ENDBRANCH  28  34
BRANCH  29  37
ATOM     36  O   UNL     1     -28.281  26.543   6.750  0.00  0.00    -0.247 OA
ATOM     37  C   UNL     1     -28.819  27.640   6.768  0.00  0.00    +0.344 C 
BRANCH  37  38
ATOM     38  O   UNL     1     -28.639  28.563   7.744  0.00  0.00    -0.478 OA
ATOM     39  H   UNL     1     -27.914  28.487   8.333  0.00  0.00    +0.295 HD
ENDBRANCH  37  38
ENDBRANCH  29  37
ENDBRANCH  23  25
ENDBRANCH  18  23
TORSDOF 8
ENDMDL
MODEL 4
REMARK VINA RESULT:      -6.5      5.002      8.156
REMARK  Name = 5484731
REMARK  8 active torsions:
REMARK  status: ('A' for Active; 'I' for Inactive)
REMARK    1  A    between atoms: C_12  and  O_21
REMARK    2  A    between atoms: C_18  and  O_23
REMARK    3  A    between atoms: O_23  and  C_25
REMARK    4  A    between atoms: C_26  and  O_30
REMARK    5  A    between atoms: C_27  and  O_32
REMARK    6  A    between atoms: C_28  and  O_34
REMARK    7  A    between atoms: C_29  and  C_37
REMARK    8  A    between atoms: C_37  and  O_38
REMARK                            x       y       z     vdW  Elec       q    Type
REMARK                         _______ _______ _______ _____ _____    ______ ____
ROOT
ATOM      1  O   UNL     1     -36.092  22.518   2.083  0.00  0.00    -0.473 OA
ATOM      2  N   UNL     1     -35.738  27.667   3.026  0.00  0.00    +0.387 N 
ATOM      3  C   UNL     1     -35.946  24.771   2.997  0.00  0.00    +0.061 C 
ATOM      4  C   UNL     1     -35.316  25.544   4.165  0.00  0.00    +0.010 C 
ATOM      5  C   UNL     1     -34.644  26.816   3.556  0.00  0.00    -0.049 C 
ATOM      6  C   UNL     1     -36.426  23.326   3.265  0.00  0.00    +0.200 C 
ATOM      7  C   UNL     1     -37.026  25.646   2.329  0.00  0.00    -0.015 C 
ATOM      8  C   UNL     1     -34.870  24.444   2.014  0.00  0.00    +0.014 C 
ATOM      9  C   UNL     1     -33.518  26.471   2.522  0.00  0.00    +0.006 C 
ATOM     10  C   UNL     1     -36.508  27.041   1.946  0.00  0.00    -0.077 C 
ATOM     11  C   UNL     1     -33.767  25.224   1.716  0.00  0.00    -0.025 C 
ATOM     12  C   UNL     1     -35.849  22.687   4.556  0.00  0.00    +0.172 C 
ATOM     13  C   UNL     1     -34.391  24.670   4.973  0.00  0.00    -0.030 C 
ATOM     14  C   UNL     1     -35.050  23.182   1.494  0.00  0.00    +0.168 C 
ATOM     15  C   UNL     1     -34.631  23.360   5.131  0.00  0.00    +0.002 C 
ATOM     16  C   UNL     1     -32.883  24.735   0.754  0.00  0.00    -0.001 C 
ATOM     17  C   UNL     1     -35.305  29.012   2.662  0.00  0.00    -0.101 C 
ATOM     18  C   UNL     1     -34.196  22.681   0.536  0.00  0.00    +0.175 C 
ATOM     19  C   UNL     1     -33.110  23.479   0.154  0.00  0.00    +0.040 C 
ATOM     20  H   UNL     1     -36.377  27.764   3.815  0.00  0.00    -0.080 HD
ENDROOT
BRANCH  12  21
ATOM     21  O   UNL     1     -35.594  21.302   4.339  0.00  0.00    -0.377 OA
ATOM     22  H   UNL     1     -36.420  20.855   4.098  0.00  0.00    +0.211 HD
ENDBRANCH  12  21
BRANCH  18  23
ATOM     23  O   UNL     1     -34.371  21.448   0.003  0.00  0.00    -0.447 OA
BRANCH  23  25
ATOM     24  O   UNL     1     -32.352  20.283  -0.096  0.00  0.00    -0.307 OA
ATOM     25  C   UNL     1     -33.611  20.378   0.565  0.00  0.00    +0.319 C 
ATOM     26  C   UNL     1     -34.408  19.087   0.382  0.00  0.00    +0.210 C 
ATOM     27  C   UNL     1     -33.601  17.870   0.837  0.00  0.00    +0.173 C 
ATOM     28  C   UNL     1     -32.191  17.882   0.245  0.00  0.00    +0.178 C 
ATOM     29  C   UNL     1     -31.538  19.245   0.437  0.00  0.00    +0.246 C 
BRANCH  26  30
ATOM     30  O   UNL     1     -35.600  19.182   1.160  0.00  0.00    -0.377 OA
ATOM     31  H   UNL     1     -36.133  18.380   1.036  0.00  0.00    +0.211 HD
ENDBRANCH  26  30
BRANCH  27  32
ATOM     32  O   UNL     1     -34.253  16.676   0.400  0.00  0.00    -0.379 OA
ATOM     33  H   UNL     1     -34.395  16.089   1.159  0.00  0.00    +0.211 HD
ENDBRANCH  27  32
BRANCH  28  34
ATOM     34  O   UNL     1     -31.399  16.897   0.907  0.00  0.00    -0.379 OA
ATOM     35  H   UNL     1     -31.950  16.412   1.540  0.00  0.00    +0.211 HD
ENDBRANCH  28  34
BRANCH  29  37
ATOM     36  O   UNL     1     -30.180  19.908  -1.445  0.00  0.00    -0.247 OA
ATOM     37  C   UNL     1     -30.279  19.352  -0.362  0.00  0.00    +0.344 C 
BRANCH  37  38
ATOM     38  O   UNL     1     -29.253  18.741   0.279  0.00  0.00    -0.478 OA
ATOM     39  H   UNL     1     -29.337  17.850   0.557  0.00  0.00    +0.295 HD
ENDBRANCH  37  38
ENDBRANCH  29  37
ENDBRANCH  23  25
ENDBRANCH  18  23
TORSDOF 8
ENDMDL
MODEL 5
REMARK VINA RESULT:      -6.5      4.610      7.915
REMARK  Name = 5484731
REMARK  8 active torsions:
REMARK  status: ('A' for Active; 'I' for Inactive)
REMARK    1  A    between atoms: C_12  and  O_21
REMARK    2  A    between atoms: C_18  and  O_23
REMARK    3  A    between atoms: O_23  and  C_25
REMARK    4  A    between atoms: C_26  and  O_30
REMARK    5  A    between atoms: C_27  and  O_32
REMARK    6  A    between atoms: C_28  and  O_34
REMARK    7  A    between atoms: C_29  and  C_37
REMARK    8  A    between atoms: C_37  and  O_38
REMARK                            x       y       z     vdW  Elec       q    Type
REMARK                         _______ _______ _______ _____ _____    ______ ____
ROOT
ATOM      1  O   UNL     1     -35.879  23.584   0.886  0.00  0.00    -0.473 OA
ATOM      2  N   UNL     1     -34.389  26.330   5.101  0.00  0.00    +0.387 N 
ATOM      3  C   UNL     1     -35.606  25.112   2.763  0.00  0.00    +0.061 C 
ATOM      4  C   UNL     1     -36.427  25.827   3.846  0.00  0.00    +0.010 C 
ATOM      5  C   UNL     1     -35.680  25.605   5.201  0.00  0.00    -0.049 C 
ATOM      6  C   UNL     1     -36.259  24.917   1.375  0.00  0.00    +0.200 C 
ATOM      7  C   UNL     1     -34.204  25.750   2.680  0.00  0.00    -0.015 C 
ATOM      8  C   UNL     1     -35.493  23.669   3.134  0.00  0.00    +0.014 C 
ATOM      9  C   UNL     1     -35.558  24.091   5.586  0.00  0.00    +0.006 C 
ATOM     10  C   UNL     1     -33.504  25.824   4.046  0.00  0.00    -0.077 C 
ATOM     11  C   UNL     1     -35.405  23.156   4.415  0.00  0.00    -0.025 C 
ATOM     12  C   UNL     1     -37.800  25.096   1.360  0.00  0.00    +0.172 C 
ATOM     13  C   UNL     1     -37.865  25.375   3.840  0.00  0.00    -0.030 C 
ATOM     14  C   UNL     1     -35.595  22.869   2.018  0.00  0.00    +0.168 C 
ATOM     15  C   UNL     1     -38.480  25.023   2.702  0.00  0.00    +0.002 C 
ATOM     16  C   UNL     1     -35.295  21.771   4.540  0.00  0.00    -0.001 C 
ATOM     17  C   UNL     1     -33.687  26.445   6.375  0.00  0.00    -0.101 C 
ATOM     18  C   UNL     1     -35.481  21.499   2.116  0.00  0.00    +0.175 C 
ATOM     19  C   UNL     1     -35.313  20.951   3.393  0.00  0.00    +0.040 C 
ATOM     20  H   UNL     1     -34.657  27.273   4.822  0.00  0.00    -0.080 HD
ENDROOT
BRANCH  12  21
ATOM     21  O   UNL     1     -38.388  24.166   0.455  0.00  0.00    -0.377 OA
ATOM     22  H   UNL     1     -39.189  24.552   0.069  0.00  0.00    +0.211 HD
ENDBRANCH  12  21
BRANCH  18  23
ATOM     23  O   UNL     1     -35.562  20.700   1.024  0.00  0.00    -0.447 OA
BRANCH  23  25
ATOM     24  O   UNL     1     -33.578  19.477   0.924  0.00  0.00    -0.307 OA
ATOM     25  C   UNL     1     -34.987  19.397   1.123  0.00  0.00    +0.319 C 
ATOM     26  C   UNL     1     -35.628  18.516   0.051  0.00  0.00    +0.210 C 
ATOM     27  C   UNL     1     -34.967  17.138   0.000  0.00  0.00    +0.173 C 
ATOM     28  C   UNL     1     -33.443  17.251  -0.042  0.00  0.00    +0.178 C 
ATOM     29  C   UNL     1     -32.943  18.208   1.033  0.00  0.00    +0.246 C 
BRANCH  26  30
ATOM     30  O   UNL     1     -37.012  18.366   0.363  0.00  0.00    -0.377 OA
ATOM     31  H   UNL     1     -37.363  17.584  -0.091  0.00  0.00    +0.211 HD
ENDBRANCH  26  30
BRANCH  27  32
ATOM     32  O   UNL     1     -35.391  16.449  -1.177  0.00  0.00    -0.379 OA
ATOM     33  H   UNL     1     -35.887  17.058  -1.747  0.00  0.00    +0.211 HD
ENDBRANCH  27  32
BRANCH  28  34
ATOM     34  O   UNL     1     -32.873  15.963   0.191  0.00  0.00    -0.379 OA
ATOM     35  H   UNL     1     -32.624  15.885   1.124  0.00  0.00    +0.211 HD
ENDBRANCH  28  34
BRANCH  29  37
ATOM     36  O   UNL     1     -31.071  19.474   0.184  0.00  0.00    -0.247 OA
ATOM     37  C   UNL     1     -31.496  18.530   0.832  0.00  0.00    +0.344 C 
BRANCH  37  38
ATOM     38  O   UNL     1     -30.713  17.625   1.467  0.00  0.00    -0.478 OA
ATOM     39  H   UNL     1     -30.279  16.954   0.977  0.00  0.00    +0.295 HD
ENDBRANCH  37  38
ENDBRANCH  29  37
ENDBRANCH  23  25
ENDBRANCH  18  23
TORSDOF 8
ENDMDL
MODEL 6
REMARK VINA RESULT:      -6.5      5.353      8.368
REMARK  Name = 5484731
REMARK  8 active torsions:
REMARK  status: ('A' for Active; 'I' for Inactive)
REMARK    1  A    between atoms: C_12  and  O_21
REMARK    2  A    between atoms: C_18  and  O_23
REMARK    3  A    between atoms: O_23  and  C_25
REMARK    4  A    between atoms: C_26  and  O_30
REMARK    5  A    between atoms: C_27  and  O_32
REMARK    6  A    between atoms: C_28  and  O_34
REMARK    7  A    between atoms: C_29  and  C_37
REMARK    8  A    between atoms: C_37  and  O_38
REMARK                            x       y       z     vdW  Elec       q    Type
REMARK                         _______ _______ _______ _____ _____    ______ ____
ROOT
ATOM      1  O   UNL     1     -35.222  27.695   2.105  0.00  0.00    -0.473 OA
ATOM      2  N   UNL     1     -30.133  28.399   3.170  0.00  0.00    +0.387 N 
ATOM      3  C   UNL     1     -32.957  28.498   2.504  0.00  0.00    +0.061 C 
ATOM      4  C   UNL     1     -32.206  29.694   3.108  0.00  0.00    +0.010 C 
ATOM      5  C   UNL     1     -31.100  29.108   4.043  0.00  0.00    -0.049 C 
ATOM      6  C   UNL     1     -34.289  28.780   1.769  0.00  0.00    +0.200 C 
ATOM      7  C   UNL     1     -31.978  27.653   1.664  0.00  0.00    -0.015 C 
ATOM      8  C   UNL     1     -33.516  27.679   3.621  0.00  0.00    +0.014 C 
ATOM      9  C   UNL     1     -31.688  28.246   5.212  0.00  0.00    +0.006 C 
ATOM     10  C   UNL     1     -30.710  27.265   2.442  0.00  0.00    -0.077 C 
ATOM     11  C   UNL     1     -32.938  27.483   4.862  0.00  0.00    -0.025 C 
ATOM     12  C   UNL     1     -34.912  30.166   2.081  0.00  0.00    +0.172 C 
ATOM     13  C   UNL     1     -33.150  30.659   3.780  0.00  0.00    -0.030 C 
ATOM     14  C   UNL     1     -34.770  27.209   3.302  0.00  0.00    +0.168 C 
ATOM     15  C   UNL     1     -34.393  30.855   3.316  0.00  0.00    +0.002 C 
ATOM     16  C   UNL     1     -33.625  26.668   5.763  0.00  0.00    -0.001 C 
ATOM     17  C   UNL     1     -28.901  28.021   3.854  0.00  0.00    -0.101 C 
ATOM     18  C   UNL     1     -35.464  26.396   4.171  0.00  0.00    +0.175 C 
ATOM     19  C   UNL     1     -34.872  26.113   5.409  0.00  0.00    +0.040 C 
ATOM     20  H   UNL     1     -29.882  29.094   2.467  0.00  0.00    -0.080 HD
ENDROOT
BRANCH  12  21
ATOM     21  O   UNL     1     -36.332  30.058   2.133  0.00  0.00    -0.377 OA
ATOM     22  H   UNL     1     -36.642  30.284   3.024  0.00  0.00    +0.211 HD
ENDBRANCH  12  21
BRANCH  18  23
ATOM     23  O   UNL     1     -36.691  25.911   3.864  0.00  0.00    -0.447 OA
BRANCH  23  25
ATOM     24  O   UNL     1     -36.104  23.820   4.715  0.00  0.00    -0.307 OA
ATOM     25  C   UNL     1     -36.811  24.500   3.681  0.00  0.00    +0.319 C 
ATOM     26  C   UNL     1     -36.225  24.150   2.314  0.00  0.00    +0.210 C 
ATOM     27  C   UNL     1     -36.191  22.636   2.098  0.00  0.00    +0.173 C 
ATOM     28  C   UNL     1     -35.579  21.915   3.299  0.00  0.00    +0.178 C 
ATOM     29  C   UNL     1     -36.204  22.405   4.599  0.00  0.00    +0.246 C 
BRANCH  26  30
ATOM     30  O   UNL     1     -37.040  24.753   1.310  0.00  0.00    -0.377 OA
ATOM     31  H   UNL     1     -37.944  24.409   1.377  0.00  0.00    +0.211 HD
ENDBRANCH  26  30
BRANCH  27  32
ATOM     32  O   UNL     1     -35.395  22.336   0.951  0.00  0.00    -0.379 OA
ATOM     33  H   UNL     1     -34.458  22.473   1.162  0.00  0.00    +0.211 HD
ENDBRANCH  27  32
BRANCH  28  34
ATOM     34  O   UNL     1     -35.820  20.514   3.175  0.00  0.00    -0.379 OA
ATOM     35  H   UNL     1     -35.318  20.166   2.422  0.00  0.00    +0.211 HD
ENDBRANCH  28  34
BRANCH  29  37
ATOM     36  O   UNL     1     -34.845  22.617   6.583  0.00  0.00    -0.247 OA
ATOM     37  C   UNL     1     -35.437  21.908   5.783  0.00  0.00    +0.344 C 
BRANCH  37  38
ATOM     38  O   UNL     1     -35.484  20.556   5.849  0.00  0.00    -0.478 OA
ATOM     39  H   UNL     1     -35.583  20.130   6.679  0.00  0.00    +0.295 HD
ENDBRANCH  37  38
ENDBRANCH  29  37
ENDBRANCH  23  25
ENDBRANCH  18  23
TORSDOF 8
ENDMDL
MODEL 7
REMARK VINA RESULT:      -6.5      3.960      6.727
REMARK  Name = 5484731
REMARK  8 active torsions:
REMARK  status: ('A' for Active; 'I' for Inactive)
REMARK    1  A    between atoms: C_12  and  O_21
REMARK    2  A    between atoms: C_18  and  O_23
REMARK    3  A    between atoms: O_23  and  C_25
REMARK    4  A    between atoms: C_26  and  O_30
REMARK    5  A    between atoms: C_27  and  O_32
REMARK    6  A    between atoms: C_28  and  O_34
REMARK    7  A    between atoms: C_29  and  C_37
REMARK    8  A    between atoms: C_37  and  O_38
REMARK                            x       y       z     vdW  Elec       q    Type
REMARK                         _______ _______ _______ _____ _____    ______ ____
ROOT
ATOM      1  O   UNL     1     -36.693  25.849   4.144  0.00  0.00    -0.473 OA
ATOM      2  N   UNL     1     -35.739  20.959   2.500  0.00  0.00    +0.387 N 
ATOM      3  C   UNL     1     -36.737  23.569   3.289  0.00  0.00    +0.061 C 
ATOM      4  C   UNL     1     -37.417  22.715   2.208  0.00  0.00    +0.010 C 
ATOM      5  C   UNL     1     -36.287  21.904   1.495  0.00  0.00    -0.049 C 
ATOM      6  C   UNL     1     -37.573  24.687   3.955  0.00  0.00    +0.200 C 
ATOM      7  C   UNL     1     -36.052  22.643   4.315  0.00  0.00    -0.015 C 
ATOM      8  C   UNL     1     -35.724  24.444   2.629  0.00  0.00    +0.014 C 
ATOM      9  C   UNL     1     -35.221  22.825   0.807  0.00  0.00    +0.006 C 
ATOM     10  C   UNL     1     -35.120  21.614   3.656  0.00  0.00    -0.077 C 
ATOM     11  C   UNL     1     -34.957  24.123   1.523  0.00  0.00    -0.025 C 
ATOM     12  C   UNL     1     -38.854  25.081   3.174  0.00  0.00    +0.172 C 
ATOM     13  C   UNL     1     -38.263  23.556   1.287  0.00  0.00    -0.030 C 
ATOM     14  C   UNL     1     -35.712  25.696   3.202  0.00  0.00    +0.168 C 
ATOM     15  C   UNL     1     -38.902  24.649   1.732  0.00  0.00    +0.002 C 
ATOM     16  C   UNL     1     -34.057  25.087   1.070  0.00  0.00    -0.001 C 
ATOM     17  C   UNL     1     -34.859  19.947   1.926  0.00  0.00    -0.101 C 
ATOM     18  C   UNL     1     -34.826  26.662   2.778  0.00  0.00    +0.175 C 
ATOM     19  C   UNL     1     -33.979  26.342   1.709  0.00  0.00    +0.040 C 
ATOM     20  H   UNL     1     -36.562  20.472   2.853  0.00  0.00    -0.080 HD
ENDROOT
BRANCH  12  21
ATOM     21  O   UNL     1     -39.073  26.485   3.278  0.00  0.00    -0.377 OA
ATOM     22  H   UNL     1     -38.994  26.891   2.401  0.00  0.00    +0.211 HD
ENDBRANCH  12  21
BRANCH  18  23
ATOM     23  O   UNL     1     -34.791  27.892   3.344  0.00  0.00    -0.447 OA
BRANCH  23  25
ATOM     24  O   UNL     1     -33.107  28.428   4.867  0.00  0.00    -0.307 OA
ATOM     25  C   UNL     1     -33.511  28.504   3.503  0.00  0.00    +0.319 C 
ATOM     26  C   UNL     1     -33.627  29.963   3.061  0.00  0.00    +0.210 C 
ATOM     27  C   UNL     1     -32.329  30.726   3.329  0.00  0.00    +0.173 C 
ATOM     28  C   UNL     1     -31.826  30.491   4.753  0.00  0.00    +0.178 C 
ATOM     29  C   UNL     1     -31.823  29.004   5.085  0.00  0.00    +0.246 C 
BRANCH  26  30
ATOM     30  O   UNL     1     -33.910  29.987   1.663  0.00  0.00    -0.377 OA
ATOM     31  H   UNL     1     -34.297  30.844   1.426  0.00  0.00    +0.211 HD
ENDBRANCH  26  30
BRANCH  27  32
ATOM     32  O   UNL     1     -32.559  32.127   3.168  0.00  0.00    -0.379 OA
ATOM     33  H   UNL     1     -32.233  32.600   3.950  0.00  0.00    +0.211 HD
ENDBRANCH  27  32
BRANCH  28  34
ATOM     34  O   UNL     1     -30.493  30.987   4.865  0.00  0.00    -0.379 OA
ATOM     35  H   UNL     1     -30.422  31.830   4.392  0.00  0.00    +0.211 HD
ENDBRANCH  28  34
BRANCH  29  37
ATOM     36  O   UNL     1     -31.528  29.665   7.388  0.00  0.00    -0.247 OA
ATOM     37  C   UNL     1     -31.591  28.782   6.545  0.00  0.00    +0.344 C 
BRANCH  37  38
ATOM     38  O   UNL     1     -31.454  27.461   6.812  0.00  0.00    -0.478 OA
ATOM     39  H   UNL     1     -31.266  27.176   7.685  0.00  0.00    +0.295 HD
ENDBRANCH  37  38
ENDBRANCH  29  37
ENDBRANCH  23  25
ENDBRANCH  18  23
TORSDOF 8
ENDMDL
MODEL 8
REMARK VINA RESULT:      -6.4      5.723      8.995
REMARK  Name = 5484731
REMARK  8 active torsions:
REMARK  status: ('A' for Active; 'I' for Inactive)
REMARK    1  A    between atoms: C_12  and  O_21
REMARK    2  A    between atoms: C_18  and  O_23
REMARK    3  A    between atoms: O_23  and  C_25
REMARK    4  A    between atoms: C_26  and  O_30
REMARK    5  A    between atoms: C_27  and  O_32
REMARK    6  A    between atoms: C_28  and  O_34
REMARK    7  A    between atoms: C_29  and  C_37
REMARK    8  A    between atoms: C_37  and  O_38
REMARK                            x       y       z     vdW  Elec       q    Type
REMARK                         _______ _______ _______ _____ _____    ______ ____
ROOT
ATOM      1  O   UNL     1     -34.569  19.318   1.496  0.00  0.00    -0.473 OA
ATOM      2  N   UNL     1     -30.193  19.177  -1.394  0.00  0.00    +0.387 N 
ATOM      3  C   UNL     1     -32.776  18.899  -0.098  0.00  0.00    +0.061 C 
ATOM      4  C   UNL     1     -32.554  18.567  -1.581  0.00  0.00    +0.010 C 
ATOM      5  C   UNL     1     -31.446  19.539  -2.101  0.00  0.00    -0.049 C 
ATOM      6  C   UNL     1     -34.017  18.293   0.598  0.00  0.00    +0.200 C 
ATOM      7  C   UNL     1     -31.470  18.645   0.683  0.00  0.00    -0.015 C 
ATOM      8  C   UNL     1     -33.168  20.335   0.010  0.00  0.00    +0.014 C 
ATOM      9  C   UNL     1     -31.858  21.046  -1.983  0.00  0.00    +0.006 C 
ATOM     10  C   UNL     1     -30.258  19.355   0.060  0.00  0.00    -0.077 C 
ATOM     11  C   UNL     1     -32.724  21.369  -0.795  0.00  0.00    -0.025 C 
ATOM     12  C   UNL     1     -35.104  17.765  -0.376  0.00  0.00    +0.172 C 
ATOM     13  C   UNL     1     -33.844  18.612  -2.358  0.00  0.00    -0.030 C 
ATOM     14  C   UNL     1     -34.140  20.506   0.970  0.00  0.00    +0.168 C 
ATOM     15  C   UNL     1     -35.010  18.262  -1.795  0.00  0.00    +0.002 C 
ATOM     16  C   UNL     1     -33.210  22.647  -0.516  0.00  0.00    -0.001 C 
ATOM     17  C   UNL     1     -29.005  19.811  -1.956  0.00  0.00    -0.101 C 
ATOM     18  C   UNL     1     -34.628  21.759   1.269  0.00  0.00    +0.175 C 
ATOM     19  C   UNL     1     -34.142  22.841   0.524  0.00  0.00    +0.040 C 
ATOM     20  H   UNL     1     -30.100  18.175  -1.556  0.00  0.00    -0.080 HD
ENDROOT
BRANCH  12  21
ATOM     21  O   UNL     1     -36.400  18.025   0.156  0.00  0.00    -0.377 OA
ATOM     22  H   UNL     1     -36.451  17.688   1.063  0.00  0.00    +0.211 HD
ENDBRANCH  12  21
BRANCH  18  23
ATOM     23  O   UNL     1     -35.572  21.944   2.224  0.00  0.00    -0.447 OA
BRANCH  23  25
ATOM     24  O   UNL     1     -37.160  23.617   2.573  0.00  0.00    -0.307 OA
ATOM     25  C   UNL     1     -36.834  22.462   1.804  0.00  0.00    +0.319 C 
ATOM     26  C   UNL     1     -37.885  21.370   2.010  0.00  0.00    +0.210 C 
ATOM     27  C   UNL     1     -39.290  21.892   1.711  0.00  0.00    +0.173 C 
ATOM     28  C   UNL     1     -39.554  23.223   2.417  0.00  0.00    +0.178 C 
ATOM     29  C   UNL     1     -38.402  24.193   2.185  0.00  0.00    +0.246 C 
BRANCH  26  30
ATOM     30  O   UNL     1     -37.584  20.289   1.129  0.00  0.00    -0.377 OA
ATOM     31  H   UNL     1     -37.250  20.639   0.288  0.00  0.00    +0.211 HD
ENDBRANCH  26  30
BRANCH  27  32
ATOM     32  O   UNL     1     -40.257  20.948   2.174  0.00  0.00    -0.379 OA
ATOM     33  H   UNL     1     -40.516  21.169   3.082  0.00  0.00    +0.211 HD
ENDBRANCH  27  32
BRANCH  28  34
ATOM     34  O   UNL     1     -40.751  23.799   1.895  0.00  0.00    -0.379 OA
ATOM     35  H   UNL     1     -40.617  24.032   0.963  0.00  0.00    +0.211 HD
ENDBRANCH  28  34
BRANCH  29  37
ATOM     36  O   UNL     1     -39.063  26.439   2.774  0.00  0.00    -0.247 OA
ATOM     37  C   UNL     1     -38.521  25.387   3.078  0.00  0.00    +0.344 C 
BRANCH  37  38
ATOM     38  O   UNL     1     -37.940  25.146   4.278  0.00  0.00    -0.478 OA
ATOM     39  H   UNL     1     -37.270  25.718   4.598  0.00  0.00    +0.295 HD
ENDBRANCH  37  38
ENDBRANCH  29  37
ENDBRANCH  23  25
ENDBRANCH  18  23
TORSDOF 8
ENDMDL
MODEL 9
REMARK VINA RESULT:      -6.4      3.563      8.182
REMARK  Name = 5484731
REMARK  8 active torsions:
REMARK  status: ('A' for Active; 'I' for Inactive)
REMARK    1  A    between atoms: C_12  and  O_21
REMARK    2  A    between atoms: C_18  and  O_23
REMARK    3  A    between atoms: O_23  and  C_25
REMARK    4  A    between atoms: C_26  and  O_30
REMARK    5  A    between atoms: C_27  and  O_32
REMARK    6  A    between atoms: C_28  and  O_34
REMARK    7  A    between atoms: C_29  and  C_37
REMARK    8  A    between atoms: C_37  and  O_38
REMARK                            x       y       z     vdW  Elec       q    Type
REMARK                         _______ _______ _______ _____ _____    ______ ____
ROOT
ATOM      1  O   UNL     1     -37.309  21.716   2.498  0.00  0.00    -0.473 OA
ATOM      2  N   UNL     1     -34.221  25.084   5.076  0.00  0.00    +0.387 N 
ATOM      3  C   UNL     1     -35.546  23.170   3.341  0.00  0.00    +0.061 C 
ATOM      4  C   UNL     1     -34.435  24.107   2.845  0.00  0.00    +0.010 C 
ATOM      5  C   UNL     1     -34.554  25.427   3.672  0.00  0.00    -0.049 C 
ATOM      6  C   UNL     1     -35.851  21.907   2.503  0.00  0.00    +0.200 C 
ATOM      7  C   UNL     1     -35.319  22.855   4.834  0.00  0.00    -0.015 C 
ATOM      8  C   UNL     1     -36.859  23.855   3.154  0.00  0.00    +0.014 C 
ATOM      9  C   UNL     1     -35.934  26.143   3.478  0.00  0.00    +0.006 C 
ATOM     10  C   UNL     1     -35.144  24.122   5.687  0.00  0.00    -0.077 C 
ATOM     11  C   UNL     1     -37.100  25.213   3.268  0.00  0.00    -0.025 C 
ATOM     12  C   UNL     1     -35.291  21.946   1.057  0.00  0.00    +0.172 C 
ATOM     13  C   UNL     1     -34.495  24.294   1.350  0.00  0.00    -0.030 C 
ATOM     14  C   UNL     1     -37.821  22.963   2.736  0.00  0.00    +0.168 C 
ATOM     15  C   UNL     1     -34.907  23.308   0.540  0.00  0.00    +0.002 C 
ATOM     16  C   UNL     1     -38.410  25.647   3.062  0.00  0.00    -0.001 C 
ATOM     17  C   UNL     1     -34.026  26.251   5.930  0.00  0.00    -0.101 C 
ATOM     18  C   UNL     1     -39.123  23.366   2.535  0.00  0.00    +0.175 C 
ATOM     19  C   UNL     1     -39.418  24.723   2.718  0.00  0.00    +0.040 C 
ATOM     20  H   UNL     1     -33.320  24.612   5.007  0.00  0.00    -0.080 HD
ENDROOT
BRANCH  12  21
ATOM     21  O   UNL     1     -36.207  21.318   0.164  0.00  0.00    -0.377 OA
ATOM     22  H   UNL     1     -35.741  20.652  -0.363  0.00  0.00    +0.211 HD
ENDBRANCH  12  21
BRANCH  18  23
ATOM     23  O   UNL     1     -40.083  22.496   2.141  0.00  0.00    -0.447 OA
BRANCH  23  25
ATOM     24  O   UNL     1     -41.588  22.969   0.422  0.00  0.00    -0.307 OA
ATOM     25  C   UNL     1     -40.328  22.382   0.739  0.00  0.00    +0.319 C 
ATOM     26  C   UNL     1     -40.325  20.897   0.378  0.00  0.00    +0.210 C 
ATOM     27  C   UNL     1     -40.716  20.683  -1.085  0.00  0.00    +0.173 C 
ATOM     28  C   UNL     1     -41.981  21.462  -1.445  0.00  0.00    +0.178 C 
ATOM     29  C   UNL     1     -41.879  22.906  -0.970  0.00  0.00    +0.246 C 
BRANCH  26  30
ATOM     30  O   UNL     1     -39.011  20.386   0.596  0.00  0.00    -0.377 OA
ATOM     31  H   UNL     1     -38.551  20.303  -0.254  0.00  0.00    +0.211 HD
ENDBRANCH  26  30
BRANCH  27  32
ATOM     32  O   UNL     1     -40.972  19.296  -1.311  0.00  0.00    -0.379 OA
ATOM     33  H   UNL     1     -41.454  18.929  -0.554  0.00  0.00    +0.211 HD
ENDBRANCH  27  32
BRANCH  28  34
ATOM     34  O   UNL     1     -42.146  21.456  -2.862  0.00  0.00    -0.379 OA
ATOM     35  H   UNL     1     -41.275  21.449  -3.288  0.00  0.00    +0.211 HD
ENDBRANCH  28  34
BRANCH  29  37
ATOM     36  O   UNL     1     -43.714  23.973  -2.120  0.00  0.00    -0.247 OA
ATOM     37  C   UNL     1     -43.200  23.599  -1.076  0.00  0.00    +0.344 C 
BRANCH  37  38
ATOM     38  O   UNL     1     -43.754  23.762   0.150  0.00  0.00    -0.478 OA
ATOM     39  H   UNL     1     -43.893  24.624   0.491  0.00  0.00    +0.295 HD
ENDBRANCH  37  38
ENDBRANCH  29  37
ENDBRANCH  23  25
ENDBRANCH  18  23
TORSDOF 8
ENDMDL
