MODEL 1
REMARK VINA RESULT:      -4.9      0.000      0.000
REMARK  Name = 195150
REMARK  8 active torsions:
REMARK  status: ('A' for Active; 'I' for Inactive)
REMARK    1  A    between atoms: N_2  and  C_14
REMARK    2  A    between atoms: C_3  and  C_5
REMARK    3  A    between atoms: C_5  and  C_6
REMARK    4  A    between atoms: C_6  and  O_7
REMARK    5  A    between atoms: C_6  and  C_9
REMARK    6  A    between atoms: C_9  and  N_10
REMARK    7  A    between atoms: C_14  and  C_15
REMARK    8  A    between atoms: C_15  and  S_16
REMARK                            x       y       z     vdW  Elec       q    Type
REMARK                         _______ _______ _______ _____ _____    ______ ____
ROOT
ATOM      1  O   UNL     1     -35.240  21.136   4.714  0.00  0.00    -0.275 OA
ATOM      2  N   UNL     1     -35.662  23.364   4.209  0.00  0.00    -0.303 N 
ATOM      3  C   UNL     1     -35.503  22.020   3.903  0.00  0.00    +0.225 C 
ATOM      4  H   UNL     1     -35.872  23.990   3.479  0.00  0.00    +0.149 HD
ENDROOT
BRANCH   3   5
ATOM      5  C   UNL     1     -35.700  21.760   2.417  0.00  0.00    +0.112 C 
BRANCH   5   6
ATOM      6  C   UNL     1     -35.575  20.279   2.050  0.00  0.00    +0.100 C 
BRANCH   6   7
ATOM      7  O   UNL     1     -36.761  19.602   2.470  0.00  0.00    -0.386 OA
ATOM      8  H   UNL     1     -37.519  20.203   2.398  0.00  0.00    +0.210 HD
ENDBRANCH   6   7
BRANCH   6   9
ATOM      9  C   UNL     1     -35.357  20.037   0.557  0.00  0.00    -0.043 C 
BRANCH   9  10
ATOM     10  N   UNL     1     -33.962  19.611   0.285  0.00  0.00    +0.387 N 
ATOM     11  C   UNL     1     -33.380  18.851   1.485  0.00  0.00    -0.096 C 
ATOM     12  C   UNL     1     -33.901  18.690  -0.939  0.00  0.00    -0.096 C 
ATOM     13  C   UNL     1     -33.065  20.828   0.013  0.00  0.00    -0.096 C 
ENDBRANCH   9  10
ENDBRANCH   6   9
ENDBRANCH   5   6
ENDBRANCH   3   5
BRANCH   2  14
ATOM     14  C   UNL     1     -35.534  23.888   5.550  0.00  0.00    +0.115 C 
BRANCH  14  15
ATOM     15  C   UNL     1     -35.653  25.401   5.586  0.00  0.00    +0.179 C 
BRANCH  15  16
ATOM     16  S   UNL     1     -34.145  26.203   5.140  0.00  0.00    +0.024 S 
ATOM     17  O   UNL     1     -33.376  25.135   4.503  0.00  0.00    -0.069 OA
ATOM     18  O   UNL     1     -34.588  27.266   4.238  0.00  0.00    -0.069 OA
ATOM     19  O   UNL     1     -33.619  26.663   6.424  0.00  0.00    -0.069 OA
ENDBRANCH  15  16
ENDBRANCH  14  15
ENDBRANCH   2  14
TORSDOF 8
ENDMDL
MODEL 2
REMARK VINA RESULT:      -4.9      2.432      2.801
REMARK  Name = 195150
REMARK  8 active torsions:
REMARK  status: ('A' for Active; 'I' for Inactive)
REMARK    1  A    between atoms: N_2  and  C_14
REMARK    2  A    between atoms: C_3  and  C_5
REMARK    3  A    between atoms: C_5  and  C_6
REMARK    4  A    between atoms: C_6  and  O_7
REMARK    5  A    between atoms: C_6  and  C_9
REMARK    6  A    between atoms: C_9  and  N_10
REMARK    7  A    between atoms: C_14  and  C_15
REMARK    8  A    between atoms: C_15  and  S_16
REMARK                            x       y       z     vdW  Elec       q    Type
REMARK                         _______ _______ _______ _____ _____    ______ ____
ROOT
ATOM      1  O   UNL     1     -36.105  22.258   6.302  0.00  0.00    -0.275 OA
ATOM      2  N   UNL     1     -35.397  23.716   4.637  0.00  0.00    -0.303 N 
ATOM      3  C   UNL     1     -35.565  22.468   5.219  0.00  0.00    +0.225 C 
ATOM      4  H   UNL     1     -34.948  23.770   3.763  0.00  0.00    +0.149 HD
ENDROOT
BRANCH   3   5
ATOM      5  C   UNL     1     -34.994  21.363   4.341  0.00  0.00    +0.112 C 
BRANCH   5   6
ATOM      6  C   UNL     1     -35.827  21.115   3.080  0.00  0.00    +0.100 C 
BRANCH   6   7
ATOM      7  O   UNL     1     -37.043  21.859   3.181  0.00  0.00    -0.386 OA
ATOM      8  H   UNL     1     -37.150  22.411   2.391  0.00  0.00    +0.210 HD
ENDBRANCH   6   7
BRANCH   6   9
ATOM      9  C   UNL     1     -35.106  21.497   1.788  0.00  0.00    -0.043 C 
BRANCH   9  10
ATOM     10  N   UNL     1     -34.948  20.320   0.899  0.00  0.00    +0.387 N 
ATOM     11  C   UNL     1     -33.891  19.355   1.454  0.00  0.00    -0.096 C 
ATOM     12  C   UNL     1     -36.271  19.554   0.768  0.00  0.00    -0.096 C 
ATOM     13  C   UNL     1     -34.506  20.753  -0.506  0.00  0.00    -0.096 C 
ENDBRANCH   9  10
ENDBRANCH   6   9
ENDBRANCH   5   6
ENDBRANCH   3   5
BRANCH   2  14
ATOM     14  C   UNL     1     -35.852  24.941   5.255  0.00  0.00    +0.115 C 
BRANCH  14  15
ATOM     15  C   UNL     1     -36.284  25.973   4.229  0.00  0.00    +0.179 C 
BRANCH  15  16
ATOM     16  S   UNL     1     -37.485  25.336   3.103  0.00  0.00    +0.024 S 
ATOM     17  O   UNL     1     -38.184  26.537   2.649  0.00  0.00    -0.069 OA
ATOM     18  O   UNL     1     -36.669  24.675   2.085  0.00  0.00    -0.069 OA
ATOM     19  O   UNL     1     -38.280  24.436   3.936  0.00  0.00    -0.069 OA
ENDBRANCH  15  16
ENDBRANCH  14  15
ENDBRANCH   2  14
TORSDOF 8
ENDMDL
MODEL 3
REMARK VINA RESULT:      -4.8      2.179      3.231
REMARK  Name = 195150
REMARK  8 active torsions:
REMARK  status: ('A' for Active; 'I' for Inactive)
REMARK    1  A    between atoms: N_2  and  C_14
REMARK    2  A    between atoms: C_3  and  C_5
REMARK    3  A    between atoms: C_5  and  C_6
REMARK    4  A    between atoms: C_6  and  O_7
REMARK    5  A    between atoms: C_6  and  C_9
REMARK    6  A    between atoms: C_9  and  N_10
REMARK    7  A    between atoms: C_14  and  C_15
REMARK    8  A    between atoms: C_15  and  S_16
REMARK                            x       y       z     vdW  Elec       q    Type
REMARK                         _______ _______ _______ _____ _____    ______ ____
ROOT
ATOM      1  O   UNL     1     -35.256  21.016   4.548  0.00  0.00    -0.275 OA
ATOM      2  N   UNL     1     -35.660  23.255   4.078  0.00  0.00    -0.303 N 
ATOM      3  C   UNL     1     -35.467  21.922   3.746  0.00  0.00    +0.225 C 
ATOM      4  H   UNL     1     -35.822  23.901   3.353  0.00  0.00    +0.149 HD
ENDROOT
BRANCH   3   5
ATOM      5  C   UNL     1     -35.554  21.705   2.242  0.00  0.00    +0.112 C 
BRANCH   5   6
ATOM      6  C   UNL     1     -36.750  20.840   1.833  0.00  0.00    +0.100 C 
BRANCH   6   7
ATOM      7  O   UNL     1     -36.816  19.711   2.706  0.00  0.00    -0.386 OA
ATOM      8  H   UNL     1     -36.156  19.807   3.409  0.00  0.00    +0.210 HD
ENDBRANCH   6   7
BRANCH   6   9
ATOM      9  C   UNL     1     -38.083  21.587   1.869  0.00  0.00    -0.043 C 
BRANCH   9  10
ATOM     10  N   UNL     1     -38.639  21.748   0.503  0.00  0.00    +0.387 N 
ATOM     11  C   UNL     1     -40.133  21.399   0.477  0.00  0.00    -0.096 C 
ATOM     12  C   UNL     1     -38.477  23.193   0.016  0.00  0.00    -0.096 C 
ATOM     13  C   UNL     1     -37.917  20.825  -0.490  0.00  0.00    -0.096 C 
ENDBRANCH   9  10
ENDBRANCH   6   9
ENDBRANCH   5   6
ENDBRANCH   3   5
BRANCH   2  14
ATOM     14  C   UNL     1     -35.634  23.740   5.439  0.00  0.00    +0.115 C 
BRANCH  14  15
ATOM     15  C   UNL     1     -35.768  25.250   5.511  0.00  0.00    +0.179 C 
BRANCH  15  16
ATOM     16  S   UNL     1     -34.249  26.075   5.156  0.00  0.00    +0.024 S 
ATOM     17  O   UNL     1     -33.784  26.501   6.474  0.00  0.00    -0.069 OA
ATOM     18  O   UNL     1     -33.442  25.031   4.525  0.00  0.00    -0.069 OA
ATOM     19  O   UNL     1     -34.658  27.160   4.265  0.00  0.00    -0.069 OA
ENDBRANCH  15  16
ENDBRANCH  14  15
ENDBRANCH   2  14
TORSDOF 8
ENDMDL
MODEL 4
REMARK VINA RESULT:      -4.8      2.172      3.118
REMARK  Name = 195150
REMARK  8 active torsions:
REMARK  status: ('A' for Active; 'I' for Inactive)
REMARK    1  A    between atoms: N_2  and  C_14
REMARK    2  A    between atoms: C_3  and  C_5
REMARK    3  A    between atoms: C_5  and  C_6
REMARK    4  A    between atoms: C_6  and  O_7
REMARK    5  A    between atoms: C_6  and  C_9
REMARK    6  A    between atoms: C_9  and  N_10
REMARK    7  A    between atoms: C_14  and  C_15
REMARK    8  A    between atoms: C_15  and  S_16
REMARK                            x       y       z     vdW  Elec       q    Type
REMARK                         _______ _______ _______ _____ _____    ______ ____
ROOT
ATOM      1  O   UNL     1     -35.227  20.905   4.568  0.00  0.00    -0.275 OA
ATOM      2  N   UNL     1     -35.500  23.167   4.117  0.00  0.00    -0.303 N 
ATOM      3  C   UNL     1     -35.383  21.829   3.774  0.00  0.00    +0.225 C 
ATOM      4  H   UNL     1     -35.621  23.828   3.397  0.00  0.00    +0.149 HD
ENDROOT
BRANCH   3   5
ATOM      5  C   UNL     1     -35.475  21.630   2.267  0.00  0.00    +0.112 C 
BRANCH   5   6
ATOM      6  C   UNL     1     -36.754  20.904   1.840  0.00  0.00    +0.100 C 
BRANCH   6   7
ATOM      7  O   UNL     1     -36.860  19.688   2.582  0.00  0.00    -0.386 OA
ATOM      8  H   UNL     1     -36.602  19.849   3.503  0.00  0.00    +0.210 HD
ENDBRANCH   6   7
BRANCH   6   9
ATOM      9  C   UNL     1     -38.022  21.733   2.044  0.00  0.00    -0.043 C 
BRANCH   9  10
ATOM     10  N   UNL     1     -38.712  21.974   0.752  0.00  0.00    +0.387 N 
ATOM     11  C   UNL     1     -37.801  22.737  -0.220  0.00  0.00    -0.096 C 
ATOM     12  C   UNL     1     -39.111  20.648   0.092  0.00  0.00    -0.096 C 
ATOM     13  C   UNL     1     -39.986  22.806   0.962  0.00  0.00    -0.096 C 
ENDBRANCH   9  10
ENDBRANCH   6   9
ENDBRANCH   5   6
ENDBRANCH   3   5
BRANCH   2  14
ATOM     14  C   UNL     1     -35.453  23.639   5.482  0.00  0.00    +0.115 C 
BRANCH  14  15
ATOM     15  C   UNL     1     -35.695  25.133   5.581  0.00  0.00    +0.179 C 
BRANCH  15  16
ATOM     16  S   UNL     1     -34.264  26.074   5.156  0.00  0.00    +0.024 S 
ATOM     17  O   UNL     1     -33.417  25.101   4.468  0.00  0.00    -0.069 OA
ATOM     18  O   UNL     1     -34.802  27.133   4.303  0.00  0.00    -0.069 OA
ATOM     19  O   UNL     1     -33.761  26.522   6.453  0.00  0.00    -0.069 OA
ENDBRANCH  15  16
ENDBRANCH  14  15
ENDBRANCH   2  14
TORSDOF 8
ENDMDL
MODEL 5
REMARK VINA RESULT:      -4.8      3.214      6.051
REMARK  Name = 195150
REMARK  8 active torsions:
REMARK  status: ('A' for Active; 'I' for Inactive)
REMARK    1  A    between atoms: N_2  and  C_14
REMARK    2  A    between atoms: C_3  and  C_5
REMARK    3  A    between atoms: C_5  and  C_6
REMARK    4  A    between atoms: C_6  and  O_7
REMARK    5  A    between atoms: C_6  and  C_9
REMARK    6  A    between atoms: C_9  and  N_10
REMARK    7  A    between atoms: C_14  and  C_15
REMARK    8  A    between atoms: C_15  and  S_16
REMARK                            x       y       z     vdW  Elec       q    Type
REMARK                         _______ _______ _______ _____ _____    ______ ____
ROOT
ATOM      1  O   UNL     1     -35.186  21.001   5.561  0.00  0.00    -0.275 OA
ATOM      2  N   UNL     1     -35.570  22.257   3.644  0.00  0.00    -0.303 N 
ATOM      3  C   UNL     1     -35.379  22.081   5.007  0.00  0.00    +0.225 C 
ATOM      4  H   UNL     1     -35.717  23.169   3.305  0.00  0.00    +0.149 HD
ENDROOT
BRANCH   3   5
ATOM      5  C   UNL     1     -35.432  23.407   5.753  0.00  0.00    +0.112 C 
BRANCH   5   6
ATOM      6  C   UNL     1     -35.713  24.597   4.832  0.00  0.00    +0.100 C 
BRANCH   6   7
ATOM      7  O   UNL     1     -37.123  24.828   4.801  0.00  0.00    -0.386 OA
ATOM      8  H   UNL     1     -37.590  23.981   4.868  0.00  0.00    +0.210 HD
ENDBRANCH   6   7
BRANCH   6   9
ATOM      9  C   UNL     1     -34.999  25.879   5.258  0.00  0.00    -0.043 C 
BRANCH   9  10
ATOM     10  N   UNL     1     -34.245  26.470   4.124  0.00  0.00    +0.387 N 
ATOM     11  C   UNL     1     -35.156  27.359   3.267  0.00  0.00    -0.096 C 
ATOM     12  C   UNL     1     -33.081  27.329   4.633  0.00  0.00    -0.096 C 
ATOM     13  C   UNL     1     -33.668  25.369   3.222  0.00  0.00    -0.096 C 
ENDBRANCH   9  10
ENDBRANCH   6   9
ENDBRANCH   5   6
ENDBRANCH   3   5
BRANCH   2  14
ATOM     14  C   UNL     1     -35.563  21.164   2.699  0.00  0.00    +0.115 C 
BRANCH  14  15
ATOM     15  C   UNL     1     -36.887  21.028   1.971  0.00  0.00    +0.179 C 
BRANCH  15  16
ATOM     16  S   UNL     1     -37.664  22.589   1.695  0.00  0.00    +0.024 S 
ATOM     17  O   UNL     1     -36.550  23.449   1.298  0.00  0.00    -0.069 OA
ATOM     18  O   UNL     1     -38.627  22.298   0.634  0.00  0.00    -0.069 OA
ATOM     19  O   UNL     1     -38.254  22.904   2.995  0.00  0.00    -0.069 OA
ENDBRANCH  15  16
ENDBRANCH  14  15
ENDBRANCH   2  14
TORSDOF 8
ENDMDL
MODEL 6
REMARK VINA RESULT:      -4.7      1.273      1.737
REMARK  Name = 195150
REMARK  8 active torsions:
REMARK  status: ('A' for Active; 'I' for Inactive)
REMARK    1  A    between atoms: N_2  and  C_14
REMARK    2  A    between atoms: C_3  and  C_5
REMARK    3  A    between atoms: C_5  and  C_6
REMARK    4  A    between atoms: C_6  and  O_7
REMARK    5  A    between atoms: C_6  and  C_9
REMARK    6  A    between atoms: C_9  and  N_10
REMARK    7  A    between atoms: C_14  and  C_15
REMARK    8  A    between atoms: C_15  and  S_16
REMARK                            x       y       z     vdW  Elec       q    Type
REMARK                         _______ _______ _______ _____ _____    ______ ____
ROOT
ATOM      1  O   UNL     1     -37.433  23.077   3.496  0.00  0.00    -0.275 OA
ATOM      2  N   UNL     1     -35.302  23.712   4.168  0.00  0.00    -0.303 N 
ATOM      3  C   UNL     1     -36.217  23.089   3.331  0.00  0.00    +0.225 C 
ATOM      4  H   UNL     1     -34.346  23.658   3.941  0.00  0.00    +0.149 HD
ENDROOT
BRANCH   3   5
ATOM      5  C   UNL     1     -35.525  22.410   2.157  0.00  0.00    +0.112 C 
BRANCH   5   6
ATOM      6  C   UNL     1     -35.243  20.926   2.408  0.00  0.00    +0.100 C 
BRANCH   6   7
ATOM      7  O   UNL     1     -35.768  20.572   3.689  0.00  0.00    -0.386 OA
ATOM      8  H   UNL     1     -36.731  20.475   3.628  0.00  0.00    +0.210 HD
ENDBRANCH   6   7
BRANCH   6   9
ATOM      9  C   UNL     1     -35.839  20.004   1.345  0.00  0.00    -0.043 C 
BRANCH   9  10
ATOM     10  N   UNL     1     -34.772  19.388   0.518  0.00  0.00    +0.387 N 
ATOM     11  C   UNL     1     -34.303  20.356  -0.577  0.00  0.00    -0.096 C 
ATOM     12  C   UNL     1     -33.559  19.018   1.381  0.00  0.00    -0.096 C 
ATOM     13  C   UNL     1     -35.282  18.110  -0.163  0.00  0.00    -0.096 C 
ENDBRANCH   9  10
ENDBRANCH   6   9
ENDBRANCH   5   6
ENDBRANCH   3   5
BRANCH   2  14
ATOM     14  C   UNL     1     -35.688  24.436   5.357  0.00  0.00    +0.115 C 
BRANCH  14  15
ATOM     15  C   UNL     1     -34.675  25.502   5.732  0.00  0.00    +0.179 C 
BRANCH  15  16
ATOM     16  S   UNL     1     -34.093  26.398   4.327  0.00  0.00    +0.024 S 
ATOM     17  O   UNL     1     -33.112  25.490   3.735  0.00  0.00    -0.069 OA
ATOM     18  O   UNL     1     -35.306  26.597   3.534  0.00  0.00    -0.069 OA
ATOM     19  O   UNL     1     -33.534  27.614   4.914  0.00  0.00    -0.069 OA
ENDBRANCH  15  16
ENDBRANCH  14  15
ENDBRANCH   2  14
TORSDOF 8
ENDMDL
MODEL 7
REMARK VINA RESULT:      -4.6      4.057      6.279
REMARK  Name = 195150
REMARK  8 active torsions:
REMARK  status: ('A' for Active; 'I' for Inactive)
REMARK    1  A    between atoms: N_2  and  C_14
REMARK    2  A    between atoms: C_3  and  C_5
REMARK    3  A    between atoms: C_5  and  C_6
REMARK    4  A    between atoms: C_6  and  O_7
REMARK    5  A    between atoms: C_6  and  C_9
REMARK    6  A    between atoms: C_9  and  N_10
REMARK    7  A    between atoms: C_14  and  C_15
REMARK    8  A    between atoms: C_15  and  S_16
REMARK                            x       y       z     vdW  Elec       q    Type
REMARK                         _______ _______ _______ _____ _____    ______ ____
ROOT
ATOM      1  O   UNL     1     -35.675  22.109   3.981  0.00  0.00    -0.275 OA
ATOM      2  N   UNL     1     -37.270  23.769   3.671  0.00  0.00    -0.303 N 
ATOM      3  C   UNL     1     -36.138  23.214   4.250  0.00  0.00    +0.225 C 
ATOM      4  H   UNL     1     -37.555  24.665   3.962  0.00  0.00    +0.149 HD
ENDROOT
BRANCH   3   5
ATOM      5  C   UNL     1     -35.521  24.153   5.277  0.00  0.00    +0.112 C 
BRANCH   5   6
ATOM      6  C   UNL     1     -35.536  25.617   4.829  0.00  0.00    +0.100 C 
BRANCH   6   7
ATOM      7  O   UNL     1     -36.648  26.271   5.444  0.00  0.00    -0.386 OA
ATOM      8  H   UNL     1     -36.425  26.491   6.362  0.00  0.00    +0.210 HD
ENDBRANCH   6   7
BRANCH   6   9
ATOM      9  C   UNL     1     -34.252  26.373   5.171  0.00  0.00    -0.043 C 
BRANCH   9  10
ATOM     10  N   UNL     1     -33.639  26.956   3.952  0.00  0.00    +0.387 N 
ATOM     11  C   UNL     1     -33.119  25.852   3.021  0.00  0.00    -0.096 C 
ATOM     12  C   UNL     1     -34.662  27.794   3.175  0.00  0.00    -0.096 C 
ATOM     13  C   UNL     1     -32.458  27.865   4.319  0.00  0.00    -0.096 C 
ENDBRANCH   9  10
ENDBRANCH   6   9
ENDBRANCH   5   6
ENDBRANCH   3   5
BRANCH   2  14
ATOM     14  C   UNL     1     -38.050  23.094   2.659  0.00  0.00    +0.115 C 
BRANCH  14  15
ATOM     15  C   UNL     1     -38.769  24.068   1.745  0.00  0.00    +0.179 C 
BRANCH  15  16
ATOM     16  S   UNL     1     -39.506  25.402   2.635  0.00  0.00    +0.024 S 
ATOM     17  O   UNL     1     -39.972  24.764   3.865  0.00  0.00    -0.069 OA
ATOM     18  O   UNL     1     -38.398  26.340   2.808  0.00  0.00    -0.069 OA
ATOM     19  O   UNL     1     -40.566  25.858   1.737  0.00  0.00    -0.069 OA
ENDBRANCH  15  16
ENDBRANCH  14  15
ENDBRANCH   2  14
TORSDOF 8
ENDMDL
MODEL 8
REMARK VINA RESULT:      -4.6      3.228      5.024
REMARK  Name = 195150
REMARK  8 active torsions:
REMARK  status: ('A' for Active; 'I' for Inactive)
REMARK    1  A    between atoms: N_2  and  C_14
REMARK    2  A    between atoms: C_3  and  C_5
REMARK    3  A    between atoms: C_5  and  C_6
REMARK    4  A    between atoms: C_6  and  O_7
REMARK    5  A    between atoms: C_6  and  C_9
REMARK    6  A    between atoms: C_9  and  N_10
REMARK    7  A    between atoms: C_14  and  C_15
REMARK    8  A    between atoms: C_15  and  S_16
REMARK                            x       y       z     vdW  Elec       q    Type
REMARK                         _______ _______ _______ _____ _____    ______ ____
ROOT
ATOM      1  O   UNL     1     -35.966  23.886   2.612  0.00  0.00    -0.275 OA
ATOM      2  N   UNL     1     -37.780  22.489   3.003  0.00  0.00    -0.303 N 
ATOM      3  C   UNL     1     -36.431  22.810   2.977  0.00  0.00    +0.225 C 
ATOM      4  H   UNL     1     -38.044  21.594   3.315  0.00  0.00    +0.149 HD
ENDROOT
BRANCH   3   5
ATOM      5  C   UNL     1     -35.574  21.652   3.470  0.00  0.00    +0.112 C 
BRANCH   5   6
ATOM      6  C   UNL     1     -35.516  20.489   2.475  0.00  0.00    +0.100 C 
BRANCH   6   7
ATOM      7  O   UNL     1     -36.757  19.783   2.525  0.00  0.00    -0.386 OA
ATOM      8  H   UNL     1     -36.912  19.343   1.675  0.00  0.00    +0.210 HD
ENDBRANCH   6   7
BRANCH   6   9
ATOM      9  C   UNL     1     -35.242  20.929   1.038  0.00  0.00    -0.043 C 
BRANCH   9  10
ATOM     10  N   UNL     1     -34.147  20.128   0.436  0.00  0.00    +0.387 N 
ATOM     11  C   UNL     1     -32.997  21.034  -0.025  0.00  0.00    -0.096 C 
ATOM     12  C   UNL     1     -33.587  19.124   1.451  0.00  0.00    -0.096 C 
ATOM     13  C   UNL     1     -34.653  19.344  -0.783  0.00  0.00    -0.096 C 
ENDBRANCH   9  10
ENDBRANCH   6   9
ENDBRANCH   5   6
ENDBRANCH   3   5
BRANCH   2  14
ATOM     14  C   UNL     1     -38.817  23.409   2.593  0.00  0.00    +0.115 C 
BRANCH  14  15
ATOM     15  C   UNL     1     -39.300  23.134   1.181  0.00  0.00    +0.179 C 
BRANCH  15  16
ATOM     16  S   UNL     1     -39.896  21.484   0.986  0.00  0.00    +0.024 S 
ATOM     17  O   UNL     1     -40.967  21.631   0.003  0.00  0.00    -0.069 OA
ATOM     18  O   UNL     1     -38.718  20.758   0.511  0.00  0.00    -0.069 OA
ATOM     19  O   UNL     1     -40.338  21.127   2.332  0.00  0.00    -0.069 OA
ENDBRANCH  15  16
ENDBRANCH  14  15
ENDBRANCH   2  14
TORSDOF 8
ENDMDL
MODEL 9
REMARK VINA RESULT:      -4.6      2.864      4.341
REMARK  Name = 195150
REMARK  8 active torsions:
REMARK  status: ('A' for Active; 'I' for Inactive)
REMARK    1  A    between atoms: N_2  and  C_14
REMARK    2  A    between atoms: C_3  and  C_5
REMARK    3  A    between atoms: C_5  and  C_6
REMARK    4  A    between atoms: C_6  and  O_7
REMARK    5  A    between atoms: C_6  and  C_9
REMARK    6  A    between atoms: C_9  and  N_10
REMARK    7  A    between atoms: C_14  and  C_15
REMARK    8  A    between atoms: C_15  and  S_16
REMARK                            x       y       z     vdW  Elec       q    Type
REMARK                         _______ _______ _______ _____ _____    ______ ____
ROOT
ATOM      1  O   UNL     1     -37.551  27.620   1.531  0.00  0.00    -0.275 OA
ATOM      2  N   UNL     1     -35.840  26.629   2.751  0.00  0.00    -0.303 N 
ATOM      3  C   UNL     1     -37.052  26.638   2.076  0.00  0.00    +0.225 C 
ATOM      4  H   UNL     1     -35.533  25.784   3.152  0.00  0.00    +0.149 HD
ENDROOT
BRANCH   3   5
ATOM      5  C   UNL     1     -37.705  25.263   2.083  0.00  0.00    +0.112 C 
BRANCH   5   6
ATOM      6  C   UNL     1     -37.095  24.321   3.125  0.00  0.00    +0.100 C 
BRANCH   6   7
ATOM      7  O   UNL     1     -37.575  24.695   4.417  0.00  0.00    -0.386 OA
ATOM      8  H   UNL     1     -37.253  24.062   5.077  0.00  0.00    +0.210 HD
ENDBRANCH   6   7
BRANCH   6   9
ATOM      9  C   UNL     1     -37.414  22.847   2.874  0.00  0.00    -0.043 C 
BRANCH   9  10
ATOM     10  N   UNL     1     -36.170  22.045   2.768  0.00  0.00    +0.387 N 
ATOM     11  C   UNL     1     -35.151  22.736   1.851  0.00  0.00    -0.096 C 
ATOM     12  C   UNL     1     -35.523  21.859   4.146  0.00  0.00    -0.096 C 
ATOM     13  C   UNL     1     -36.466  20.655   2.188  0.00  0.00    -0.096 C 
ENDBRANCH   9  10
ENDBRANCH   6   9
ENDBRANCH   5   6
ENDBRANCH   3   5
BRANCH   2  14
ATOM     14  C   UNL     1     -35.007  27.801   2.891  0.00  0.00    +0.115 C 
BRANCH  14  15
ATOM     15  C   UNL     1     -33.749  27.516   3.692  0.00  0.00    +0.179 C 
BRANCH  15  16
ATOM     16  S   UNL     1     -34.014  26.303   4.947  0.00  0.00    +0.024 S 
ATOM     17  O   UNL     1     -32.962  26.594   5.919  0.00  0.00    -0.069 OA
ATOM     18  O   UNL     1     -35.373  26.589   5.404  0.00  0.00    -0.069 OA
ATOM     19  O   UNL     1     -33.858  25.039   4.228  0.00  0.00    -0.069 OA
ENDBRANCH  15  16
ENDBRANCH  14  15
ENDBRANCH   2  14
TORSDOF 8
ENDMDL
