MODEL 1
REMARK VINA RESULT:      -6.4      0.000      0.000
REMARK  Name = 54799
REMARK  8 active torsions:
REMARK  status: ('A' for Active; 'I' for Inactive)
REMARK    1  A    between atoms: C_5  and  C_12
REMARK    2  A    between atoms: C_6  and  O_22
REMARK    3  A    between atoms: C_7  and  O_30
REMARK    4  A    between atoms: C_9  and  O_24
REMARK    5  A    between atoms: C_10  and  O_26
REMARK    6  A    between atoms: C_11  and  O_28
REMARK    7  A    between atoms: C_15  and  O_18
REMARK    8  A    between atoms: C_17  and  O_20
REMARK                            x       y       z     vdW  Elec       q    Type
REMARK                         _______ _______ _______ _____ _____    ______ ____
ROOT
ATOM      1  O   UNL     1     -34.123  26.297   4.112  0.00  0.00    -0.447 OA
ATOM      2  O   UNL     1     -36.856  27.920   1.565  0.00  0.00    -0.283 OA
ATOM      3  C   UNL     1     -34.838  28.175   2.754  0.00  0.00    +0.117 A 
ATOM      4  C   UNL     1     -33.942  27.566   3.627  0.00  0.00    +0.188 A 
ATOM      5  C   UNL     1     -35.244  25.588   3.709  0.00  0.00    +0.182 A 
ATOM      6  C   UNL     1     -32.800  28.249   4.046  0.00  0.00    +0.210 A 
ATOM      7  C   UNL     1     -34.601  29.471   2.291  0.00  0.00    +0.177 A 
ATOM      8  C   UNL     1     -36.034  27.431   2.330  0.00  0.00    +0.238 A 
ATOM      9  C   UNL     1     -36.193  26.062   2.878  0.00  0.00    +0.212 A 
ATOM     10  C   UNL     1     -32.559  29.544   3.586  0.00  0.00    +0.212 A 
ATOM     11  C   UNL     1     -33.458  30.154   2.709  0.00  0.00    +0.209 A 
ENDROOT
BRANCH   5  12
ATOM     12  C   UNL     1     -35.296  24.243   4.302  0.00  0.00    +0.041 C 
ATOM     13  C   UNL     1     -35.458  23.124   3.483  0.00  0.00    +0.043 C 
ATOM     14  C   UNL     1     -35.183  24.084   5.684  0.00  0.00    +0.006 C 
ATOM     15  C   UNL     1     -35.508  21.848   4.045  0.00  0.00    +0.168 C 
ATOM     16  C   UNL     1     -35.233  22.808   6.246  0.00  0.00    +0.040 C 
ATOM     17  C   UNL     1     -35.395  21.690   5.427  0.00  0.00    +0.167 C 
BRANCH  15  18
ATOM     18  O   UNL     1     -35.666  20.765   3.235  0.00  0.00    -0.503 OA
ATOM     19  H   UNL     1     -35.319  19.933   3.490  0.00  0.00    +0.292 HD
ENDBRANCH  15  18
BRANCH  17  20
ATOM     20  O   UNL     1     -35.441  20.449   5.988  0.00  0.00    -0.503 OA
ATOM     21  H   UNL     1     -34.748  19.839   5.831  0.00  0.00    +0.292 HD
ENDBRANCH  17  20
ENDBRANCH   5  12
BRANCH   6  22
ATOM     22  O   UNL     1     -31.918  27.658   4.902  0.00  0.00    -0.465 OA
ATOM     23  C   UNL     1     -32.177  27.799   6.296  0.00  0.00    +0.253 C 
ENDBRANCH   6  22
BRANCH   9  24
ATOM     24  O   UNL     1     -37.328  25.383   2.490  0.00  0.00    -0.465 OA
ATOM     25  C   UNL     1     -38.383  25.604   3.406  0.00  0.00    +0.253 C 
ENDBRANCH   9  24
BRANCH  10  26
ATOM     26  O   UNL     1     -31.443  30.215   3.992  0.00  0.00    -0.465 OA
ATOM     27  C   UNL     1     -31.594  31.114   5.089  0.00  0.00    +0.253 C 
ENDBRANCH  10  26
BRANCH  11  28
ATOM     28  O   UNL     1     -33.217  31.421   2.264  0.00  0.00    -0.465 OA
ATOM     29  C   UNL     1     -32.425  31.553   1.088  0.00  0.00    +0.253 C 
ENDBRANCH  11  28
BRANCH   7  30
ATOM     30  O   UNL     1     -35.454  30.101   1.434  0.00  0.00    -0.503 OA
ATOM     31  H   UNL     1     -35.115  30.643   0.748  0.00  0.00    +0.292 HD
ENDBRANCH   7  30
TORSDOF 8
ENDMDL
MODEL 2
REMARK VINA RESULT:      -6.2      1.402      1.754
REMARK  Name = 54799
REMARK  8 active torsions:
REMARK  status: ('A' for Active; 'I' for Inactive)
REMARK    1  A    between atoms: C_5  and  C_12
REMARK    2  A    between atoms: C_6  and  O_22
REMARK    3  A    between atoms: C_7  and  O_30
REMARK    4  A    between atoms: C_9  and  O_24
REMARK    5  A    between atoms: C_10  and  O_26
REMARK    6  A    between atoms: C_11  and  O_28
REMARK    7  A    between atoms: C_15  and  O_18
REMARK    8  A    between atoms: C_17  and  O_20
REMARK                            x       y       z     vdW  Elec       q    Type
REMARK                         _______ _______ _______ _____ _____    ______ ____
ROOT
ATOM      1  O   UNL     1     -35.072  26.254   3.279  0.00  0.00    -0.447 OA
ATOM      2  O   UNL     1     -38.402  27.182   1.127  0.00  0.00    -0.283 OA
ATOM      3  C   UNL     1     -36.275  27.841   1.896  0.00  0.00    +0.117 A 
ATOM      4  C   UNL     1     -35.165  27.465   2.647  0.00  0.00    +0.188 A 
ATOM      5  C   UNL     1     -36.125  25.361   3.160  0.00  0.00    +0.182 A 
ATOM      6  C   UNL     1     -34.084  28.338   2.780  0.00  0.00    +0.210 A 
ATOM      7  C   UNL     1     -36.315  29.090   1.272  0.00  0.00    +0.177 A 
ATOM      8  C   UNL     1     -37.401  26.902   1.773  0.00  0.00    +0.238 A 
ATOM      9  C   UNL     1     -37.259  25.602   2.473  0.00  0.00    +0.212 A 
ATOM     10  C   UNL     1     -34.119  29.586   2.158  0.00  0.00    +0.212 A 
ATOM     11  C   UNL     1     -35.233  29.961   1.405  0.00  0.00    +0.209 A 
ENDROOT
BRANCH   5  12
ATOM     12  C   UNL     1     -35.876  24.104   3.882  0.00  0.00    +0.041 C 
ATOM     13  C   UNL     1     -35.895  22.888   3.195  0.00  0.00    +0.043 C 
ATOM     14  C   UNL     1     -35.620  24.125   5.254  0.00  0.00    +0.006 C 
ATOM     15  C   UNL     1     -35.660  21.696   3.880  0.00  0.00    +0.168 C 
ATOM     16  C   UNL     1     -35.385  22.933   5.939  0.00  0.00    +0.040 C 
ATOM     17  C   UNL     1     -35.403  21.718   5.252  0.00  0.00    +0.167 C 
BRANCH  15  18
ATOM     18  O   UNL     1     -35.681  20.517   3.199  0.00  0.00    -0.503 OA
ATOM     19  H   UNL     1     -36.282  20.395   2.491  0.00  0.00    +0.292 HD
ENDBRANCH  15  18
BRANCH  17  20
ATOM     20  O   UNL     1     -35.171  20.560   5.931  0.00  0.00    -0.503 OA
ATOM     21  H   UNL     1     -35.729  19.820   5.799  0.00  0.00    +0.292 HD
ENDBRANCH  17  20
ENDBRANCH   5  12
BRANCH   6  22
ATOM     22  O   UNL     1     -32.993  27.976   3.515  0.00  0.00    -0.465 OA
ATOM     23  C   UNL     1     -31.930  27.331   2.818  0.00  0.00    +0.253 C 
ENDBRANCH   6  22
BRANCH   9  24
ATOM     24  O   UNL     1     -38.329  24.739   2.368  0.00  0.00    -0.465 OA
ATOM     25  C   UNL     1     -39.263  24.967   3.405  0.00  0.00    +0.253 C 
ENDBRANCH   9  24
BRANCH  10  26
ATOM     26  O   UNL     1     -33.065  30.441   2.286  0.00  0.00    -0.465 OA
ATOM     27  C   UNL     1     -33.013  31.230   3.473  0.00  0.00    +0.253 C 
ENDBRANCH  10  26
BRANCH  11  28
ATOM     28  O   UNL     1     -35.262  31.184   0.801  0.00  0.00    -0.465 OA
ATOM     29  C   UNL     1     -35.929  32.233   1.496  0.00  0.00    +0.253 C 
ENDBRANCH  11  28
BRANCH   7  30
ATOM     30  O   UNL     1     -37.383  29.493   0.528  0.00  0.00    -0.503 OA
ATOM     31  H   UNL     1     -38.182  29.743   0.951  0.00  0.00    +0.292 HD
ENDBRANCH   7  30
TORSDOF 8
ENDMDL
MODEL 3
REMARK VINA RESULT:      -6.2      3.679      8.192
REMARK  Name = 54799
REMARK  8 active torsions:
REMARK  status: ('A' for Active; 'I' for Inactive)
REMARK    1  A    between atoms: C_5  and  C_12
REMARK    2  A    between atoms: C_6  and  O_22
REMARK    3  A    between atoms: C_7  and  O_30
REMARK    4  A    between atoms: C_9  and  O_24
REMARK    5  A    between atoms: C_10  and  O_26
REMARK    6  A    between atoms: C_11  and  O_28
REMARK    7  A    between atoms: C_15  and  O_18
REMARK    8  A    between atoms: C_17  and  O_20
REMARK                            x       y       z     vdW  Elec       q    Type
REMARK                         _______ _______ _______ _____ _____    ______ ____
ROOT
ATOM      1  O   UNL     1     -36.431  22.664   2.238  0.00  0.00    -0.447 OA
ATOM      2  O   UNL     1     -40.491  22.953   2.115  0.00  0.00    -0.283 OA
ATOM      3  C   UNL     1     -38.548  21.834   1.395  0.00  0.00    +0.117 A 
ATOM      4  C   UNL     1     -37.159  21.787   1.477  0.00  0.00    +0.188 A 
ATOM      5  C   UNL     1     -37.107  23.633   2.963  0.00  0.00    +0.182 A 
ATOM      6  C   UNL     1     -36.448  20.819   0.767  0.00  0.00    +0.210 A 
ATOM      7  C   UNL     1     -39.238  20.913   0.603  0.00  0.00    +0.177 A 
ATOM      8  C   UNL     1     -39.271  22.866   2.154  0.00  0.00    +0.238 A 
ATOM      9  C   UNL     1     -38.445  23.794   2.964  0.00  0.00    +0.212 A 
ATOM     10  C   UNL     1     -37.134  19.897  -0.025  0.00  0.00    +0.212 A 
ATOM     11  C   UNL     1     -38.527  19.944  -0.106  0.00  0.00    +0.209 A 
ENDROOT
BRANCH   5  12
ATOM     12  C   UNL     1     -36.195  24.489   3.737  0.00  0.00    +0.041 C 
ATOM     13  C   UNL     1     -36.011  25.823   3.372  0.00  0.00    +0.043 C 
ATOM     14  C   UNL     1     -35.512  23.966   4.836  0.00  0.00    +0.006 C 
ATOM     15  C   UNL     1     -35.145  26.635   4.106  0.00  0.00    +0.168 C 
ATOM     16  C   UNL     1     -34.645  24.777   5.570  0.00  0.00    +0.040 C 
ATOM     17  C   UNL     1     -34.463  26.112   5.205  0.00  0.00    +0.167 C 
BRANCH  15  18
ATOM     18  O   UNL     1     -34.975  27.935   3.740  0.00  0.00    -0.503 OA
ATOM     19  H   UNL     1     -34.115  28.265   3.567  0.00  0.00    +0.292 HD
ENDBRANCH  15  18
BRANCH  17  20
ATOM     20  O   UNL     1     -33.615  26.894   5.930  0.00  0.00    -0.503 OA
ATOM     21  H   UNL     1     -33.939  27.658   6.365  0.00  0.00    +0.292 HD
ENDBRANCH  17  20
ENDBRANCH   5  12
BRANCH   6  22
ATOM     22  O   UNL     1     -35.088  20.768   0.844  0.00  0.00    -0.465 OA
ATOM     23  C   UNL     1     -34.527  19.871   1.799  0.00  0.00    +0.253 C 
ENDBRANCH   6  22
BRANCH   9  24
ATOM     24  O   UNL     1     -39.132  24.769   3.653  0.00  0.00    -0.465 OA
ATOM     25  C   UNL     1     -39.472  25.844   2.799  0.00  0.00    +0.253 C 
ENDBRANCH   9  24
BRANCH  10  26
ATOM     26  O   UNL     1     -36.443  18.949  -0.720  0.00  0.00    -0.465 OA
ATOM     27  C   UNL     1     -35.902  19.339  -1.981  0.00  0.00    +0.253 C 
ENDBRANCH  10  26
BRANCH  11  28
ATOM     28  O   UNL     1     -39.190  19.041  -0.884  0.00  0.00    -0.465 OA
ATOM     29  C   UNL     1     -39.547  19.459  -2.199  0.00  0.00    +0.253 C 
ENDBRANCH  11  28
BRANCH   7  30
ATOM     30  O   UNL     1     -40.597  20.925   0.497  0.00  0.00    -0.503 OA
ATOM     31  H   UNL     1     -41.019  21.556  -0.053  0.00  0.00    +0.292 HD
ENDBRANCH   7  30
TORSDOF 8
ENDMDL
MODEL 4
REMARK VINA RESULT:      -6.2      4.918      8.079
REMARK  Name = 54799
REMARK  8 active torsions:
REMARK  status: ('A' for Active; 'I' for Inactive)
REMARK    1  A    between atoms: C_5  and  C_12
REMARK    2  A    between atoms: C_6  and  O_22
REMARK    3  A    between atoms: C_7  and  O_30
REMARK    4  A    between atoms: C_9  and  O_24
REMARK    5  A    between atoms: C_10  and  O_26
REMARK    6  A    between atoms: C_11  and  O_28
REMARK    7  A    between atoms: C_15  and  O_18
REMARK    8  A    between atoms: C_17  and  O_20
REMARK                            x       y       z     vdW  Elec       q    Type
REMARK                         _______ _______ _______ _____ _____    ______ ____
ROOT
ATOM      1  O   UNL     1     -35.027  20.885   1.637  0.00  0.00    -0.447 OA
ATOM      2  O   UNL     1     -38.113  19.046  -0.282  0.00  0.00    -0.283 OA
ATOM      3  C   UNL     1     -37.402  20.764   1.164  0.00  0.00    +0.117 A 
ATOM      4  C   UNL     1     -36.307  21.348   1.793  0.00  0.00    +0.188 A 
ATOM      5  C   UNL     1     -34.814  19.793   0.810  0.00  0.00    +0.182 A 
ATOM      6  C   UNL     1     -36.485  22.454   2.626  0.00  0.00    +0.210 A 
ATOM      7  C   UNL     1     -38.686  21.280   1.361  0.00  0.00    +0.177 A 
ATOM      8  C   UNL     1     -37.185  19.599   0.293  0.00  0.00    +0.238 A 
ATOM      9  C   UNL     1     -35.785  19.130   0.151  0.00  0.00    +0.212 A 
ATOM     10  C   UNL     1     -37.765  22.972   2.825  0.00  0.00    +0.212 A 
ATOM     11  C   UNL     1     -38.864  22.387   2.193  0.00  0.00    +0.209 A 
ENDROOT
BRANCH   5  12
ATOM     12  C   UNL     1     -33.393  19.420   0.732  0.00  0.00    +0.041 C 
ATOM     13  C   UNL     1     -32.497  20.226   0.028  0.00  0.00    +0.043 C 
ATOM     14  C   UNL     1     -32.940  18.260   1.363  0.00  0.00    +0.006 C 
ATOM     15  C   UNL     1     -31.149  19.872  -0.047  0.00  0.00    +0.168 C 
ATOM     16  C   UNL     1     -31.592  17.906   1.288  0.00  0.00    +0.040 C 
ATOM     17  C   UNL     1     -30.697  18.713   0.584  0.00  0.00    +0.167 C 
BRANCH  15  18
ATOM     18  O   UNL     1     -30.285  20.667  -0.736  0.00  0.00    -0.503 OA
ATOM     19  H   UNL     1     -29.912  20.366  -1.542  0.00  0.00    +0.292 HD
ENDBRANCH  15  18
BRANCH  17  20
ATOM     20  O   UNL     1     -29.384  18.357   0.520  0.00  0.00    -0.503 OA
ATOM     21  H   UNL     1     -28.832  18.465   1.269  0.00  0.00    +0.292 HD
ENDBRANCH  17  20
ENDBRANCH   5  12
BRANCH   6  22
ATOM     22  O   UNL     1     -35.416  23.030   3.245  0.00  0.00    -0.465 OA
ATOM     23  C   UNL     1     -35.214  22.709   4.619  0.00  0.00    +0.253 C 
ENDBRANCH   6  22
BRANCH   9  24
ATOM     24  O   UNL     1     -35.596  18.026  -0.651  0.00  0.00    -0.465 OA
ATOM     25  C   UNL     1     -35.341  18.412  -1.987  0.00  0.00    +0.253 C 
ENDBRANCH   9  24
BRANCH  10  26
ATOM     26  O   UNL     1     -37.944  24.053   3.637  0.00  0.00    -0.465 OA
ATOM     27  C   UNL     1     -37.690  25.336   3.071  0.00  0.00    +0.253 C 
ENDBRANCH  10  26
BRANCH  11  28
ATOM     28  O   UNL     1     -40.112  22.898   2.393  0.00  0.00    -0.465 OA
ATOM     29  C   UNL     1     -40.568  23.875   1.462  0.00  0.00    +0.253 C 
ENDBRANCH  11  28
BRANCH   7  30
ATOM     30  O   UNL     1     -39.783  20.737   0.762  0.00  0.00    -0.503 OA
ATOM     31  H   UNL     1     -39.754  20.499  -0.144  0.00  0.00    +0.292 HD
ENDBRANCH   7  30
TORSDOF 8
ENDMDL
MODEL 5
REMARK VINA RESULT:      -6.0      2.151      4.032
REMARK  Name = 54799
REMARK  8 active torsions:
REMARK  status: ('A' for Active; 'I' for Inactive)
REMARK    1  A    between atoms: C_5  and  C_12
REMARK    2  A    between atoms: C_6  and  O_22
REMARK    3  A    between atoms: C_7  and  O_30
REMARK    4  A    between atoms: C_9  and  O_24
REMARK    5  A    between atoms: C_10  and  O_26
REMARK    6  A    between atoms: C_11  and  O_28
REMARK    7  A    between atoms: C_15  and  O_18
REMARK    8  A    between atoms: C_17  and  O_20
REMARK                            x       y       z     vdW  Elec       q    Type
REMARK                         _______ _______ _______ _____ _____    ______ ____
ROOT
ATOM      1  O   UNL     1     -36.036  25.577   2.463  0.00  0.00    -0.447 OA
ATOM      2  O   UNL     1     -34.336  25.623   6.164  0.00  0.00    -0.283 OA
ATOM      3  C   UNL     1     -34.497  26.606   4.029  0.00  0.00    +0.117 A 
ATOM      4  C   UNL     1     -35.112  26.537   2.782  0.00  0.00    +0.188 A 
ATOM      5  C   UNL     1     -36.379  24.640   3.426  0.00  0.00    +0.182 A 
ATOM      6  C   UNL     1     -34.796  27.469   1.793  0.00  0.00    +0.210 A 
ATOM      7  C   UNL     1     -33.561  27.608   4.298  0.00  0.00    +0.177 A 
ATOM      8  C   UNL     1     -34.848  25.610   5.052  0.00  0.00    +0.238 A 
ATOM      9  C   UNL     1     -35.852  24.589   4.665  0.00  0.00    +0.212 A 
ATOM     10  C   UNL     1     -33.862  28.471   2.058  0.00  0.00    +0.212 A 
ATOM     11  C   UNL     1     -33.246  28.541   3.309  0.00  0.00    +0.209 A 
ENDROOT
BRANCH   5  12
ATOM     12  C   UNL     1     -37.387  23.686   2.942  0.00  0.00    +0.041 C 
ATOM     13  C   UNL     1     -37.003  22.403   2.547  0.00  0.00    +0.043 C 
ATOM     14  C   UNL     1     -38.730  24.062   2.876  0.00  0.00    +0.006 C 
ATOM     15  C   UNL     1     -37.960  21.498   2.087  0.00  0.00    +0.168 C 
ATOM     16  C   UNL     1     -39.687  23.157   2.416  0.00  0.00    +0.040 C 
ATOM     17  C   UNL     1     -39.302  21.875   2.022  0.00  0.00    +0.167 C 
BRANCH  15  18
ATOM     18  O   UNL     1     -37.572  20.250   1.706  0.00  0.00    -0.503 OA
ATOM     19  H   UNL     1     -37.124  19.693   2.311  0.00  0.00    +0.292 HD
ENDBRANCH  15  18
BRANCH  17  20
ATOM     20  O   UNL     1     -40.246  21.000   1.575  0.00  0.00    -0.503 OA
ATOM     21  H   UNL     1     -40.406  20.205   2.044  0.00  0.00    +0.292 HD
ENDBRANCH  17  20
ENDBRANCH   5  12
BRANCH   6  22
ATOM     22  O   UNL     1     -35.395  27.406   0.570  0.00  0.00    -0.465 OA
ATOM     23  C   UNL     1     -36.592  28.160   0.397  0.00  0.00    +0.253 C 
ENDBRANCH   6  22
BRANCH   9  24
ATOM     24  O   UNL     1     -36.158  23.648   5.625  0.00  0.00    -0.465 OA
ATOM     25  C   UNL     1     -35.189  22.619   5.647  0.00  0.00    +0.253 C 
ENDBRANCH   9  24
BRANCH  10  26
ATOM     26  O   UNL     1     -33.551  29.384   1.095  0.00  0.00    -0.465 OA
ATOM     27  C   UNL     1     -32.471  29.060   0.222  0.00  0.00    +0.253 C 
ENDBRANCH  10  26
BRANCH  11  28
ATOM     28  O   UNL     1     -32.333  29.522   3.561  0.00  0.00    -0.465 OA
ATOM     29  C   UNL     1     -32.831  30.750   4.085  0.00  0.00    +0.253 C 
ENDBRANCH  11  28
BRANCH   7  30
ATOM     30  O   UNL     1     -32.938  27.710   5.506  0.00  0.00    -0.503 OA
ATOM     31  H   UNL     1     -33.431  27.618   6.298  0.00  0.00    +0.292 HD
ENDBRANCH   7  30
TORSDOF 8
ENDMDL
MODEL 6
REMARK VINA RESULT:      -5.9      3.700      8.542
REMARK  Name = 54799
REMARK  8 active torsions:
REMARK  status: ('A' for Active; 'I' for Inactive)
REMARK    1  A    between atoms: C_5  and  C_12
REMARK    2  A    between atoms: C_6  and  O_22
REMARK    3  A    between atoms: C_7  and  O_30
REMARK    4  A    between atoms: C_9  and  O_24
REMARK    5  A    between atoms: C_10  and  O_26
REMARK    6  A    between atoms: C_11  and  O_28
REMARK    7  A    between atoms: C_15  and  O_18
REMARK    8  A    between atoms: C_17  and  O_20
REMARK                            x       y       z     vdW  Elec       q    Type
REMARK                         _______ _______ _______ _____ _____    ______ ____
ROOT
ATOM      1  O   UNL     1     -35.156  21.709   2.145  0.00  0.00    -0.447 OA
ATOM      2  O   UNL     1     -39.173  21.403   1.549  0.00  0.00    -0.283 OA
ATOM      3  C   UNL     1     -37.019  20.560   1.101  0.00  0.00    +0.117 A 
ATOM      4  C   UNL     1     -35.658  20.718   1.343  0.00  0.00    +0.188 A 
ATOM      5  C   UNL     1     -36.044  22.587   2.748  0.00  0.00    +0.182 A 
ATOM      6  C   UNL     1     -34.738  19.846   0.758  0.00  0.00    +0.210 A 
ATOM      7  C   UNL     1     -37.474  19.530   0.274  0.00  0.00    +0.177 A 
ATOM      8  C   UNL     1     -37.966  21.494   1.730  0.00  0.00    +0.238 A 
ATOM      9  C   UNL     1     -37.381  22.552   2.589  0.00  0.00    +0.212 A 
ATOM     10  C   UNL     1     -35.188  18.816  -0.068  0.00  0.00    +0.212 A 
ATOM     11  C   UNL     1     -36.554  18.658  -0.310  0.00  0.00    +0.209 A 
ENDROOT
BRANCH   5  12
ATOM     12  C   UNL     1     -35.360  23.584   3.585  0.00  0.00    +0.041 C 
ATOM     13  C   UNL     1     -34.542  24.549   2.995  0.00  0.00    +0.043 C 
ATOM     14  C   UNL     1     -35.528  23.566   4.971  0.00  0.00    +0.006 C 
ATOM     15  C   UNL     1     -33.892  25.494   3.789  0.00  0.00    +0.168 C 
ATOM     16  C   UNL     1     -34.879  24.512   5.765  0.00  0.00    +0.040 C 
ATOM     17  C   UNL     1     -34.062  25.476   5.174  0.00  0.00    +0.167 C 
BRANCH  15  18
ATOM     18  O   UNL     1     -33.097  26.430   3.201  0.00  0.00    -0.503 OA
ATOM     19  H   UNL     1     -33.454  27.012   2.559  0.00  0.00    +0.292 HD
ENDBRANCH  15  18
BRANCH  17  20
ATOM     20  O   UNL     1     -33.433  26.394   5.960  0.00  0.00    -0.503 OA
ATOM     21  H   UNL     1     -32.509  26.522   5.884  0.00  0.00    +0.292 HD
ENDBRANCH  17  20
ENDBRANCH   5  12
BRANCH   6  22
ATOM     22  O   UNL     1     -33.403  19.995   0.991  0.00  0.00    -0.465 OA
ATOM     23  C   UNL     1     -32.654  20.717   0.017  0.00  0.00    +0.253 C 
ENDBRANCH   6  22
BRANCH   9  24
ATOM     24  O   UNL     1     -38.276  23.433   3.156  0.00  0.00    -0.465 OA
ATOM     25  C   UNL     1     -38.449  24.572   2.335  0.00  0.00    +0.253 C 
ENDBRANCH   9  24
BRANCH  10  26
ATOM     26  O   UNL     1     -34.292  17.962  -0.641  0.00  0.00    -0.465 OA
ATOM     27  C   UNL     1     -33.794  16.905   0.176  0.00  0.00    +0.253 C 
ENDBRANCH  10  26
BRANCH  11  28
ATOM     28  O   UNL     1     -36.986  17.650  -1.120  0.00  0.00    -0.465 OA
ATOM     29  C   UNL     1     -37.387  16.438  -0.487  0.00  0.00    +0.253 C 
ENDBRANCH  11  28
BRANCH   7  30
ATOM     30  O   UNL     1     -38.799  19.343   0.013  0.00  0.00    -0.503 OA
ATOM     31  H   UNL     1     -39.086  18.561  -0.416  0.00  0.00    +0.292 HD
ENDBRANCH   7  30
TORSDOF 8
ENDMDL
MODEL 7
REMARK VINA RESULT:      -5.9      1.690      4.224
REMARK  Name = 54799
REMARK  8 active torsions:
REMARK  status: ('A' for Active; 'I' for Inactive)
REMARK    1  A    between atoms: C_5  and  C_12
REMARK    2  A    between atoms: C_6  and  O_22
REMARK    3  A    between atoms: C_7  and  O_30
REMARK    4  A    between atoms: C_9  and  O_24
REMARK    5  A    between atoms: C_10  and  O_26
REMARK    6  A    between atoms: C_11  and  O_28
REMARK    7  A    between atoms: C_15  and  O_18
REMARK    8  A    between atoms: C_17  and  O_20
REMARK                            x       y       z     vdW  Elec       q    Type
REMARK                         _______ _______ _______ _____ _____    ______ ____
ROOT
ATOM      1  O   UNL     1     -36.142  25.747   2.924  0.00  0.00    -0.447 OA
ATOM      2  O   UNL     1     -33.299  28.538   3.770  0.00  0.00    -0.283 OA
ATOM      3  C   UNL     1     -35.248  27.974   2.573  0.00  0.00    +0.117 A 
ATOM      4  C   UNL     1     -36.189  26.978   2.325  0.00  0.00    +0.188 A 
ATOM      5  C   UNL     1     -35.119  25.485   3.822  0.00  0.00    +0.182 A 
ATOM      6  C   UNL     1     -37.236  27.212   1.433  0.00  0.00    +0.210 A 
ATOM      7  C   UNL     1     -35.346  29.211   1.932  0.00  0.00    +0.177 A 
ATOM      8  C   UNL     1     -34.154  27.699   3.517  0.00  0.00    +0.238 A 
ATOM      9  C   UNL     1     -34.141  26.355   4.143  0.00  0.00    +0.212 A 
ATOM     10  C   UNL     1     -37.337  28.447   0.791  0.00  0.00    +0.212 A 
ATOM     11  C   UNL     1     -36.394  29.445   1.041  0.00  0.00    +0.209 A 
ENDROOT
BRANCH   5  12
ATOM     12  C   UNL     1     -35.208  24.131   4.390  0.00  0.00    +0.041 C 
ATOM     13  C   UNL     1     -35.338  23.026   3.547  0.00  0.00    +0.043 C 
ATOM     14  C   UNL     1     -35.164  23.950   5.774  0.00  0.00    +0.006 C 
ATOM     15  C   UNL     1     -35.424  21.743   4.086  0.00  0.00    +0.168 C 
ATOM     16  C   UNL     1     -35.250  22.667   6.313  0.00  0.00    +0.040 C 
ATOM     17  C   UNL     1     -35.379  21.563   5.469  0.00  0.00    +0.167 C 
BRANCH  15  18
ATOM     18  O   UNL     1     -35.550  20.673   3.253  0.00  0.00    -0.503 OA
ATOM     19  H   UNL     1     -36.129  19.971   3.474  0.00  0.00    +0.292 HD
ENDBRANCH  15  18
BRANCH  17  20
ATOM     20  O   UNL     1     -35.461  20.314   6.008  0.00  0.00    -0.503 OA
ATOM     21  H   UNL     1     -35.737  20.205   6.896  0.00  0.00    +0.292 HD
ENDBRANCH  17  20
ENDBRANCH   5  12
BRANCH   6  22
ATOM     22  O   UNL     1     -38.160  26.240   1.185  0.00  0.00    -0.465 OA
ATOM     23  C   UNL     1     -39.299  26.199   2.041  0.00  0.00    +0.253 C 
ENDBRANCH   6  22
BRANCH   9  24
ATOM     24  O   UNL     1     -33.100  26.102   5.010  0.00  0.00    -0.465 OA
ATOM     25  C   UNL     1     -33.320  26.732   6.257  0.00  0.00    +0.253 C 
ENDBRANCH   9  24
BRANCH  10  26
ATOM     26  O   UNL     1     -38.359  28.679  -0.081  0.00  0.00    -0.465 OA
ATOM     27  C   UNL     1     -38.132  28.341  -1.447  0.00  0.00    +0.253 C 
ENDBRANCH  10  26
BRANCH  11  28
ATOM     28  O   UNL     1     -36.499  30.649   0.409  0.00  0.00    -0.465 OA
ATOM     29  C   UNL     1     -37.234  31.669   1.079  0.00  0.00    +0.253 C 
ENDBRANCH  11  28
BRANCH   7  30
ATOM     30  O   UNL     1     -34.446  30.212   2.149  0.00  0.00    -0.503 OA
ATOM     31  H   UNL     1     -33.856  30.468   1.467  0.00  0.00    +0.292 HD
ENDBRANCH   7  30
TORSDOF 8
ENDMDL
MODEL 8
REMARK VINA RESULT:      -5.9      2.575      4.234
REMARK  Name = 54799
REMARK  8 active torsions:
REMARK  status: ('A' for Active; 'I' for Inactive)
REMARK    1  A    between atoms: C_5  and  C_12
REMARK    2  A    between atoms: C_6  and  O_22
REMARK    3  A    between atoms: C_7  and  O_30
REMARK    4  A    between atoms: C_9  and  O_24
REMARK    5  A    between atoms: C_10  and  O_26
REMARK    6  A    between atoms: C_11  and  O_28
REMARK    7  A    between atoms: C_15  and  O_18
REMARK    8  A    between atoms: C_17  and  O_20
REMARK                            x       y       z     vdW  Elec       q    Type
REMARK                         _______ _______ _______ _____ _____    ______ ____
ROOT
ATOM      1  O   UNL     1     -34.569  24.055   2.178  0.00  0.00    -0.447 OA
ATOM      2  O   UNL     1     -34.921  25.062   6.109  0.00  0.00    -0.283 OA
ATOM      3  C   UNL     1     -34.111  25.624   3.969  0.00  0.00    +0.117 A 
ATOM      4  C   UNL     1     -34.023  25.224   2.639  0.00  0.00    +0.188 A 
ATOM      5  C   UNL     1     -35.244  23.240   3.074  0.00  0.00    +0.182 A 
ATOM      6  C   UNL     1     -33.358  26.025   1.710  0.00  0.00    +0.210 A 
ATOM      7  C   UNL     1     -33.535  26.828   4.383  0.00  0.00    +0.177 A 
ATOM      8  C   UNL     1     -34.817  24.759   4.927  0.00  0.00    +0.238 A 
ATOM      9  C   UNL     1     -35.392  23.503   4.387  0.00  0.00    +0.212 A 
ATOM     10  C   UNL     1     -32.782  27.228   2.119  0.00  0.00    +0.212 A 
ATOM     11  C   UNL     1     -32.871  27.630   3.453  0.00  0.00    +0.209 A 
ENDROOT
BRANCH   5  12
ATOM     12  C   UNL     1     -35.782  22.031   2.432  0.00  0.00    +0.041 C 
ATOM     13  C   UNL     1     -37.150  21.926   2.175  0.00  0.00    +0.043 C 
ATOM     14  C   UNL     1     -34.925  20.987   2.080  0.00  0.00    +0.006 C 
ATOM     15  C   UNL     1     -37.660  20.779   1.567  0.00  0.00    +0.168 C 
ATOM     16  C   UNL     1     -35.435  19.839   1.472  0.00  0.00    +0.040 C 
ATOM     17  C   UNL     1     -36.803  19.736   1.215  0.00  0.00    +0.167 C 
BRANCH  15  18
ATOM     18  O   UNL     1     -38.997  20.690   1.321  0.00  0.00    -0.503 OA
ATOM     19  H   UNL     1     -39.348  21.013   0.515  0.00  0.00    +0.292 HD
ENDBRANCH  15  18
BRANCH  17  20
ATOM     20  O   UNL     1     -37.290  18.611   0.620  0.00  0.00    -0.503 OA
ATOM     21  H   UNL     1     -37.247  17.789   1.067  0.00  0.00    +0.292 HD
ENDBRANCH  17  20
ENDBRANCH   5  12
BRANCH   6  22
ATOM     22  O   UNL     1     -33.269  25.639   0.405  0.00  0.00    -0.465 OA
ATOM     23  C   UNL     1     -32.108  24.903   0.027  0.00  0.00    +0.253 C 
ENDBRANCH   6  22
BRANCH   9  24
ATOM     24  O   UNL     1     -36.033  22.692   5.297  0.00  0.00    -0.465 OA
ATOM     25  C   UNL     1     -35.116  21.815   5.923  0.00  0.00    +0.253 C 
ENDBRANCH   9  24
BRANCH  10  26
ATOM     26  O   UNL     1     -32.132  28.014   1.214  0.00  0.00    -0.465 OA
ATOM     27  C   UNL     1     -32.909  28.999   0.536  0.00  0.00    +0.253 C 
ENDBRANCH  10  26
BRANCH  11  28
ATOM     28  O   UNL     1     -32.304  28.806   3.846  0.00  0.00    -0.465 OA
ATOM     29  C   UNL     1     -30.945  28.759   4.271  0.00  0.00    +0.253 C 
ENDBRANCH  11  28
BRANCH   7  30
ATOM     30  O   UNL     1     -33.600  27.255   5.676  0.00  0.00    -0.503 OA
ATOM     31  H   UNL     1     -32.867  27.693   6.062  0.00  0.00    +0.292 HD
ENDBRANCH   7  30
TORSDOF 8
ENDMDL
MODEL 9
REMARK VINA RESULT:      -5.7      3.240      7.936
REMARK  Name = 54799
REMARK  8 active torsions:
REMARK  status: ('A' for Active; 'I' for Inactive)
REMARK    1  A    between atoms: C_5  and  C_12
REMARK    2  A    between atoms: C_6  and  O_22
REMARK    3  A    between atoms: C_7  and  O_30
REMARK    4  A    between atoms: C_9  and  O_24
REMARK    5  A    between atoms: C_10  and  O_26
REMARK    6  A    between atoms: C_11  and  O_28
REMARK    7  A    between atoms: C_15  and  O_18
REMARK    8  A    between atoms: C_17  and  O_20
REMARK                            x       y       z     vdW  Elec       q    Type
REMARK                         _______ _______ _______ _____ _____    ______ ____
ROOT
ATOM      1  O   UNL     1     -37.667  24.331   2.832  0.00  0.00    -0.447 OA
ATOM      2  O   UNL     1     -36.949  20.409   2.001  0.00  0.00    -0.283 OA
ATOM      3  C   UNL     1     -38.393  22.259   1.802  0.00  0.00    +0.117 A 
ATOM      4  C   UNL     1     -38.582  23.601   2.119  0.00  0.00    +0.188 A 
ATOM      5  C   UNL     1     -36.501  23.707   3.249  0.00  0.00    +0.182 A 
ATOM      6  C   UNL     1     -39.740  24.261   1.707  0.00  0.00    +0.210 A 
ATOM      7  C   UNL     1     -39.361  21.565   1.071  0.00  0.00    +0.177 A 
ATOM      8  C   UNL     1     -37.163  21.588   2.250  0.00  0.00    +0.238 A 
ATOM      9  C   UNL     1     -36.201  22.414   3.019  0.00  0.00    +0.212 A 
ATOM     10  C   UNL     1     -40.708  23.572   0.977  0.00  0.00    +0.212 A 
ATOM     11  C   UNL     1     -40.519  22.226   0.659  0.00  0.00    +0.209 A 
ENDROOT
BRANCH   5  12
ATOM     12  C   UNL     1     -35.616  24.618   3.991  0.00  0.00    +0.041 C 
ATOM     13  C   UNL     1     -34.454  25.105   3.390  0.00  0.00    +0.043 C 
ATOM     14  C   UNL     1     -35.936  24.994   5.296  0.00  0.00    +0.006 C 
ATOM     15  C   UNL     1     -33.613  25.968   4.094  0.00  0.00    +0.168 C 
ATOM     16  C   UNL     1     -35.096  25.857   6.000  0.00  0.00    +0.040 C 
ATOM     17  C   UNL     1     -33.935  26.344   5.399  0.00  0.00    +0.167 C 
BRANCH  15  18
ATOM     18  O   UNL     1     -32.483  26.437   3.497  0.00  0.00    -0.503 OA
ATOM     19  H   UNL     1     -31.715  26.599   4.008  0.00  0.00    +0.292 HD
ENDBRANCH  15  18
BRANCH  17  20
ATOM     20  O   UNL     1     -33.122  27.187   6.096  0.00  0.00    -0.503 OA
ATOM     21  H   UNL     1     -33.250  28.113   6.039  0.00  0.00    +0.292 HD
ENDBRANCH  17  20
ENDBRANCH   5  12
BRANCH   6  22
ATOM     22  O   UNL     1     -39.930  25.576   2.015  0.00  0.00    -0.465 OA
ATOM     23  C   UNL     1     -40.685  25.863   3.189  0.00  0.00    +0.253 C 
ENDBRANCH   6  22
BRANCH   9  24
ATOM     24  O   UNL     1     -35.062  21.769   3.451  0.00  0.00    -0.465 OA
ATOM     25  C   UNL     1     -35.188  21.378   4.805  0.00  0.00    +0.253 C 
ENDBRANCH   9  24
BRANCH  10  26
ATOM     26  O   UNL     1     -41.842  24.213   0.572  0.00  0.00    -0.465 OA
ATOM     27  C   UNL     1     -41.761  24.968  -0.634  0.00  0.00    +0.253 C 
ENDBRANCH  10  26
BRANCH  11  28
ATOM     28  O   UNL     1     -41.470  21.558  -0.054  0.00  0.00    -0.465 OA
ATOM     29  C   UNL     1     -41.264  21.444  -1.459  0.00  0.00    +0.253 C 
ENDBRANCH  11  28
BRANCH   7  30
ATOM     30  O   UNL     1     -39.213  20.250   0.741  0.00  0.00    -0.503 OA
ATOM     31  H   UNL     1     -38.364  19.854   0.761  0.00  0.00    +0.292 HD
ENDBRANCH   7  30
TORSDOF 8
ENDMDL
