MODEL 1
REMARK VINA RESULT:      -6.3      0.000      0.000
REMARK  Name = 194582
REMARK  8 active torsions:
REMARK  status: ('A' for Active; 'I' for Inactive)
REMARK    1  A    between atoms: C_2  and  O_7
REMARK    2  A    between atoms: C_3  and  O_9
REMARK    3  A    between atoms: C_4  and  O_11
REMARK    4  A    between atoms: C_5  and  C_14
REMARK    5  A    between atoms: C_6  and  O_17
REMARK    6  A    between atoms: C_14  and  O_15
REMARK    7  A    between atoms: O_17  and  C_19
REMARK    8  A    between atoms: C_19  and  C_20
REMARK                            x       y       z     vdW  Elec       q    Type
REMARK                         _______ _______ _______ _____ _____    ______ ____
ROOT
ATOM      1  O   UNL     1     -35.839  22.222   2.419  0.00  0.00    -0.307 OA
ATOM      2  C   UNL     1     -36.089  22.941   5.189  0.00  0.00    +0.173 C 
ATOM      3  C   UNL     1     -36.321  23.947   4.062  0.00  0.00    +0.178 C 
ATOM      4  C   UNL     1     -35.225  21.769   4.722  0.00  0.00    +0.211 C 
ATOM      5  C   UNL     1     -36.765  23.238   2.789  0.00  0.00    +0.246 C 
ATOM      6  C   UNL     1     -35.740  21.194   3.402  0.00  0.00    +0.321 C 
ENDROOT
BRANCH   2   7
ATOM      7  O   UNL     1     -35.431  23.622   6.259  0.00  0.00    -0.379 OA
ATOM      8  H   UNL     1     -35.627  23.175   7.096  0.00  0.00    +0.211 HD
ENDBRANCH   2   7
BRANCH   3   9
ATOM      9  O   UNL     1     -37.343  24.861   4.456  0.00  0.00    -0.379 OA
ATOM     10  H   UNL     1     -37.470  24.810   5.416  0.00  0.00    +0.211 HD
ENDBRANCH   3   9
BRANCH   4  11
ATOM     11  O   UNL     1     -35.260  20.734   5.704  0.00  0.00    -0.377 OA
ATOM     12  H   UNL     1     -34.478  20.169   5.606  0.00  0.00    +0.211 HD
ENDBRANCH   4  11
BRANCH   5  14
ATOM     13  O   UNL     1     -36.708  25.389   1.695  0.00  0.00    -0.247 OA
ATOM     14  C   UNL     1     -36.738  24.169   1.620  0.00  0.00    +0.344 C 
BRANCH  14  15
ATOM     15  O   UNL     1     -36.752  23.477   0.455  0.00  0.00    -0.478 OA
ATOM     16  H   UNL     1     -36.152  23.699  -0.229  0.00  0.00    +0.295 HD
ENDBRANCH  14  15
ENDBRANCH   5  14
BRANCH   6  17
ATOM     17  O   UNL     1     -34.816  20.198   2.966  0.00  0.00    -0.419 OA
BRANCH  17  19
ATOM     18  O   UNL     1     -35.882  19.803   0.964  0.00  0.00    -0.245 OA
ATOM     19  C   UNL     1     -34.872  19.874   1.647  0.00  0.00    +0.343 C 
BRANCH  19  20
ATOM     20  C   UNL     1     -33.512  19.605   1.116  0.00  0.00    +0.072 C 
ATOM     21  C   UNL     1     -32.873  20.547   0.335  0.00  0.00    -0.016 C 
ATOM     22  C   UNL     1     -32.923  18.396   1.432  0.00  0.00    +0.006 C 
ATOM     23  C   UNL     1     -31.595  20.271  -0.150  0.00  0.00    -0.004 C 
ATOM     24  C   UNL     1     -33.508  21.856  -0.008  0.00  0.00    +0.031 C 
ATOM     25  C   UNL     1     -31.645  18.119   0.946  0.00  0.00    +0.000 C 
ATOM     26  C   UNL     1     -30.981  19.056   0.155  0.00  0.00    -0.000 C 
ENDBRANCH  19  20
ENDBRANCH  17  19
ENDBRANCH   6  17
TORSDOF 8
ENDMDL
MODEL 2
REMARK VINA RESULT:      -6.2      1.765      2.653
REMARK  Name = 194582
REMARK  8 active torsions:
REMARK  status: ('A' for Active; 'I' for Inactive)
REMARK    1  A    between atoms: C_2  and  O_7
REMARK    2  A    between atoms: C_3  and  O_9
REMARK    3  A    between atoms: C_4  and  O_11
REMARK    4  A    between atoms: C_5  and  C_14
REMARK    5  A    between atoms: C_6  and  O_17
REMARK    6  A    between atoms: C_14  and  O_15
REMARK    7  A    between atoms: O_17  and  C_19
REMARK    8  A    between atoms: C_19  and  C_20
REMARK                            x       y       z     vdW  Elec       q    Type
REMARK                         _______ _______ _______ _____ _____    ______ ____
ROOT
ATOM      1  O   UNL     1     -34.687  23.649   3.121  0.00  0.00    -0.307 OA
ATOM      2  C   UNL     1     -37.395  24.598   3.260  0.00  0.00    +0.173 C 
ATOM      3  C   UNL     1     -36.224  25.387   3.846  0.00  0.00    +0.178 C 
ATOM      4  C   UNL     1     -37.053  23.115   3.118  0.00  0.00    +0.211 C 
ATOM      5  C   UNL     1     -34.929  25.052   3.118  0.00  0.00    +0.246 C 
ATOM      6  C   UNL     1     -35.700  22.922   2.432  0.00  0.00    +0.321 C 
ENDROOT
BRANCH   2   7
ATOM      7  O   UNL     1     -38.512  24.748   4.138  0.00  0.00    -0.379 OA
ATOM      8  H   UNL     1     -38.262  25.311   4.886  0.00  0.00    +0.211 HD
ENDBRANCH   2   7
BRANCH   3   9
ATOM      9  O   UNL     1     -36.483  26.782   3.702  0.00  0.00    -0.379 OA
ATOM     10  H   UNL     1     -36.005  27.273   4.389  0.00  0.00    +0.211 HD
ENDBRANCH   3   9
BRANCH   4  11
ATOM     11  O   UNL     1     -38.051  22.472   2.325  0.00  0.00    -0.377 OA
ATOM     12  H   UNL     1     -37.694  22.287   1.443  0.00  0.00    +0.211 HD
ENDBRANCH   4  11
BRANCH   5  14
ATOM     13  O   UNL     1     -32.653  25.826   3.345  0.00  0.00    -0.247 OA
ATOM     14  C   UNL     1     -33.747  25.607   3.845  0.00  0.00    +0.344 C 
BRANCH  14  15
ATOM     15  O   UNL     1     -34.050  25.837   5.146  0.00  0.00    -0.478 OA
ATOM     16  H   UNL     1     -34.375  25.140   5.681  0.00  0.00    +0.295 HD
ENDBRANCH  14  15
ENDBRANCH   5  14
BRANCH   6  17
ATOM     17  O   UNL     1     -35.391  21.529   2.452  0.00  0.00    -0.419 OA
BRANCH  17  19
ATOM     18  O   UNL     1     -36.306  20.837   0.457  0.00  0.00    -0.245 OA
ATOM     19  C   UNL     1     -35.375  20.908   1.243  0.00  0.00    +0.343 C 
BRANCH  19  20
ATOM     20  C   UNL     1     -34.044  20.301   0.985  0.00  0.00    +0.072 C 
ATOM     21  C   UNL     1     -33.100  20.989   0.249  0.00  0.00    -0.016 C 
ATOM     22  C   UNL     1     -33.795  19.046   1.503  0.00  0.00    +0.006 C 
ATOM     23  C   UNL     1     -31.858  20.398   0.021  0.00  0.00    -0.004 C 
ATOM     24  C   UNL     1     -33.367  22.348  -0.313  0.00  0.00    +0.031 C 
ATOM     25  C   UNL     1     -32.553  18.454   1.275  0.00  0.00    +0.000 C 
ATOM     26  C   UNL     1     -31.584  19.130   0.534  0.00  0.00    -0.000 C 
ENDBRANCH  19  20
ENDBRANCH  17  19
ENDBRANCH   6  17
TORSDOF 8
ENDMDL
MODEL 3
REMARK VINA RESULT:      -6.2      1.323      1.778
REMARK  Name = 194582
REMARK  8 active torsions:
REMARK  status: ('A' for Active; 'I' for Inactive)
REMARK    1  A    between atoms: C_2  and  O_7
REMARK    2  A    between atoms: C_3  and  O_9
REMARK    3  A    between atoms: C_4  and  O_11
REMARK    4  A    between atoms: C_5  and  C_14
REMARK    5  A    between atoms: C_6  and  O_17
REMARK    6  A    between atoms: C_14  and  O_15
REMARK    7  A    between atoms: O_17  and  C_19
REMARK    8  A    between atoms: C_19  and  C_20
REMARK                            x       y       z     vdW  Elec       q    Type
REMARK                         _______ _______ _______ _____ _____    ______ ____
ROOT
ATOM      1  O   UNL     1     -35.422  24.234   1.895  0.00  0.00    -0.307 OA
ATOM      2  C   UNL     1     -36.503  23.076   4.291  0.00  0.00    +0.173 C 
ATOM      3  C   UNL     1     -36.597  24.572   3.995  0.00  0.00    +0.178 C 
ATOM      4  C   UNL     1     -35.365  22.422   3.507  0.00  0.00    +0.211 C 
ATOM      5  C   UNL     1     -36.568  24.829   2.494  0.00  0.00    +0.246 C 
ATOM      6  C   UNL     1     -35.413  22.816   2.030  0.00  0.00    +0.321 C 
ENDROOT
BRANCH   2   7
ATOM      7  O   UNL     1     -36.270  22.916   5.692  0.00  0.00    -0.379 OA
ATOM      8  H   UNL     1     -35.647  23.593   5.995  0.00  0.00    +0.211 HD
ENDBRANCH   2   7
BRANCH   3   9
ATOM      9  O   UNL     1     -37.824  25.075   4.522  0.00  0.00    -0.379 OA
ATOM     10  H   UNL     1     -38.455  24.345   4.625  0.00  0.00    +0.211 HD
ENDBRANCH   3   9
BRANCH   4  11
ATOM     11  O   UNL     1     -35.482  21.003   3.595  0.00  0.00    -0.377 OA
ATOM     12  H   UNL     1     -36.420  20.755   3.605  0.00  0.00    +0.211 HD
ENDBRANCH   4  11
BRANCH   5  14
ATOM     13  O   UNL     1     -35.342  26.812   1.872  0.00  0.00    -0.247 OA
ATOM     14  C   UNL     1     -36.393  26.284   2.203  0.00  0.00    +0.344 C 
BRANCH  14  15
ATOM     15  O   UNL     1     -37.564  26.949   2.359  0.00  0.00    -0.478 OA
ATOM     16  H   UNL     1     -38.334  26.650   1.918  0.00  0.00    +0.295 HD
ENDBRANCH  14  15
ENDBRANCH   5  14
BRANCH   6  17
ATOM     17  O   UNL     1     -34.255  22.279   1.393  0.00  0.00    -0.419 OA
BRANCH  17  19
ATOM     18  O   UNL     1     -35.421  21.168  -0.251  0.00  0.00    -0.245 OA
ATOM     19  C   UNL     1     -34.476  21.264   0.517  0.00  0.00    +0.343 C 
BRANCH  19  20
ATOM     20  C   UNL     1     -33.398  20.247   0.611  0.00  0.00    +0.072 C 
ATOM     21  C   UNL     1     -32.182  20.469  -0.003  0.00  0.00    -0.016 C 
ATOM     22  C   UNL     1     -33.658  19.094   1.324  0.00  0.00    +0.006 C 
ATOM     23  C   UNL     1     -31.184  19.499   0.100  0.00  0.00    -0.004 C 
ATOM     24  C   UNL     1     -31.898  21.716  -0.776  0.00  0.00    +0.031 C 
ATOM     25  C   UNL     1     -32.661  18.123   1.428  0.00  0.00    +0.000 C 
ATOM     26  C   UNL     1     -31.425  18.326   0.815  0.00  0.00    -0.000 C 
ENDBRANCH  19  20
ENDBRANCH  17  19
ENDBRANCH   6  17
TORSDOF 8
ENDMDL
MODEL 4
REMARK VINA RESULT:      -6.1      4.964      6.861
REMARK  Name = 194582
REMARK  8 active torsions:
REMARK  status: ('A' for Active; 'I' for Inactive)
REMARK    1  A    between atoms: C_2  and  O_7
REMARK    2  A    between atoms: C_3  and  O_9
REMARK    3  A    between atoms: C_4  and  O_11
REMARK    4  A    between atoms: C_5  and  C_14
REMARK    5  A    between atoms: C_6  and  O_17
REMARK    6  A    between atoms: C_14  and  O_15
REMARK    7  A    between atoms: O_17  and  C_19
REMARK    8  A    between atoms: C_19  and  C_20
REMARK                            x       y       z     vdW  Elec       q    Type
REMARK                         _______ _______ _______ _____ _____    ______ ____
ROOT
ATOM      1  O   UNL     1     -32.801  27.656   4.048  0.00  0.00    -0.307 OA
ATOM      2  C   UNL     1     -31.724  29.002   6.346  0.00  0.00    +0.173 C 
ATOM      3  C   UNL     1     -31.390  29.433   4.919  0.00  0.00    +0.178 C 
ATOM      4  C   UNL     1     -32.195  27.548   6.395  0.00  0.00    +0.211 C 
ATOM      5  C   UNL     1     -32.510  29.047   3.962  0.00  0.00    +0.246 C 
ATOM      6  C   UNL     1     -33.269  27.279   5.340  0.00  0.00    +0.321 C 
ENDROOT
BRANCH   2   7
ATOM      7  O   UNL     1     -30.545  29.148   7.140  0.00  0.00    -0.379 OA
ATOM      8  H   UNL     1     -30.429  30.080   7.379  0.00  0.00    +0.211 HD
ENDBRANCH   2   7
BRANCH   3   9
ATOM      9  O   UNL     1     -31.227  30.850   4.885  0.00  0.00    -0.379 OA
ATOM     10  H   UNL     1     -30.447  31.074   4.355  0.00  0.00    +0.211 HD
ENDBRANCH   3   9
BRANCH   4  11
ATOM     11  O   UNL     1     -32.751  27.273   7.680  0.00  0.00    -0.377 OA
ATOM     12  H   UNL     1     -33.200  26.413   7.660  0.00  0.00    +0.211 HD
ENDBRANCH   4  11
BRANCH   5  14
ATOM     13  O   UNL     1     -32.840  29.308   1.585  0.00  0.00    -0.247 OA
ATOM     14  C   UNL     1     -32.083  29.221   2.540  0.00  0.00    +0.344 C 
BRANCH  14  15
ATOM     15  O   UNL     1     -30.731  29.268   2.448  0.00  0.00    -0.478 OA
ATOM     16  H   UNL     1     -30.303  30.079   2.258  0.00  0.00    +0.295 HD
ENDBRANCH  14  15
ENDBRANCH   5  14
BRANCH   6  17
ATOM     17  O   UNL     1     -33.563  25.883   5.358  0.00  0.00    -0.419 OA
BRANCH  17  19
ATOM     18  O   UNL     1     -35.815  26.303   5.582  0.00  0.00    -0.245 OA
ATOM     19  C   UNL     1     -34.881  25.554   5.339  0.00  0.00    +0.343 C 
BRANCH  19  20
ATOM     20  C   UNL     1     -35.059  24.125   4.978  0.00  0.00    +0.072 C 
ATOM     21  C   UNL     1     -35.183  23.755   3.654  0.00  0.00    -0.016 C 
ATOM     22  C   UNL     1     -35.092  23.200   6.002  0.00  0.00    +0.006 C 
ATOM     23  C   UNL     1     -35.347  22.406   3.340  0.00  0.00    -0.004 C 
ATOM     24  C   UNL     1     -35.147  24.754   2.543  0.00  0.00    +0.031 C 
ATOM     25  C   UNL     1     -35.258  21.850   5.689  0.00  0.00    +0.000 C 
ATOM     26  C   UNL     1     -35.385  21.453   4.358  0.00  0.00    -0.000 C 
ENDBRANCH  19  20
ENDBRANCH  17  19
ENDBRANCH   6  17
TORSDOF 8
ENDMDL
MODEL 5
REMARK VINA RESULT:      -6.1      3.578      5.575
REMARK  Name = 194582
REMARK  8 active torsions:
REMARK  status: ('A' for Active; 'I' for Inactive)
REMARK    1  A    between atoms: C_2  and  O_7
REMARK    2  A    between atoms: C_3  and  O_9
REMARK    3  A    between atoms: C_4  and  O_11
REMARK    4  A    between atoms: C_5  and  C_14
REMARK    5  A    between atoms: C_6  and  O_17
REMARK    6  A    between atoms: C_14  and  O_15
REMARK    7  A    between atoms: O_17  and  C_19
REMARK    8  A    between atoms: C_19  and  C_20
REMARK                            x       y       z     vdW  Elec       q    Type
REMARK                         _______ _______ _______ _____ _____    ______ ____
ROOT
ATOM      1  O   UNL     1     -38.732  24.089   2.809  0.00  0.00    -0.307 OA
ATOM      2  C   UNL     1     -39.887  22.256   0.922  0.00  0.00    +0.173 C 
ATOM      3  C   UNL     1     -40.552  23.586   1.278  0.00  0.00    +0.178 C 
ATOM      4  C   UNL     1     -38.922  21.804   2.018  0.00  0.00    +0.211 C 
ATOM      5  C   UNL     1     -39.514  24.603   1.736  0.00  0.00    +0.246 C 
ATOM      6  C   UNL     1     -37.983  22.938   2.432  0.00  0.00    +0.321 C 
ENDROOT
BRANCH   2   7
ATOM      7  O   UNL     1     -40.915  21.278   0.758  0.00  0.00    -0.379 OA
ATOM      8  H   UNL     1     -41.772  21.722   0.664  0.00  0.00    +0.211 HD
ENDBRANCH   2   7
BRANCH   3   9
ATOM      9  O   UNL     1     -41.216  24.098   0.124  0.00  0.00    -0.379 OA
ATOM     10  H   UNL     1     -40.868  23.664  -0.670  0.00  0.00    +0.211 HD
ENDBRANCH   3   9
BRANCH   4  11
ATOM     11  O   UNL     1     -38.129  20.720   1.534  0.00  0.00    -0.377 OA
ATOM     12  H   UNL     1     -38.207  20.669   0.568  0.00  0.00    +0.211 HD
ENDBRANCH   4  11
BRANCH   5  14
ATOM     13  O   UNL     1     -41.253  26.257   1.991  0.00  0.00    -0.247 OA
ATOM     14  C   UNL     1     -40.171  25.805   2.334  0.00  0.00    +0.344 C 
BRANCH  14  15
ATOM     15  O   UNL     1     -39.400  26.334   3.315  0.00  0.00    -0.478 OA
ATOM     16  H   UNL     1     -38.883  27.096   3.145  0.00  0.00    +0.295 HD
ENDBRANCH  14  15
ENDBRANCH   5  14
BRANCH   6  17
ATOM     17  O   UNL     1     -37.207  22.484   3.540  0.00  0.00    -0.419 OA
BRANCH  17  19
ATOM     18  O   UNL     1     -35.280  21.470   2.792  0.00  0.00    -0.245 OA
ATOM     19  C   UNL     1     -35.867  22.397   3.329  0.00  0.00    +0.343 C 
BRANCH  19  20
ATOM     20  C   UNL     1     -35.176  23.603   3.850  0.00  0.00    +0.072 C 
ATOM     21  C   UNL     1     -34.898  23.715   5.198  0.00  0.00    -0.016 C 
ATOM     22  C   UNL     1     -34.828  24.589   2.947  0.00  0.00    +0.006 C 
ATOM     23  C   UNL     1     -34.248  24.858   5.662  0.00  0.00    -0.004 C 
ATOM     24  C   UNL     1     -35.274  22.650   6.176  0.00  0.00    +0.031 C 
ATOM     25  C   UNL     1     -34.178  25.732   3.412  0.00  0.00    +0.000 C 
ATOM     26  C   UNL     1     -33.888  25.867   4.769  0.00  0.00    -0.000 C 
ENDBRANCH  19  20
ENDBRANCH  17  19
ENDBRANCH   6  17
TORSDOF 8
ENDMDL
MODEL 6
REMARK VINA RESULT:      -6.0      4.623      7.281
REMARK  Name = 194582
REMARK  8 active torsions:
REMARK  status: ('A' for Active; 'I' for Inactive)
REMARK    1  A    between atoms: C_2  and  O_7
REMARK    2  A    between atoms: C_3  and  O_9
REMARK    3  A    between atoms: C_4  and  O_11
REMARK    4  A    between atoms: C_5  and  C_14
REMARK    5  A    between atoms: C_6  and  O_17
REMARK    6  A    between atoms: C_14  and  O_15
REMARK    7  A    between atoms: O_17  and  C_19
REMARK    8  A    between atoms: C_19  and  C_20
REMARK                            x       y       z     vdW  Elec       q    Type
REMARK                         _______ _______ _______ _____ _____    ______ ____
ROOT
ATOM      1  O   UNL     1     -36.397  26.424   3.572  0.00  0.00    -0.307 OA
ATOM      2  C   UNL     1     -35.889  23.705   4.349  0.00  0.00    +0.173 C 
ATOM      3  C   UNL     1     -37.268  24.176   3.887  0.00  0.00    +0.178 C 
ATOM      4  C   UNL     1     -35.039  24.872   4.851  0.00  0.00    +0.211 C 
ATOM      5  C   UNL     1     -37.144  25.378   2.959  0.00  0.00    +0.246 C 
ATOM      6  C   UNL     1     -35.056  26.036   3.859  0.00  0.00    +0.321 C 
ENDROOT
BRANCH   2   7
ATOM      7  O   UNL     1     -36.076  22.762   5.406  0.00  0.00    -0.379 OA
ATOM      8  H   UNL     1     -36.078  21.864   5.042  0.00  0.00    +0.211 HD
ENDBRANCH   2   7
BRANCH   3   9
ATOM      9  O   UNL     1     -37.910  23.117   3.180  0.00  0.00    -0.379 OA
ATOM     10  H   UNL     1     -38.788  22.959   3.561  0.00  0.00    +0.211 HD
ENDBRANCH   3   9
BRANCH   4  11
ATOM     11  O   UNL     1     -33.688  24.441   5.011  0.00  0.00    -0.377 OA
ATOM     12  H   UNL     1     -33.598  23.968   5.854  0.00  0.00    +0.211 HD
ENDBRANCH   4  11
BRANCH   5  14
ATOM     13  O   UNL     1     -38.715  26.844   1.859  0.00  0.00    -0.247 OA
ATOM     14  C   UNL     1     -38.479  26.006   2.717  0.00  0.00    +0.344 C 
BRANCH  14  15
ATOM     15  O   UNL     1     -39.401  25.520   3.582  0.00  0.00    -0.478 OA
ATOM     16  H   UNL     1     -39.847  24.719   3.391  0.00  0.00    +0.295 HD
ENDBRANCH  14  15
ENDBRANCH   5  14
BRANCH   6  17
ATOM     17  O   UNL     1     -34.354  27.129   4.450  0.00  0.00    -0.419 OA
BRANCH  17  19
ATOM     18  O   UNL     1     -32.423  26.504   3.364  0.00  0.00    -0.245 OA
ATOM     19  C   UNL     1     -33.047  27.254   4.099  0.00  0.00    +0.343 C 
BRANCH  19  20
ATOM     20  C   UNL     1     -32.446  28.451   4.739  0.00  0.00    +0.072 C 
ATOM     21  C   UNL     1     -32.178  28.452   6.093  0.00  0.00    -0.016 C 
ATOM     22  C   UNL     1     -32.172  29.542   3.938  0.00  0.00    +0.006 C 
ATOM     23  C   UNL     1     -31.612  29.589   6.670  0.00  0.00    -0.004 C 
ATOM     24  C   UNL     1     -32.475  27.273   6.961  0.00  0.00    +0.031 C 
ATOM     25  C   UNL     1     -31.607  30.680   4.515  0.00  0.00    +0.000 C 
ATOM     26  C   UNL     1     -31.327  30.703   5.881  0.00  0.00    -0.000 C 
ENDBRANCH  19  20
ENDBRANCH  17  19
ENDBRANCH   6  17
TORSDOF 8
ENDMDL
MODEL 7
REMARK VINA RESULT:      -6.0      3.926      6.784
REMARK  Name = 194582
REMARK  8 active torsions:
REMARK  status: ('A' for Active; 'I' for Inactive)
REMARK    1  A    between atoms: C_2  and  O_7
REMARK    2  A    between atoms: C_3  and  O_9
REMARK    3  A    between atoms: C_4  and  O_11
REMARK    4  A    between atoms: C_5  and  C_14
REMARK    5  A    between atoms: C_6  and  O_17
REMARK    6  A    between atoms: C_14  and  O_15
REMARK    7  A    between atoms: O_17  and  C_19
REMARK    8  A    between atoms: C_19  and  C_20
REMARK                            x       y       z     vdW  Elec       q    Type
REMARK                         _______ _______ _______ _____ _____    ______ ____
ROOT
ATOM      1  O   UNL     1     -37.159  23.313   4.188  0.00  0.00    -0.307 OA
ATOM      2  C   UNL     1     -35.784  25.816   3.876  0.00  0.00    +0.173 C 
ATOM      3  C   UNL     1     -35.189  24.654   4.669  0.00  0.00    +0.178 C 
ATOM      4  C   UNL     1     -37.305  25.698   3.767  0.00  0.00    +0.211 C 
ATOM      5  C   UNL     1     -35.736  23.323   4.169  0.00  0.00    +0.246 C 
ATOM      6  C   UNL     1     -37.720  24.295   3.321  0.00  0.00    +0.321 C 
ENDROOT
BRANCH   2   7
ATOM      7  O   UNL     1     -35.447  27.030   4.550  0.00  0.00    -0.379 OA
ATOM      8  H   UNL     1     -35.595  27.782   3.957  0.00  0.00    +0.211 HD
ENDBRANCH   2   7
BRANCH   3   9
ATOM      9  O   UNL     1     -33.772  24.656   4.508  0.00  0.00    -0.379 OA
ATOM     10  H   UNL     1     -33.371  25.229   5.180  0.00  0.00    +0.211 HD
ENDBRANCH   3   9
BRANCH   4  11
ATOM     11  O   UNL     1     -37.785  26.634   2.803  0.00  0.00    -0.377 OA
ATOM     12  H   UNL     1     -37.573  27.535   3.093  0.00  0.00    +0.211 HD
ENDBRANCH   4  11
BRANCH   5  14
ATOM     13  O   UNL     1     -34.987  22.356   6.250  0.00  0.00    -0.247 OA
ATOM     14  C   UNL     1     -35.371  22.211   5.099  0.00  0.00    +0.344 C 
BRANCH  14  15
ATOM     15  O   UNL     1     -35.524  21.009   4.491  0.00  0.00    -0.478 OA
ATOM     16  H   UNL     1     -34.848  20.363   4.554  0.00  0.00    +0.295 HD
ENDBRANCH  14  15
ENDBRANCH   5  14
BRANCH   6  17
ATOM     17  O   UNL     1     -39.144  24.222   3.369  0.00  0.00    -0.419 OA
BRANCH  17  19
ATOM     18  O   UNL     1     -39.861  22.372   2.203  0.00  0.00    -0.245 OA
ATOM     19  C   UNL     1     -39.740  23.580   2.330  0.00  0.00    +0.343 C 
BRANCH  19  20
ATOM     20  C   UNL     1     -40.240  24.557   1.329  0.00  0.00    +0.072 C 
ATOM     21  C   UNL     1     -39.571  24.731   0.135  0.00  0.00    -0.016 C 
ATOM     22  C   UNL     1     -41.383  25.269   1.638  0.00  0.00    +0.006 C 
ATOM     23  C   UNL     1     -40.061  25.654  -0.788  0.00  0.00    -0.004 C 
ATOM     24  C   UNL     1     -38.334  23.962  -0.201  0.00  0.00    +0.031 C 
ATOM     25  C   UNL     1     -41.874  26.193   0.715  0.00  0.00    +0.000 C 
ATOM     26  C   UNL     1     -41.213  26.385  -0.498  0.00  0.00    -0.000 C 
ENDBRANCH  19  20
ENDBRANCH  17  19
ENDBRANCH   6  17
TORSDOF 8
ENDMDL
MODEL 8
REMARK VINA RESULT:      -5.7      1.398      2.058
REMARK  Name = 194582
REMARK  8 active torsions:
REMARK  status: ('A' for Active; 'I' for Inactive)
REMARK    1  A    between atoms: C_2  and  O_7
REMARK    2  A    between atoms: C_3  and  O_9
REMARK    3  A    between atoms: C_4  and  O_11
REMARK    4  A    between atoms: C_5  and  C_14
REMARK    5  A    between atoms: C_6  and  O_17
REMARK    6  A    between atoms: C_14  and  O_15
REMARK    7  A    between atoms: O_17  and  C_19
REMARK    8  A    between atoms: C_19  and  C_20
REMARK                            x       y       z     vdW  Elec       q    Type
REMARK                         _______ _______ _______ _____ _____    ______ ____
ROOT
ATOM      1  O   UNL     1     -36.904  23.657   1.887  0.00  0.00    -0.307 OA
ATOM      2  C   UNL     1     -37.223  25.043   4.384  0.00  0.00    +0.173 C 
ATOM      3  C   UNL     1     -37.631  25.665   3.049  0.00  0.00    +0.178 C 
ATOM      4  C   UNL     1     -36.190  23.932   4.190  0.00  0.00    +0.211 C 
ATOM      5  C   UNL     1     -37.975  24.584   2.032  0.00  0.00    +0.246 C 
ATOM      6  C   UNL     1     -36.627  22.955   3.096  0.00  0.00    +0.321 C 
ENDROOT
BRANCH   2   7
ATOM      7  O   UNL     1     -36.665  26.075   5.200  0.00  0.00    -0.379 OA
ATOM      8  H   UNL     1     -36.368  26.806   4.638  0.00  0.00    +0.211 HD
ENDBRANCH   2   7
BRANCH   3   9
ATOM      9  O   UNL     1     -38.779  26.487   3.249  0.00  0.00    -0.379 OA
ATOM     10  H   UNL     1     -39.233  26.216   4.062  0.00  0.00    +0.211 HD
ENDBRANCH   3   9
BRANCH   4  11
ATOM     11  O   UNL     1     -36.044  23.203   5.408  0.00  0.00    -0.377 OA
ATOM     12  H   UNL     1     -36.729  23.480   6.036  0.00  0.00    +0.211 HD
ENDBRANCH   4  11
BRANCH   5  14
ATOM     13  O   UNL     1     -38.643  24.602  -0.287  0.00  0.00    -0.247 OA
ATOM     14  C   UNL     1     -38.116  25.164   0.662  0.00  0.00    +0.344 C 
BRANCH  14  15
ATOM     15  O   UNL     1     -37.575  26.405   0.609  0.00  0.00    -0.478 OA
ATOM     16  H   UNL     1     -36.954  26.618  -0.059  0.00  0.00    +0.295 HD
ENDBRANCH  14  15
ENDBRANCH   5  14
BRANCH   6  17
ATOM     17  O   UNL     1     -35.563  22.030   2.883  0.00  0.00    -0.419 OA
BRANCH  17  19
ATOM     18  O   UNL     1     -36.868  20.660   1.572  0.00  0.00    -0.245 OA
ATOM     19  C   UNL     1     -35.780  21.085   1.930  0.00  0.00    +0.343 C 
BRANCH  19  20
ATOM     20  C   UNL     1     -34.494  20.614   1.357  0.00  0.00    +0.072 C 
ATOM     21  C   UNL     1     -33.803  21.405   0.462  0.00  0.00    -0.016 C 
ATOM     22  C   UNL     1     -34.027  19.376   1.751  0.00  0.00    +0.006 C 
ATOM     23  C   UNL     1     -32.597  20.940  -0.062  0.00  0.00    -0.004 C 
ATOM     24  C   UNL     1     -34.306  22.745   0.033  0.00  0.00    +0.031 C 
ATOM     25  C   UNL     1     -32.821  18.910   1.228  0.00  0.00    +0.000 C 
ATOM     26  C   UNL     1     -32.106  19.692   0.322  0.00  0.00    -0.000 C 
ENDBRANCH  19  20
ENDBRANCH  17  19
ENDBRANCH   6  17
TORSDOF 8
ENDMDL
MODEL 9
REMARK VINA RESULT:      -5.7      2.144      6.117
REMARK  Name = 194582
REMARK  8 active torsions:
REMARK  status: ('A' for Active; 'I' for Inactive)
REMARK    1  A    between atoms: C_2  and  O_7
REMARK    2  A    between atoms: C_3  and  O_9
REMARK    3  A    between atoms: C_4  and  O_11
REMARK    4  A    between atoms: C_5  and  C_14
REMARK    5  A    between atoms: C_6  and  O_17
REMARK    6  A    between atoms: C_14  and  O_15
REMARK    7  A    between atoms: O_17  and  C_19
REMARK    8  A    between atoms: C_19  and  C_20
REMARK                            x       y       z     vdW  Elec       q    Type
REMARK                         _______ _______ _______ _____ _____    ______ ____
ROOT
ATOM      1  O   UNL     1     -34.744  21.800   1.232  0.00  0.00    -0.307 OA
ATOM      2  C   UNL     1     -36.568  19.580   1.213  0.00  0.00    +0.173 C 
ATOM      3  C   UNL     1     -35.192  19.510   0.551  0.00  0.00    +0.178 C 
ATOM      4  C   UNL     1     -37.039  21.026   1.368  0.00  0.00    +0.211 C 
ATOM      5  C   UNL     1     -34.222  20.475   1.220  0.00  0.00    +0.246 C 
ATOM      6  C   UNL     1     -35.948  21.901   1.988  0.00  0.00    +0.321 C 
ENDROOT
BRANCH   2   7
ATOM      7  O   UNL     1     -37.491  18.864   0.390  0.00  0.00    -0.379 OA
ATOM      8  H   UNL     1     -37.012  18.433  -0.334  0.00  0.00    +0.211 HD
ENDBRANCH   2   7
BRANCH   3   9
ATOM      9  O   UNL     1     -34.680  18.184   0.680  0.00  0.00    -0.379 OA
ATOM     10  H   UNL     1     -34.381  17.868  -0.187  0.00  0.00    +0.211 HD
ENDBRANCH   3   9
BRANCH   4  11
ATOM     11  O   UNL     1     -38.181  21.064   2.223  0.00  0.00    -0.377 OA
ATOM     12  H   UNL     1     -38.807  20.372   1.957  0.00  0.00    +0.211 HD
ENDBRANCH   4  11
BRANCH   5  14
ATOM     13  O   UNL     1     -32.743  21.489  -0.397  0.00  0.00    -0.247 OA
ATOM     14  C   UNL     1     -32.965  20.609   0.421  0.00  0.00    +0.344 C 
BRANCH  14  15
ATOM     15  O   UNL     1     -32.096  19.614   0.726  0.00  0.00    -0.478 OA
ATOM     16  H   UNL     1     -32.038  19.297   1.606  0.00  0.00    +0.295 HD
ENDBRANCH  14  15
ENDBRANCH   5  14
BRANCH   6  17
ATOM     17  O   UNL     1     -36.409  23.251   1.980  0.00  0.00    -0.419 OA
BRANCH  17  19
ATOM     18  O   UNL     1     -37.975  23.473   3.652  0.00  0.00    -0.245 OA
ATOM     19  C   UNL     1     -36.884  23.721   3.164  0.00  0.00    +0.343 C 
BRANCH  19  20
ATOM     20  C   UNL     1     -35.885  24.607   3.813  0.00  0.00    +0.072 C 
ATOM     21  C   UNL     1     -35.201  24.177   4.932  0.00  0.00    -0.016 C 
ATOM     22  C   UNL     1     -35.673  25.855   3.261  0.00  0.00    +0.006 C 
ATOM     23  C   UNL     1     -34.267  25.027   5.524  0.00  0.00    -0.004 C 
ATOM     24  C   UNL     1     -35.429  22.828   5.532  0.00  0.00    +0.031 C 
ATOM     25  C   UNL     1     -34.739  26.706   3.852  0.00  0.00    +0.000 C 
ATOM     26  C   UNL     1     -34.036  26.292   4.983  0.00  0.00    -0.000 C 
ENDBRANCH  19  20
ENDBRANCH  17  19
ENDBRANCH   6  17
TORSDOF 8
ENDMDL
