MODEL 1
REMARK VINA RESULT:      -5.6      0.000      0.000
REMARK  Name = 195233
REMARK  7 active torsions:
REMARK  status: ('A' for Active; 'I' for Inactive)
REMARK    1  A    between atoms: C_2  and  O_15
REMARK    2  A    between atoms: C_3  and  N_8
REMARK    3  A    between atoms: C_4  and  O_17
REMARK    4  A    between atoms: C_5  and  C_21
REMARK    5  A    between atoms: C_6  and  O_19
REMARK    6  A    between atoms: C_9  and  C_14
REMARK    7  A    between atoms: C_21  and  O_22
REMARK                            x       y       z     vdW  Elec       q    Type
REMARK                         _______ _______ _______ _____ _____    ______ ____
ROOT
ATOM      1  O   UNL     1     -33.076  28.127   5.135  0.00  0.00    -0.327 OA
ATOM      2  C   UNL     1     -34.382  26.319   3.330  0.00  0.00    +0.162 C 
ATOM      3  C   UNL     1     -34.408  26.097   4.847  0.00  0.00    +0.158 C 
ATOM      4  C   UNL     1     -34.156  27.795   2.992  0.00  0.00    +0.169 C 
ATOM      5  C   UNL     1     -32.916  28.313   3.725  0.00  0.00    +0.176 C 
ATOM      6  C   UNL     1     -33.191  26.754   5.513  0.00  0.00    +0.253 C 
ENDROOT
BRANCH   3   8
ATOM      7  O   UNL     1     -36.749  24.391   5.098  0.00  0.00    -0.266 OA
ATOM      8  N   UNL     1     -34.439  24.679   5.144  0.00  0.00    -0.293 N 
ATOM      9  C   UNL     1     -35.611  23.952   5.242  0.00  0.00    +0.318 C 
ATOM     10  H   UNL     1     -33.584  24.210   5.282  0.00  0.00    +0.150 HD
BRANCH   9  14
ATOM     11  F   UNL     1     -34.046  22.285   5.863  0.00  0.00    -0.162 F 
ATOM     12  F   UNL     1     -35.662  21.692   4.523  0.00  0.00    -0.162 F 
ATOM     13  F   UNL     1     -36.077  22.083   6.627  0.00  0.00    -0.162 F 
ATOM     14  C   UNL     1     -35.350  22.509   5.562  0.00  0.00    +0.469 C 
ENDBRANCH   9  14
ENDBRANCH   3   8
BRANCH   2  15
ATOM     15  O   UNL     1     -35.612  25.879   2.763  0.00  0.00    -0.380 OA
ATOM     16  H   UNL     1     -36.178  26.645   2.583  0.00  0.00    +0.211 HD
ENDBRANCH   2  15
BRANCH   4  17
ATOM     17  O   UNL     1     -35.292  28.560   3.401  0.00  0.00    -0.379 OA
ATOM     18  H   UNL     1     -34.998  29.317   3.931  0.00  0.00    +0.211 HD
ENDBRANCH   4  17
BRANCH   6  19
ATOM     19  O   UNL     1     -33.354  26.664   6.927  0.00  0.00    -0.359 OA
ATOM     20  H   UNL     1     -33.381  27.556   7.307  0.00  0.00    +0.213 HD
ENDBRANCH   6  19
BRANCH   5  21
ATOM     21  C   UNL     1     -32.679  29.800   3.485  0.00  0.00    +0.169 C 
BRANCH  21  22
ATOM     22  O   UNL     1     -33.385  30.534   4.469  0.00  0.00    -0.379 OA
ATOM     23  H   UNL     1     -33.503  31.448   4.167  0.00  0.00    +0.211 HD
ENDBRANCH  21  22
ENDBRANCH   5  21
TORSDOF 7
ENDMDL
MODEL 2
REMARK VINA RESULT:      -5.5      4.022      6.678
REMARK  Name = 195233
REMARK  7 active torsions:
REMARK  status: ('A' for Active; 'I' for Inactive)
REMARK    1  A    between atoms: C_2  and  O_15
REMARK    2  A    between atoms: C_3  and  N_8
REMARK    3  A    between atoms: C_4  and  O_17
REMARK    4  A    between atoms: C_5  and  C_21
REMARK    5  A    between atoms: C_6  and  O_19
REMARK    6  A    between atoms: C_9  and  C_14
REMARK    7  A    between atoms: C_21  and  O_22
REMARK                            x       y       z     vdW  Elec       q    Type
REMARK                         _______ _______ _______ _____ _____    ______ ____
ROOT
ATOM      1  O   UNL     1     -36.148  21.876   0.736  0.00  0.00    -0.327 OA
ATOM      2  C   UNL     1     -35.136  21.315   3.361  0.00  0.00    +0.162 C 
ATOM      3  C   UNL     1     -35.932  22.591   3.065  0.00  0.00    +0.158 C 
ATOM      4  C   UNL     1     -35.471  20.208   2.357  0.00  0.00    +0.169 C 
ATOM      5  C   UNL     1     -35.307  20.734   0.929  0.00  0.00    +0.176 C 
ATOM      6  C   UNL     1     -35.809  22.975   1.584  0.00  0.00    +0.253 C 
ENDROOT
BRANCH   3   8
ATOM      7  O   UNL     1     -37.536  24.660   4.329  0.00  0.00    -0.266 OA
ATOM      8  N   UNL     1     -35.469  23.676   3.906  0.00  0.00    -0.293 N 
ATOM      9  C   UNL     1     -36.317  24.615   4.464  0.00  0.00    +0.318 C 
ATOM     10  H   UNL     1     -34.505  23.748   4.089  0.00  0.00    +0.150 HD
BRANCH   9  14
ATOM     11  F   UNL     1     -34.490  25.079   5.901  0.00  0.00    -0.162 F 
ATOM     12  F   UNL     1     -36.347  26.167   6.257  0.00  0.00    -0.162 F 
ATOM     13  F   UNL     1     -35.110  26.656   4.530  0.00  0.00    -0.162 F 
ATOM     14  C   UNL     1     -35.570  25.625   5.285  0.00  0.00    +0.469 C 
ENDBRANCH   9  14
ENDBRANCH   3   8
BRANCH   2  15
ATOM     15  O   UNL     1     -35.425  20.868   4.683  0.00  0.00    -0.380 OA
ATOM     16  H   UNL     1     -35.567  19.909   4.676  0.00  0.00    +0.211 HD
ENDBRANCH   2  15
BRANCH   4  17
ATOM     17  O   UNL     1     -36.823  19.785   2.545  0.00  0.00    -0.379 OA
ATOM     18  H   UNL     1     -37.133  19.328   1.748  0.00  0.00    +0.211 HD
ENDBRANCH   4  17
BRANCH   6  19
ATOM     19  O   UNL     1     -36.699  24.061   1.330  0.00  0.00    -0.359 OA
ATOM     20  H   UNL     1     -36.601  24.730   2.026  0.00  0.00    +0.213 HD
ENDBRANCH   6  19
BRANCH   5  21
ATOM     21  C   UNL     1     -35.698  19.699  -0.119  0.00  0.00    +0.169 C 
BRANCH  21  22
ATOM     22  O   UNL     1     -35.492  18.407   0.424  0.00  0.00    -0.379 OA
ATOM     23  H   UNL     1     -34.854  18.460   1.152  0.00  0.00    +0.211 HD
ENDBRANCH  21  22
ENDBRANCH   5  21
TORSDOF 7
ENDMDL
MODEL 3
REMARK VINA RESULT:      -5.4      2.999      4.176
REMARK  Name = 195233
REMARK  7 active torsions:
REMARK  status: ('A' for Active; 'I' for Inactive)
REMARK    1  A    between atoms: C_2  and  O_15
REMARK    2  A    between atoms: C_3  and  N_8
REMARK    3  A    between atoms: C_4  and  O_17
REMARK    4  A    between atoms: C_5  and  C_21
REMARK    5  A    between atoms: C_6  and  O_19
REMARK    6  A    between atoms: C_9  and  C_14
REMARK    7  A    between atoms: C_21  and  O_22
REMARK                            x       y       z     vdW  Elec       q    Type
REMARK                         _______ _______ _______ _____ _____    ______ ____
ROOT
ATOM      1  O   UNL     1     -35.013  24.338   5.823  0.00  0.00    -0.327 OA
ATOM      2  C   UNL     1     -36.242  25.199   3.378  0.00  0.00    +0.162 C 
ATOM      3  C   UNL     1     -36.749  23.969   4.141  0.00  0.00    +0.158 C 
ATOM      4  C   UNL     1     -35.509  26.165   4.312  0.00  0.00    +0.169 C 
ATOM      5  C   UNL     1     -34.424  25.416   5.089  0.00  0.00    +0.176 C 
ATOM      6  C   UNL     1     -35.625  23.354   4.986  0.00  0.00    +0.253 C 
ENDROOT
BRANCH   3   8
ATOM      7  O   UNL     1     -39.445  23.818   3.064  0.00  0.00    -0.266 OA
ATOM      8  N   UNL     1     -37.275  22.988   3.213  0.00  0.00    -0.293 N 
ATOM      9  C   UNL     1     -38.580  23.002   2.757  0.00  0.00    +0.318 C 
ATOM     10  H   UNL     1     -36.675  22.277   2.892  0.00  0.00    +0.150 HD
BRANCH   9  14
ATOM     11  F   UNL     1     -39.004  22.301   0.533  0.00  0.00    -0.162 F 
ATOM     12  F   UNL     1     -39.988  21.197   2.137  0.00  0.00    -0.162 F 
ATOM     13  F   UNL     1     -37.848  20.958   1.802  0.00  0.00    -0.162 F 
ATOM     14  C   UNL     1     -38.855  21.870   1.811  0.00  0.00    +0.469 C 
ENDBRANCH   9  14
ENDBRANCH   3   8
BRANCH   2  15
ATOM     15  O   UNL     1     -37.341  25.865   2.764  0.00  0.00    -0.380 OA
ATOM     16  H   UNL     1     -37.396  26.774   3.098  0.00  0.00    +0.211 HD
ENDBRANCH   2  15
BRANCH   4  17
ATOM     17  O   UNL     1     -36.438  26.732   5.240  0.00  0.00    -0.379 OA
ATOM     18  H   UNL     1     -35.965  27.016   6.038  0.00  0.00    +0.211 HD
ENDBRANCH   4  17
BRANCH   6  19
ATOM     19  O   UNL     1     -36.190  22.327   5.799  0.00  0.00    -0.359 OA
ATOM     20  H   UNL     1     -35.884  21.461   5.486  0.00  0.00    +0.213 HD
ENDBRANCH   6  19
BRANCH   5  21
ATOM     21  C   UNL     1     -33.704  26.310   6.092  0.00  0.00    +0.169 C 
BRANCH  21  22
ATOM     22  O   UNL     1     -33.359  27.524   5.448  0.00  0.00    -0.379 OA
ATOM     23  H   UNL     1     -32.936  27.329   4.597  0.00  0.00    +0.211 HD
ENDBRANCH  21  22
ENDBRANCH   5  21
TORSDOF 7
ENDMDL
MODEL 4
REMARK VINA RESULT:      -5.4      4.018      6.570
REMARK  Name = 195233
REMARK  7 active torsions:
REMARK  status: ('A' for Active; 'I' for Inactive)
REMARK    1  A    between atoms: C_2  and  O_15
REMARK    2  A    between atoms: C_3  and  N_8
REMARK    3  A    between atoms: C_4  and  O_17
REMARK    4  A    between atoms: C_5  and  C_21
REMARK    5  A    between atoms: C_6  and  O_19
REMARK    6  A    between atoms: C_9  and  C_14
REMARK    7  A    between atoms: C_21  and  O_22
REMARK                            x       y       z     vdW  Elec       q    Type
REMARK                         _______ _______ _______ _____ _____    ______ ____
ROOT
ATOM      1  O   UNL     1     -39.313  23.059   2.226  0.00  0.00    -0.327 OA
ATOM      2  C   UNL     1     -36.484  22.621   2.038  0.00  0.00    +0.162 C 
ATOM      3  C   UNL     1     -37.094  23.442   3.181  0.00  0.00    +0.158 C 
ATOM      4  C   UNL     1     -37.506  21.643   1.453  0.00  0.00    +0.169 C 
ATOM      5  C   UNL     1     -38.786  22.393   1.074  0.00  0.00    +0.176 C 
ATOM      6  C   UNL     1     -38.434  24.056   2.751  0.00  0.00    +0.253 C 
ENDROOT
BRANCH   3   8
ATOM      7  O   UNL     1     -35.907  23.809   5.809  0.00  0.00    -0.266 OA
ATOM      8  N   UNL     1     -36.174  24.481   3.596  0.00  0.00    -0.293 N 
ATOM      9  C   UNL     1     -35.662  24.570   4.877  0.00  0.00    +0.318 C 
ATOM     10  H   UNL     1     -35.900  25.157   2.934  0.00  0.00    +0.150 HD
BRANCH   9  14
ATOM     11  F   UNL     1     -34.502  26.035   6.334  0.00  0.00    -0.162 F 
ATOM     12  F   UNL     1     -35.245  26.867   4.459  0.00  0.00    -0.162 F 
ATOM     13  F   UNL     1     -33.531  25.521   4.452  0.00  0.00    -0.162 F 
ATOM     14  C   UNL     1     -34.739  25.744   5.031  0.00  0.00    +0.469 C 
ENDBRANCH   9  14
ENDBRANCH   3   8
BRANCH   2  15
ATOM     15  O   UNL     1     -35.352  21.902   2.519  0.00  0.00    -0.380 OA
ATOM     16  H   UNL     1     -35.586  20.968   2.633  0.00  0.00    +0.211 HD
ENDBRANCH   2  15
BRANCH   4  17
ATOM     17  O   UNL     1     -37.822  20.643   2.423  0.00  0.00    -0.379 OA
ATOM     18  H   UNL     1     -37.230  19.883   2.309  0.00  0.00    +0.211 HD
ENDBRANCH   4  17
BRANCH   6  19
ATOM     19  O   UNL     1     -39.033  24.661   3.896  0.00  0.00    -0.359 OA
ATOM     20  H   UNL     1     -39.864  25.090   3.637  0.00  0.00    +0.213 HD
ENDBRANCH   6  19
BRANCH   5  21
ATOM     21  C   UNL     1     -39.872  21.459   0.551  0.00  0.00    +0.169 C 
BRANCH  21  22
ATOM     22  O   UNL     1     -40.546  20.886   1.657  0.00  0.00    -0.379 OA
ATOM     23  H   UNL     1     -40.930  20.035   1.396  0.00  0.00    +0.211 HD
ENDBRANCH  21  22
ENDBRANCH   5  21
TORSDOF 7
ENDMDL
MODEL 5
REMARK VINA RESULT:      -5.3      2.364      3.158
REMARK  Name = 195233
REMARK  7 active torsions:
REMARK  status: ('A' for Active; 'I' for Inactive)
REMARK    1  A    between atoms: C_2  and  O_15
REMARK    2  A    between atoms: C_3  and  N_8
REMARK    3  A    between atoms: C_4  and  O_17
REMARK    4  A    between atoms: C_5  and  C_21
REMARK    5  A    between atoms: C_6  and  O_19
REMARK    6  A    between atoms: C_9  and  C_14
REMARK    7  A    between atoms: C_21  and  O_22
REMARK                            x       y       z     vdW  Elec       q    Type
REMARK                         _______ _______ _______ _____ _____    ______ ____
ROOT
ATOM      1  O   UNL     1     -35.761  27.008   3.138  0.00  0.00    -0.327 OA
ATOM      2  C   UNL     1     -37.362  24.628   3.101  0.00  0.00    +0.162 C 
ATOM      3  C   UNL     1     -36.642  25.090   4.373  0.00  0.00    +0.158 C 
ATOM      4  C   UNL     1     -37.617  25.803   2.152  0.00  0.00    +0.169 C 
ATOM      5  C   UNL     1     -36.309  26.557   1.895  0.00  0.00    +0.176 C 
ATOM      6  C   UNL     1     -35.413  25.941   4.021  0.00  0.00    +0.253 C 
ENDROOT
BRANCH   3   8
ATOM      7  O   UNL     1     -35.027  22.823   3.536  0.00  0.00    -0.266 OA
ATOM      8  N   UNL     1     -36.250  23.945   5.169  0.00  0.00    -0.293 N 
ATOM      9  C   UNL     1     -35.474  22.911   4.676  0.00  0.00    +0.318 C 
ATOM     10  H   UNL     1     -36.549  23.900   6.105  0.00  0.00    +0.150 HD
BRANCH   9  14
ATOM     11  F   UNL     1     -36.089  21.953   6.753  0.00  0.00    -0.162 F 
ATOM     12  F   UNL     1     -33.971  21.938   6.230  0.00  0.00    -0.162 F 
ATOM     13  F   UNL     1     -35.357  20.602   5.207  0.00  0.00    -0.162 F 
ATOM     14  C   UNL     1     -35.223  21.856   5.713  0.00  0.00    +0.469 C 
ENDBRANCH   9  14
ENDBRANCH   3   8
BRANCH   2  15
ATOM     15  O   UNL     1     -38.600  24.016   3.450  0.00  0.00    -0.380 OA
ATOM     16  H   UNL     1     -38.793  24.186   4.385  0.00  0.00    +0.211 HD
ENDBRANCH   2  15
BRANCH   4  17
ATOM     17  O   UNL     1     -38.563  26.698   2.741  0.00  0.00    -0.379 OA
ATOM     18  H   UNL     1     -38.165  27.126   3.515  0.00  0.00    +0.211 HD
ENDBRANCH   4  17
BRANCH   6  19
ATOM     19  O   UNL     1     -34.884  26.480   5.231  0.00  0.00    -0.359 OA
ATOM     20  H   UNL     1     -33.961  26.744   5.092  0.00  0.00    +0.213 HD
ENDBRANCH   6  19
BRANCH   5  21
ATOM     21  C   UNL     1     -36.510  27.783   1.013  0.00  0.00    +0.169 C 
BRANCH  21  22
ATOM     22  O   UNL     1     -36.603  28.927   1.844  0.00  0.00    -0.379 OA
ATOM     23  H   UNL     1     -36.099  28.776   2.659  0.00  0.00    +0.211 HD
ENDBRANCH  21  22
ENDBRANCH   5  21
TORSDOF 7
ENDMDL
MODEL 6
REMARK VINA RESULT:      -5.3      3.790      5.186
REMARK  Name = 195233
REMARK  7 active torsions:
REMARK  status: ('A' for Active; 'I' for Inactive)
REMARK    1  A    between atoms: C_2  and  O_15
REMARK    2  A    between atoms: C_3  and  N_8
REMARK    3  A    between atoms: C_4  and  O_17
REMARK    4  A    between atoms: C_5  and  C_21
REMARK    5  A    between atoms: C_6  and  O_19
REMARK    6  A    between atoms: C_9  and  C_14
REMARK    7  A    between atoms: C_21  and  O_22
REMARK                            x       y       z     vdW  Elec       q    Type
REMARK                         _______ _______ _______ _____ _____    ______ ____
ROOT
ATOM      1  O   UNL     1     -38.698  24.250   1.254  0.00  0.00    -0.327 OA
ATOM      2  C   UNL     1     -38.073  25.023   3.945  0.00  0.00    +0.162 C 
ATOM      3  C   UNL     1     -37.250  23.963   3.203  0.00  0.00    +0.158 C 
ATOM      4  C   UNL     1     -38.774  25.965   2.963  0.00  0.00    +0.169 C 
ATOM      5  C   UNL     1     -39.572  25.152   1.941  0.00  0.00    +0.176 C 
ATOM      6  C   UNL     1     -38.095  23.284   2.116  0.00  0.00    +0.253 C 
ENDROOT
BRANCH   3   8
ATOM      7  O   UNL     1     -34.677  23.959   4.556  0.00  0.00    -0.266 OA
ATOM      8  N   UNL     1     -36.746  22.977   4.138  0.00  0.00    -0.293 N 
ATOM      9  C   UNL     1     -35.500  23.066   4.732  0.00  0.00    +0.318 C 
ATOM     10  H   UNL     1     -37.317  22.208   4.361  0.00  0.00    +0.150 HD
BRANCH   9  14
ATOM     11  F   UNL     1     -36.121  21.867   6.679  0.00  0.00    -0.162 F 
ATOM     12  F   UNL     1     -33.995  21.969   6.200  0.00  0.00    -0.162 F 
ATOM     13  F   UNL     1     -35.323  20.717   5.008  0.00  0.00    -0.162 F 
ATOM     14  C   UNL     1     -35.235  21.910   5.651  0.00  0.00    +0.469 C 
ENDBRANCH   9  14
ENDBRANCH   3   8
BRANCH   2  15
ATOM     15  O   UNL     1     -37.219  25.773   4.804  0.00  0.00    -0.380 OA
ATOM     16  H   UNL     1     -37.754  26.371   5.350  0.00  0.00    +0.211 HD
ENDBRANCH   2  15
BRANCH   4  17
ATOM     17  O   UNL     1     -37.799  26.751   2.273  0.00  0.00    -0.379 OA
ATOM     18  H   UNL     1     -36.946  26.681   2.729  0.00  0.00    +0.211 HD
ENDBRANCH   4  17
BRANCH   6  19
ATOM     19  O   UNL     1     -37.239  22.436   1.352  0.00  0.00    -0.359 OA
ATOM     20  H   UNL     1     -37.591  21.532   1.356  0.00  0.00    +0.213 HD
ENDBRANCH   6  19
BRANCH   5  21
ATOM     21  C   UNL     1     -40.237  26.032   0.890  0.00  0.00    +0.169 C 
BRANCH  21  22
ATOM     22  O   UNL     1     -40.531  27.289   1.473  0.00  0.00    -0.379 OA
ATOM     23  H   UNL     1     -40.711  27.172   2.419  0.00  0.00    +0.211 HD
ENDBRANCH  21  22
ENDBRANCH   5  21
TORSDOF 7
ENDMDL
MODEL 7
REMARK VINA RESULT:      -5.3      3.917      5.154
REMARK  Name = 195233
REMARK  7 active torsions:
REMARK  status: ('A' for Active; 'I' for Inactive)
REMARK    1  A    between atoms: C_2  and  O_15
REMARK    2  A    between atoms: C_3  and  N_8
REMARK    3  A    between atoms: C_4  and  O_17
REMARK    4  A    between atoms: C_5  and  C_21
REMARK    5  A    between atoms: C_6  and  O_19
REMARK    6  A    between atoms: C_9  and  C_14
REMARK    7  A    between atoms: C_21  and  O_22
REMARK                            x       y       z     vdW  Elec       q    Type
REMARK                         _______ _______ _______ _____ _____    ______ ____
ROOT
ATOM      1  O   UNL     1     -35.751  23.185   5.577  0.00  0.00    -0.327 OA
ATOM      2  C   UNL     1     -35.739  23.399   2.716  0.00  0.00    +0.162 C 
ATOM      3  C   UNL     1     -35.761  22.036   3.418  0.00  0.00    +0.158 C 
ATOM      4  C   UNL     1     -36.313  24.495   3.618  0.00  0.00    +0.169 C 
ATOM      5  C   UNL     1     -35.605  24.475   4.975  0.00  0.00    +0.176 C 
ATOM      6  C   UNL     1     -35.141  22.138   4.819  0.00  0.00    +0.253 C 
ENDROOT
BRANCH   3   8
ATOM      7  O   UNL     1     -36.864  20.257   1.401  0.00  0.00    -0.266 OA
ATOM      8  N   UNL     1     -35.050  21.054   2.625  0.00  0.00    -0.293 N 
ATOM      9  C   UNL     1     -35.669  20.251   1.684  0.00  0.00    +0.318 C 
ATOM     10  H   UNL     1     -34.081  20.953   2.761  0.00  0.00    +0.150 HD
BRANCH   9  14
ATOM     11  F   UNL     1     -34.039  19.930  -0.005  0.00  0.00    -0.162 F 
ATOM     12  F   UNL     1     -35.314  18.231   0.494  0.00  0.00    -0.162 F 
ATOM     13  F   UNL     1     -33.753  18.866   1.876  0.00  0.00    -0.162 F 
ATOM     14  C   UNL     1     -34.698  19.323   1.014  0.00  0.00    +0.469 C 
ENDBRANCH   9  14
ENDBRANCH   3   8
BRANCH   2  15
ATOM     15  O   UNL     1     -36.493  23.326   1.510  0.00  0.00    -0.380 OA
ATOM     16  H   UNL     1     -37.431  23.476   1.705  0.00  0.00    +0.211 HD
ENDBRANCH   2  15
BRANCH   4  17
ATOM     17  O   UNL     1     -37.709  24.268   3.818  0.00  0.00    -0.379 OA
ATOM     18  H   UNL     1     -38.121  25.072   4.172  0.00  0.00    +0.211 HD
ENDBRANCH   4  17
BRANCH   6  19
ATOM     19  O   UNL     1     -35.341  20.893   5.486  0.00  0.00    -0.359 OA
ATOM     20  H   UNL     1     -35.950  20.342   4.969  0.00  0.00    +0.213 HD
ENDBRANCH   6  19
BRANCH   5  21
ATOM     21  C   UNL     1     -36.183  25.499   5.946  0.00  0.00    +0.169 C 
BRANCH  21  22
ATOM     22  O   UNL     1     -36.579  26.644   5.212  0.00  0.00    -0.379 OA
ATOM     23  H   UNL     1     -37.535  26.774   5.307  0.00  0.00    +0.211 HD
ENDBRANCH  21  22
ENDBRANCH   5  21
TORSDOF 7
ENDMDL
MODEL 8
REMARK VINA RESULT:      -5.3      3.357      5.565
REMARK  Name = 195233
REMARK  7 active torsions:
REMARK  status: ('A' for Active; 'I' for Inactive)
REMARK    1  A    between atoms: C_2  and  O_15
REMARK    2  A    between atoms: C_3  and  N_8
REMARK    3  A    between atoms: C_4  and  O_17
REMARK    4  A    between atoms: C_5  and  C_21
REMARK    5  A    between atoms: C_6  and  O_19
REMARK    6  A    between atoms: C_9  and  C_14
REMARK    7  A    between atoms: C_21  and  O_22
REMARK                            x       y       z     vdW  Elec       q    Type
REMARK                         _______ _______ _______ _____ _____    ______ ____
ROOT
ATOM      1  O   UNL     1     -34.622  24.111   3.131  0.00  0.00    -0.327 OA
ATOM      2  C   UNL     1     -35.834  25.587   5.272  0.00  0.00    +0.162 C 
ATOM      3  C   UNL     1     -34.548  26.072   4.591  0.00  0.00    +0.158 C 
ATOM      4  C   UNL     1     -36.642  24.676   4.343  0.00  0.00    +0.169 C 
ATOM      5  C   UNL     1     -35.750  23.552   3.812  0.00  0.00    +0.176 C 
ATOM      6  C   UNL     1     -33.780  24.890   3.982  0.00  0.00    +0.253 C 
ENDROOT
BRANCH   3   8
ATOM      7  O   UNL     1     -32.619  28.174   4.036  0.00  0.00    -0.266 OA
ATOM      8  N   UNL     1     -33.714  26.777   5.542  0.00  0.00    -0.293 N 
ATOM      9  C   UNL     1     -32.822  27.769   5.177  0.00  0.00    +0.318 C 
ATOM     10  H   UNL     1     -33.786  26.540   6.495  0.00  0.00    +0.150 HD
BRANCH   9  14
ATOM     11  F   UNL     1     -32.595  27.867   7.533  0.00  0.00    -0.162 F 
ATOM     12  F   UNL     1     -32.147  29.680   6.406  0.00  0.00    -0.162 F 
ATOM     13  F   UNL     1     -30.771  27.991   6.347  0.00  0.00    -0.162 F 
ATOM     14  C   UNL     1     -32.087  28.325   6.361  0.00  0.00    +0.469 C 
ENDBRANCH   9  14
ENDBRANCH   3   8
BRANCH   2  15
ATOM     15  O   UNL     1     -36.625  26.710   5.651  0.00  0.00    -0.380 OA
ATOM     16  H   UNL     1     -36.879  27.208   4.859  0.00  0.00    +0.211 HD
ENDBRANCH   2  15
BRANCH   4  17
ATOM     17  O   UNL     1     -37.139  25.437   3.240  0.00  0.00    -0.379 OA
ATOM     18  H   UNL     1     -37.970  25.048   2.927  0.00  0.00    +0.211 HD
ENDBRANCH   4  17
BRANCH   6  19
ATOM     19  O   UNL     1     -32.691  25.412   3.221  0.00  0.00    -0.359 OA
ATOM     20  H   UNL     1     -33.014  25.713   2.357  0.00  0.00    +0.213 HD
ENDBRANCH   6  19
BRANCH   5  21
ATOM     21  C   UNL     1     -36.479  22.650   2.823  0.00  0.00    +0.169 C 
BRANCH  21  22
ATOM     22  O   UNL     1     -37.840  22.566   3.206  0.00  0.00    -0.379 OA
ATOM     23  H   UNL     1     -38.025  23.230   3.889  0.00  0.00    +0.211 HD
ENDBRANCH  21  22
ENDBRANCH   5  21
TORSDOF 7
ENDMDL
MODEL 9
REMARK VINA RESULT:      -5.2      4.094      5.976
REMARK  Name = 195233
REMARK  7 active torsions:
REMARK  status: ('A' for Active; 'I' for Inactive)
REMARK    1  A    between atoms: C_2  and  O_15
REMARK    2  A    between atoms: C_3  and  N_8
REMARK    3  A    between atoms: C_4  and  O_17
REMARK    4  A    between atoms: C_5  and  C_21
REMARK    5  A    between atoms: C_6  and  O_19
REMARK    6  A    between atoms: C_9  and  C_14
REMARK    7  A    between atoms: C_21  and  O_22
REMARK                            x       y       z     vdW  Elec       q    Type
REMARK                         _______ _______ _______ _____ _____    ______ ____
ROOT
ATOM      1  O   UNL     1     -33.932  24.349   4.623  0.00  0.00    -0.327 OA
ATOM      2  C   UNL     1     -36.313  25.948   4.643  0.00  0.00    +0.162 C 
ATOM      3  C   UNL     1     -35.095  26.335   3.796  0.00  0.00    +0.158 C 
ATOM      4  C   UNL     1     -36.333  24.444   4.929  0.00  0.00    +0.169 C 
ATOM      5  C   UNL     1     -34.991  24.010   5.524  0.00  0.00    +0.176 C 
ATOM      6  C   UNL     1     -33.808  25.755   4.402  0.00  0.00    +0.253 C 
ENDROOT
BRANCH   3   8
ATOM      7  O   UNL     1     -34.330  27.892   1.464  0.00  0.00    -0.266 OA
ATOM      8  N   UNL     1     -34.996  27.776   3.692  0.00  0.00    -0.293 N 
ATOM      9  C   UNL     1     -34.621  28.427   2.530  0.00  0.00    +0.318 C 
ATOM     10  H   UNL     1     -35.205  28.319   4.486  0.00  0.00    +0.150 HD
BRANCH   9  14
ATOM     11  F   UNL     1     -34.121  30.549   1.605  0.00  0.00    -0.162 F 
ATOM     12  F   UNL     1     -33.817  30.294   3.750  0.00  0.00    -0.162 F 
ATOM     13  F   UNL     1     -35.837  30.421   2.942  0.00  0.00    -0.162 F 
ATOM     14  C   UNL     1     -34.598  29.917   2.706  0.00  0.00    +0.469 C 
ENDBRANCH   9  14
ENDBRANCH   3   8
BRANCH   2  15
ATOM     15  O   UNL     1     -37.506  26.323   3.961  0.00  0.00    -0.380 OA
ATOM     16  H   UNL     1     -37.277  26.735   3.113  0.00  0.00    +0.211 HD
ENDBRANCH   2  15
BRANCH   4  17
ATOM     17  O   UNL     1     -36.557  23.728   3.713  0.00  0.00    -0.379 OA
ATOM     18  H   UNL     1     -37.509  23.603   3.582  0.00  0.00    +0.211 HD
ENDBRANCH   4  17
BRANCH   6  19
ATOM     19  O   UNL     1     -32.739  25.998   3.490  0.00  0.00    -0.359 OA
ATOM     20  H   UNL     1     -32.227  26.767   3.788  0.00  0.00    +0.213 HD
ENDBRANCH   6  19
BRANCH   5  21
ATOM     21  C   UNL     1     -34.922  22.507   5.765  0.00  0.00    +0.169 C 
BRANCH  21  22
ATOM     22  O   UNL     1     -36.202  22.054   6.167  0.00  0.00    -0.379 OA
ATOM     23  H   UNL     1     -36.862  22.738   5.975  0.00  0.00    +0.211 HD
ENDBRANCH  21  22
ENDBRANCH   5  21
TORSDOF 7
ENDMDL
