MODEL 1
REMARK VINA RESULT:      -6.3      0.000      0.000
REMARK  Name = 191072
REMARK  6 active torsions:
REMARK  status: ('A' for Active; 'I' for Inactive)
REMARK    1  A    between atoms: N_3  and  C1*_24
REMARK    2  A    between atoms: C_10  and  C_12
REMARK    3  A    between atoms: C_17  and  O_18
REMARK    4  A    between atoms: C3*_21  and  O3*_25
REMARK    5  A    between atoms: C4*_23  and  C5*_27
REMARK    6  A    between atoms: C5*_27  and  O5*_28
REMARK                            x       y       z     vdW  Elec       q    Type
REMARK                         _______ _______ _______ _____ _____    ______ ____
ROOT
ATOM      1  O   UNL     1     -36.344  22.971   5.100  0.00  0.00    -0.193 OA
ATOM      2  O   UNL     1     -35.694  19.281   0.272  0.00  0.00    -0.270 OA
ATOM      3  N   UNL     1     -37.064  23.131   2.908  0.00  0.00    -0.180 N 
ATOM      4  N   UNL     1     -35.377  21.553   3.610  0.00  0.00    -0.305 NA
ATOM      5  N   UNL     1     -34.448  20.150   2.029  0.00  0.00    -0.255 N 
ATOM      6  C   UNL     1     -36.948  22.656   1.608  0.00  0.00    +0.083 C 
ATOM      7  C   UNL     1     -36.262  22.570   3.938  0.00  0.00    +0.275 C 
ATOM      8  C   UNL     1     -36.107  21.680   1.265  0.00  0.00    +0.066 C 
ATOM      9  C   UNL     1     -35.313  21.152   2.384  0.00  0.00    +0.202 C 
ATOM     10  C   UNL     1     -34.696  19.272   0.987  0.00  0.00    +0.251 C 
ATOM     11  H   UNL     1     -33.611  20.050   2.538  0.00  0.00    +0.158 HD
ENDROOT
BRANCH  10  12
ATOM     12  C   UNL     1     -33.627  18.274   0.728  0.00  0.00    +0.054 C 
ATOM     13  C   UNL     1     -32.332  18.571   1.101  0.00  0.00    +0.008 C 
ATOM     14  C   UNL     1     -33.962  17.081   0.123  0.00  0.00    +0.008 C 
ATOM     15  C   UNL     1     -31.329  17.633   0.859  0.00  0.00    +0.037 C 
ATOM     16  C   UNL     1     -32.959  16.142  -0.120  0.00  0.00    +0.037 C 
ATOM     17  C   UNL     1     -31.642  16.419   0.247  0.00  0.00    +0.139 C 
BRANCH  17  18
ATOM     18  O   UNL     1     -30.663  15.503   0.012  0.00  0.00    -0.471 OA
ATOM     19  C   UNL     1     -29.315  15.940   0.165  0.00  0.00    +0.252 C 
ENDBRANCH  17  18
ENDBRANCH  10  12
BRANCH   3  24
ATOM     20  O4* UNL     1     -39.329  23.676   3.135  0.00  0.00    -0.334 OA
ATOM     21  C3* UNL     1     -39.318  25.846   2.182  0.00  0.00    +0.144 C 
ATOM     22  C2* UNL     1     -37.892  25.351   2.241  0.00  0.00    +0.084 C 
ATOM     23  C4* UNL     1     -40.134  24.572   2.345  0.00  0.00    +0.173 C 
ATOM     24  C1* UNL     1     -37.990  24.184   3.210  0.00  0.00    +0.209 C 
BRANCH  21  25
ATOM     25  O3* UNL     1     -39.567  26.724   3.278  0.00  0.00    -0.382 OA
ATOM     26  H3* UNL     1     -39.507  26.227   4.110  0.00  0.00    +0.210 HD
ENDBRANCH  21  25
BRANCH  23  27
ATOM     27  C5* UNL     1     -40.431  23.886   1.017  0.00  0.00    +0.169 C 
BRANCH  27  28
ATOM     28  O5* UNL     1     -40.533  22.488   1.237  0.00  0.00    -0.379 OA
ATOM     29  H5* UNL     1     -41.101  22.094   0.555  0.00  0.00    +0.211 HD
ENDBRANCH  27  28
ENDBRANCH  23  27
ENDBRANCH   3  24
TORSDOF 6
ENDMDL
MODEL 2
REMARK VINA RESULT:      -6.2      2.722      3.992
REMARK  Name = 191072
REMARK  6 active torsions:
REMARK  status: ('A' for Active; 'I' for Inactive)
REMARK    1  A    between atoms: N_3  and  C1*_24
REMARK    2  A    between atoms: C_10  and  C_12
REMARK    3  A    between atoms: C_17  and  O_18
REMARK    4  A    between atoms: C3*_21  and  O3*_25
REMARK    5  A    between atoms: C4*_23  and  C5*_27
REMARK    6  A    between atoms: C5*_27  and  O5*_28
REMARK                            x       y       z     vdW  Elec       q    Type
REMARK                         _______ _______ _______ _____ _____    ______ ____
ROOT
ATOM      1  O   UNL     1     -39.093  23.116   2.499  0.00  0.00    -0.193 OA
ATOM      2  O   UNL     1     -34.549  19.569   0.468  0.00  0.00    -0.270 OA
ATOM      3  N   UNL     1     -36.832  23.055   2.977  0.00  0.00    -0.180 N 
ATOM      4  N   UNL     1     -37.968  21.255   1.838  0.00  0.00    -0.305 NA
ATOM      5  N   UNL     1     -36.747  19.402   1.202  0.00  0.00    -0.255 N 
ATOM      6  C   UNL     1     -35.644  22.340   2.893  0.00  0.00    +0.083 C 
ATOM      7  C   UNL     1     -38.026  22.504   2.439  0.00  0.00    +0.275 C 
ATOM      8  C   UNL     1     -35.560  21.138   2.321  0.00  0.00    +0.066 C 
ATOM      9  C   UNL     1     -36.835  20.637   1.788  0.00  0.00    +0.202 C 
ATOM     10  C   UNL     1     -35.600  18.943   0.575  0.00  0.00    +0.251 C 
ATOM     11  H   UNL     1     -37.535  18.812   1.228  0.00  0.00    +0.158 HD
ENDROOT
BRANCH  10  12
ATOM     12  C   UNL     1     -35.682  17.565   0.028  0.00  0.00    +0.054 C 
ATOM     13  C   UNL     1     -34.525  16.820  -0.076  0.00  0.00    +0.008 C 
ATOM     14  C   UNL     1     -36.911  17.072  -0.359  0.00  0.00    +0.008 C 
ATOM     15  C   UNL     1     -34.602  15.525  -0.589  0.00  0.00    +0.037 C 
ATOM     16  C   UNL     1     -36.988  15.777  -0.872  0.00  0.00    +0.037 C 
ATOM     17  C   UNL     1     -35.832  15.004  -0.988  0.00  0.00    +0.139 C 
BRANCH  17  18
ATOM     18  O   UNL     1     -35.907  13.740  -1.487  0.00  0.00    -0.471 OA
ATOM     19  C   UNL     1     -34.675  13.068  -1.741  0.00  0.00    +0.252 C 
ENDBRANCH  17  18
ENDBRANCH  10  12
BRANCH   3  24
ATOM     20  O4* UNL     1     -36.223  25.303   2.745  0.00  0.00    -0.334 OA
ATOM     21  C3* UNL     1     -35.556  25.770   4.971  0.00  0.00    +0.144 C 
ATOM     22  C2* UNL     1     -36.109  24.365   4.931  0.00  0.00    +0.084 C 
ATOM     23  C4* UNL     1     -35.273  26.072   3.507  0.00  0.00    +0.173 C 
ATOM     24  C1* UNL     1     -36.853  24.343   3.606  0.00  0.00    +0.209 C 
BRANCH  21  25
ATOM     25  O3* UNL     1     -36.549  26.665   5.467  0.00  0.00    -0.382 OA
ATOM     26  H3* UNL     1     -37.431  26.301   5.286  0.00  0.00    +0.210 HD
ENDBRANCH  21  25
BRANCH  23  27
ATOM     27  C5* UNL     1     -33.875  25.648   3.074  0.00  0.00    +0.169 C 
BRANCH  27  28
ATOM     28  O5* UNL     1     -32.984  25.828   4.163  0.00  0.00    -0.379 OA
ATOM     29  H5* UNL     1     -32.073  25.682   3.863  0.00  0.00    +0.211 HD
ENDBRANCH  27  28
ENDBRANCH  23  27
ENDBRANCH   3  24
TORSDOF 6
ENDMDL
MODEL 3
REMARK VINA RESULT:      -6.1      7.488     10.413
REMARK  Name = 191072
REMARK  6 active torsions:
REMARK  status: ('A' for Active; 'I' for Inactive)
REMARK    1  A    between atoms: N_3  and  C1*_24
REMARK    2  A    between atoms: C_10  and  C_12
REMARK    3  A    between atoms: C_17  and  O_18
REMARK    4  A    between atoms: C3*_21  and  O3*_25
REMARK    5  A    between atoms: C4*_23  and  C5*_27
REMARK    6  A    between atoms: C5*_27  and  O5*_28
REMARK                            x       y       z     vdW  Elec       q    Type
REMARK                         _______ _______ _______ _____ _____    ______ ____
ROOT
ATOM      1  O   UNL     1     -35.083  26.564   1.974  0.00  0.00    -0.193 OA
ATOM      2  O   UNL     1     -32.073  28.808   6.796  0.00  0.00    -0.270 OA
ATOM      3  N   UNL     1     -34.839  25.810   4.146  0.00  0.00    -0.180 N 
ATOM      4  N   UNL     1     -33.431  27.530   3.201  0.00  0.00    -0.305 NA
ATOM      5  N   UNL     1     -31.778  28.456   4.519  0.00  0.00    -0.255 N 
ATOM      6  C   UNL     1     -34.140  25.915   5.341  0.00  0.00    +0.083 C 
ATOM      7  C   UNL     1     -34.480  26.635   3.045  0.00  0.00    +0.275 C 
ATOM      8  C   UNL     1     -33.128  26.766   5.518  0.00  0.00    +0.066 C 
ATOM      9  C   UNL     1     -32.819  27.583   4.335  0.00  0.00    +0.202 C 
ATOM     10  C   UNL     1     -31.470  29.017   5.747  0.00  0.00    +0.251 C 
ATOM     11  H   UNL     1     -31.224  28.695   3.741  0.00  0.00    +0.158 HD
ENDROOT
BRANCH  10  12
ATOM     12  C   UNL     1     -30.286  29.913   5.759  0.00  0.00    +0.054 C 
ATOM     13  C   UNL     1     -30.290  31.032   4.952  0.00  0.00    +0.008 C 
ATOM     14  C   UNL     1     -29.220  29.599   6.575  0.00  0.00    +0.008 C 
ATOM     15  C   UNL     1     -29.179  31.875   4.964  0.00  0.00    +0.037 C 
ATOM     16  C   UNL     1     -28.107  30.442   6.587  0.00  0.00    +0.037 C 
ATOM     17  C   UNL     1     -28.087  31.579   5.780  0.00  0.00    +0.139 C 
BRANCH  17  18
ATOM     18  O   UNL     1     -27.003  32.402   5.793  0.00  0.00    -0.471 OA
ATOM     19  C   UNL     1     -26.938  33.374   6.835  0.00  0.00    +0.252 C 
ENDBRANCH  17  18
ENDBRANCH  10  12
BRANCH   3  24
ATOM     20  O4* UNL     1     -36.178  24.278   5.301  0.00  0.00    -0.334 OA
ATOM     21  C3* UNL     1     -36.359  22.582   3.654  0.00  0.00    +0.144 C 
ATOM     22  C2* UNL     1     -35.611  23.747   3.049  0.00  0.00    +0.084 C 
ATOM     23  C4* UNL     1     -36.262  22.847   5.150  0.00  0.00    +0.173 C 
ATOM     24  C1* UNL     1     -35.917  24.874   4.022  0.00  0.00    +0.209 C 
BRANCH  21  25
ATOM     25  O3* UNL     1     -37.724  22.621   3.243  0.00  0.00    -0.382 OA
ATOM     26  H3* UNL     1     -38.244  23.116   3.896  0.00  0.00    +0.210 HD
ENDBRANCH  21  25
BRANCH  23  27
ATOM     27  C5* UNL     1     -35.017  22.236   5.780  0.00  0.00    +0.169 C 
BRANCH  27  28
ATOM     28  O5* UNL     1     -35.141  20.823   5.760  0.00  0.00    -0.379 OA
ATOM     29  H5* UNL     1     -35.560  20.547   4.930  0.00  0.00    +0.211 HD
ENDBRANCH  27  28
ENDBRANCH  23  27
ENDBRANCH   3  24
TORSDOF 6
ENDMDL
MODEL 4
REMARK VINA RESULT:      -6.1      3.771      8.147
REMARK  Name = 191072
REMARK  6 active torsions:
REMARK  status: ('A' for Active; 'I' for Inactive)
REMARK    1  A    between atoms: N_3  and  C1*_24
REMARK    2  A    between atoms: C_10  and  C_12
REMARK    3  A    between atoms: C_17  and  O_18
REMARK    4  A    between atoms: C3*_21  and  O3*_25
REMARK    5  A    between atoms: C4*_23  and  C5*_27
REMARK    6  A    between atoms: C5*_27  and  O5*_28
REMARK                            x       y       z     vdW  Elec       q    Type
REMARK                         _______ _______ _______ _____ _____    ______ ____
ROOT
ATOM      1  O   UNL     1     -39.765  19.856  -0.684  0.00  0.00    -0.193 OA
ATOM      2  O   UNL     1     -35.251  20.579   3.372  0.00  0.00    -0.270 OA
ATOM      3  N   UNL     1     -37.741  18.776  -0.398  0.00  0.00    -0.180 N 
ATOM      4  N   UNL     1     -38.254  20.880   0.670  0.00  0.00    -0.305 NA
ATOM      5  N   UNL     1     -36.661  21.849   2.031  0.00  0.00    -0.255 N 
ATOM      6  C   UNL     1     -36.490  18.791   0.206  0.00  0.00    +0.083 C 
ATOM      7  C   UNL     1     -38.649  19.844  -0.163  0.00  0.00    +0.275 C 
ATOM      8  C   UNL     1     -36.085  19.774   1.012  0.00  0.00    +0.066 C 
ATOM      9  C   UNL     1     -37.079  20.840   1.204  0.00  0.00    +0.202 C 
ATOM     10  C   UNL     1     -35.766  21.652   3.070  0.00  0.00    +0.251 C 
ATOM     11  H   UNL     1     -37.012  22.756   1.879  0.00  0.00    +0.158 HD
ENDROOT
BRANCH  10  12
ATOM     12  C   UNL     1     -35.403  22.872   3.837  0.00  0.00    +0.054 C 
ATOM     13  C   UNL     1     -35.591  22.880   5.203  0.00  0.00    +0.008 C 
ATOM     14  C   UNL     1     -34.890  23.957   3.159  0.00  0.00    +0.008 C 
ATOM     15  C   UNL     1     -35.249  24.024   5.924  0.00  0.00    +0.037 C 
ATOM     16  C   UNL     1     -34.548  25.103   3.879  0.00  0.00    +0.037 C 
ATOM     17  C   UNL     1     -34.728  25.135   5.261  0.00  0.00    +0.139 C 
BRANCH  17  18
ATOM     18  O   UNL     1     -34.393  26.252   5.965  0.00  0.00    -0.471 OA
ATOM     19  C   UNL     1     -33.241  26.971   5.530  0.00  0.00    +0.252 C 
ENDBRANCH  17  18
ENDBRANCH  10  12
BRANCH   3  24
ATOM     20  O4* UNL     1     -38.009  16.455  -0.528  0.00  0.00    -0.334 OA
ATOM     21  C3* UNL     1     -37.201  16.080  -2.725  0.00  0.00    +0.144 C 
ATOM     22  C2* UNL     1     -37.223  17.571  -2.480  0.00  0.00    +0.084 C 
ATOM     23  C4* UNL     1     -37.282  15.498  -1.322  0.00  0.00    +0.173 C 
ATOM     24  C1* UNL     1     -38.113  17.688  -1.254  0.00  0.00    +0.209 C 
BRANCH  21  25
ATOM     25  O3* UNL     1     -38.353  15.700  -3.474  0.00  0.00    -0.382 OA
ATOM     26  H3* UNL     1     -38.451  14.734  -3.448  0.00  0.00    +0.210 HD
ENDBRANCH  21  25
BRANCH  23  27
ATOM     27  C5* UNL     1     -35.913  15.304  -0.681  0.00  0.00    +0.169 C 
BRANCH  27  28
ATOM     28  O5* UNL     1     -36.062  15.310   0.729  0.00  0.00    -0.379 OA
ATOM     29  H5* UNL     1     -37.005  15.278   0.955  0.00  0.00    +0.211 HD
ENDBRANCH  27  28
ENDBRANCH  23  27
ENDBRANCH   3  24
TORSDOF 6
ENDMDL
MODEL 5
REMARK VINA RESULT:      -6.0      5.422     10.776
REMARK  Name = 191072
REMARK  6 active torsions:
REMARK  status: ('A' for Active; 'I' for Inactive)
REMARK    1  A    between atoms: N_3  and  C1*_24
REMARK    2  A    between atoms: C_10  and  C_12
REMARK    3  A    between atoms: C_17  and  O_18
REMARK    4  A    between atoms: C3*_21  and  O3*_25
REMARK    5  A    between atoms: C4*_23  and  C5*_27
REMARK    6  A    between atoms: C5*_27  and  O5*_28
REMARK                            x       y       z     vdW  Elec       q    Type
REMARK                         _______ _______ _______ _____ _____    ______ ____
ROOT
ATOM      1  O   UNL     1     -33.151  26.073   5.545  0.00  0.00    -0.193 OA
ATOM      2  O   UNL     1     -35.749  28.913   0.798  0.00  0.00    -0.270 OA
ATOM      3  N   UNL     1     -34.717  25.389   3.988  0.00  0.00    -0.180 N 
ATOM      4  N   UNL     1     -34.136  27.709   4.313  0.00  0.00    -0.305 NA
ATOM      5  N   UNL     1     -35.185  29.306   3.017  0.00  0.00    -0.255 N 
ATOM      6  C   UNL     1     -35.616  25.767   2.999  0.00  0.00    +0.083 C 
ATOM      7  C   UNL     1     -33.956  26.380   4.665  0.00  0.00    +0.275 C 
ATOM      8  C   UNL     1     -35.808  27.037   2.641  0.00  0.00    +0.066 C 
ATOM      9  C   UNL     1     -34.985  28.001   3.386  0.00  0.00    +0.202 C 
ATOM     10  C   UNL     1     -35.557  29.681   1.737  0.00  0.00    +0.251 C 
ATOM     11  H   UNL     1     -35.058  30.010   3.694  0.00  0.00    +0.158 HD
ENDROOT
BRANCH  10  12
ATOM     12  C   UNL     1     -35.761  31.138   1.534  0.00  0.00    +0.054 C 
ATOM     13  C   UNL     1     -34.657  31.961   1.457  0.00  0.00    +0.008 C 
ATOM     14  C   UNL     1     -37.048  31.623   1.430  0.00  0.00    +0.008 C 
ATOM     15  C   UNL     1     -34.848  33.329   1.264  0.00  0.00    +0.037 C 
ATOM     16  C   UNL     1     -37.240  32.992   1.239  0.00  0.00    +0.037 C 
ATOM     17  C   UNL     1     -36.140  33.844   1.157  0.00  0.00    +0.139 C 
BRANCH  17  18
ATOM     18  O   UNL     1     -36.327  35.179   0.968  0.00  0.00    -0.471 OA
ATOM     19  C   UNL     1     -37.635  35.692   1.209  0.00  0.00    +0.252 C 
ENDBRANCH  17  18
ENDBRANCH  10  12
BRANCH   3  24
ATOM     20  O4* UNL     1     -34.823  23.200   3.166  0.00  0.00    -0.334 OA
ATOM     21  C3* UNL     1     -35.777  22.112   5.044  0.00  0.00    +0.144 C 
ATOM     22  C2* UNL     1     -35.511  23.551   5.419  0.00  0.00    +0.084 C 
ATOM     23  C4* UNL     1     -35.727  22.136   3.523  0.00  0.00    +0.173 C 
ATOM     24  C1* UNL     1     -34.559  24.004   4.325  0.00  0.00    +0.209 C 
BRANCH  21  25
ATOM     25  O3* UNL     1     -34.735  21.282   5.550  0.00  0.00    -0.382 OA
ATOM     26  H3* UNL     1     -34.686  21.376   6.515  0.00  0.00    +0.210 HD
ENDBRANCH  21  25
BRANCH  23  27
ATOM     27  C5* UNL     1     -37.079  22.440   2.890  0.00  0.00    +0.169 C 
BRANCH  27  28
ATOM     28  O5* UNL     1     -37.764  21.218   2.665  0.00  0.00    -0.379 OA
ATOM     29  H5* UNL     1     -38.031  21.163   1.734  0.00  0.00    +0.211 HD
ENDBRANCH  27  28
ENDBRANCH  23  27
ENDBRANCH   3  24
TORSDOF 6
ENDMDL
MODEL 6
REMARK VINA RESULT:      -6.0      3.277      4.166
REMARK  Name = 191072
REMARK  6 active torsions:
REMARK  status: ('A' for Active; 'I' for Inactive)
REMARK    1  A    between atoms: N_3  and  C1*_24
REMARK    2  A    between atoms: C_10  and  C_12
REMARK    3  A    between atoms: C_17  and  O_18
REMARK    4  A    between atoms: C3*_21  and  O3*_25
REMARK    5  A    between atoms: C4*_23  and  C5*_27
REMARK    6  A    between atoms: C5*_27  and  O5*_28
REMARK                            x       y       z     vdW  Elec       q    Type
REMARK                         _______ _______ _______ _____ _____    ______ ____
ROOT
ATOM      1  O   UNL     1     -35.092  21.472   5.953  0.00  0.00    -0.193 OA
ATOM      2  O   UNL     1     -36.889  20.893   0.140  0.00  0.00    -0.270 OA
ATOM      3  N   UNL     1     -35.080  22.938   4.165  0.00  0.00    -0.180 N 
ATOM      4  N   UNL     1     -35.403  20.561   3.893  0.00  0.00    -0.305 NA
ATOM      5  N   UNL     1     -35.712  19.722   1.766  0.00  0.00    -0.255 N 
ATOM      6  C   UNL     1     -35.193  23.097   2.790  0.00  0.00    +0.083 C 
ATOM      7  C   UNL     1     -35.187  21.642   4.736  0.00  0.00    +0.275 C 
ATOM      8  C   UNL     1     -35.401  22.076   1.957  0.00  0.00    +0.066 C 
ATOM      9  C   UNL     1     -35.500  20.769   2.623  0.00  0.00    +0.202 C 
ATOM     10  C   UNL     1     -36.398  19.852   0.569  0.00  0.00    +0.251 C 
ATOM     11  H   UNL     1     -35.361  18.835   2.011  0.00  0.00    +0.158 HD
ENDROOT
BRANCH  10  12
ATOM     12  C   UNL     1     -36.499  18.614  -0.245  0.00  0.00    +0.054 C 
ATOM     13  C   UNL     1     -35.354  18.092  -0.809  0.00  0.00    +0.008 C 
ATOM     14  C   UNL     1     -37.735  18.024  -0.411  0.00  0.00    +0.008 C 
ATOM     15  C   UNL     1     -35.448  16.929  -1.573  0.00  0.00    +0.037 C 
ATOM     16  C   UNL     1     -37.831  16.861  -1.176  0.00  0.00    +0.037 C 
ATOM     17  C   UNL     1     -36.687  16.314  -1.757  0.00  0.00    +0.139 C 
BRANCH  17  18
ATOM     18  O   UNL     1     -36.779  15.178  -2.501  0.00  0.00    -0.471 OA
ATOM     19  C   UNL     1     -36.214  13.991  -1.947  0.00  0.00    +0.252 C 
ENDBRANCH  17  18
ENDBRANCH  10  12
BRANCH   3  24
ATOM     20  O4* UNL     1     -36.091  24.788   5.182  0.00  0.00    -0.334 OA
ATOM     21  C3* UNL     1     -34.362  26.388   4.916  0.00  0.00    +0.144 C 
ATOM     22  C2* UNL     1     -33.852  25.056   4.417  0.00  0.00    +0.084 C 
ATOM     23  C4* UNL     1     -35.871  26.192   4.944  0.00  0.00    +0.173 C 
ATOM     24  C1* UNL     1     -34.856  24.079   5.005  0.00  0.00    +0.209 C 
BRANCH  21  25
ATOM     25  O3* UNL     1     -33.880  26.623   6.237  0.00  0.00    -0.382 OA
ATOM     26  H3* UNL     1     -32.989  26.247   6.328  0.00  0.00    +0.210 HD
ENDBRANCH  21  25
BRANCH  23  27
ATOM     27  C5* UNL     1     -36.539  26.552   3.623  0.00  0.00    +0.169 C 
BRANCH  27  28
ATOM     28  O5* UNL     1     -37.899  26.149   3.673  0.00  0.00    -0.379 OA
ATOM     29  H5* UNL     1     -38.204  26.155   4.594  0.00  0.00    +0.211 HD
ENDBRANCH  27  28
ENDBRANCH  23  27
ENDBRANCH   3  24
TORSDOF 6
ENDMDL
MODEL 7
REMARK VINA RESULT:      -6.0      1.990      2.591
REMARK  Name = 191072
REMARK  6 active torsions:
REMARK  status: ('A' for Active; 'I' for Inactive)
REMARK    1  A    between atoms: N_3  and  C1*_24
REMARK    2  A    between atoms: C_10  and  C_12
REMARK    3  A    between atoms: C_17  and  O_18
REMARK    4  A    between atoms: C3*_21  and  O3*_25
REMARK    5  A    between atoms: C4*_23  and  C5*_27
REMARK    6  A    between atoms: C5*_27  and  O5*_28
REMARK                            x       y       z     vdW  Elec       q    Type
REMARK                         _______ _______ _______ _____ _____    ______ ____
ROOT
ATOM      1  O   UNL     1     -40.130  21.251   1.945  0.00  0.00    -0.193 OA
ATOM      2  O   UNL     1     -34.261  22.275   0.581  0.00  0.00    -0.270 OA
ATOM      3  N   UNL     1     -38.774  23.107   2.195  0.00  0.00    -0.180 N 
ATOM      4  N   UNL     1     -37.893  20.905   1.739  0.00  0.00    -0.305 NA
ATOM      5  N   UNL     1     -35.608  20.645   1.546  0.00  0.00    -0.255 N 
ATOM      6  C   UNL     1     -37.479  23.608   2.203  0.00  0.00    +0.083 C 
ATOM      7  C   UNL     1     -38.992  21.722   1.958  0.00  0.00    +0.275 C 
ATOM      8  C   UNL     1     -36.405  22.845   1.995  0.00  0.00    +0.066 C 
ATOM      9  C   UNL     1     -36.713  21.427   1.757  0.00  0.00    +0.202 C 
ATOM     10  C   UNL     1     -34.444  21.123   0.967  0.00  0.00    +0.251 C 
ATOM     11  H   UNL     1     -35.642  19.700   1.818  0.00  0.00    +0.158 HD
ENDROOT
BRANCH  10  12
ATOM     12  C   UNL     1     -33.339  20.137   0.850  0.00  0.00    +0.054 C 
ATOM     13  C   UNL     1     -32.232  20.463   0.094  0.00  0.00    +0.008 C 
ATOM     14  C   UNL     1     -33.455  18.926   1.500  0.00  0.00    +0.008 C 
ATOM     15  C   UNL     1     -31.194  19.538  -0.015  0.00  0.00    +0.037 C 
ATOM     16  C   UNL     1     -32.417  18.000   1.391  0.00  0.00    +0.037 C 
ATOM     17  C   UNL     1     -31.287  18.306   0.633  0.00  0.00    +0.139 C 
BRANCH  17  18
ATOM     18  O   UNL     1     -30.274  17.403   0.528  0.00  0.00    -0.471 OA
ATOM     19  C   UNL     1     -28.950  17.885   0.750  0.00  0.00    +0.252 C 
ENDBRANCH  17  18
ENDBRANCH  10  12
BRANCH   3  24
ATOM     20  O4* UNL     1     -40.374  24.472   1.169  0.00  0.00    -0.334 OA
ATOM     21  C3* UNL     1     -40.430  26.262   2.722  0.00  0.00    +0.144 C 
ATOM     22  C2* UNL     1     -39.520  25.189   3.273  0.00  0.00    +0.084 C 
ATOM     23  C4* UNL     1     -40.537  25.901   1.247  0.00  0.00    +0.173 C 
ATOM     24  C1* UNL     1     -39.886  23.982   2.426  0.00  0.00    +0.209 C 
BRANCH  21  25
ATOM     25  O3* UNL     1     -41.712  26.167   3.337  0.00  0.00    -0.382 OA
ATOM     26  H3* UNL     1     -42.360  26.666   2.814  0.00  0.00    +0.210 HD
ENDBRANCH  21  25
BRANCH  23  27
ATOM     27  C5* UNL     1     -39.445  26.543   0.400  0.00  0.00    +0.169 C 
BRANCH  27  28
ATOM     28  O5* UNL     1     -39.365  27.921   0.724  0.00  0.00    -0.379 OA
ATOM     29  H5* UNL     1     -38.694  28.346   0.166  0.00  0.00    +0.211 HD
ENDBRANCH  27  28
ENDBRANCH  23  27
ENDBRANCH   3  24
TORSDOF 6
ENDMDL
MODEL 8
REMARK VINA RESULT:      -5.9      5.280     10.527
REMARK  Name = 191072
REMARK  6 active torsions:
REMARK  status: ('A' for Active; 'I' for Inactive)
REMARK    1  A    between atoms: N_3  and  C1*_24
REMARK    2  A    between atoms: C_10  and  C_12
REMARK    3  A    between atoms: C_17  and  O_18
REMARK    4  A    between atoms: C3*_21  and  O3*_25
REMARK    5  A    between atoms: C4*_23  and  C5*_27
REMARK    6  A    between atoms: C5*_27  and  O5*_28
REMARK                            x       y       z     vdW  Elec       q    Type
REMARK                         _______ _______ _______ _____ _____    ______ ____
ROOT
ATOM      1  O   UNL     1     -38.758  25.058   1.989  0.00  0.00    -0.193 OA
ATOM      2  O   UNL     1     -34.313  28.976   3.484  0.00  0.00    -0.270 OA
ATOM      3  N   UNL     1     -36.532  24.753   2.534  0.00  0.00    -0.180 N 
ATOM      4  N   UNL     1     -37.445  26.912   1.954  0.00  0.00    -0.305 NA
ATOM      5  N   UNL     1     -36.038  28.743   1.945  0.00  0.00    -0.255 N 
ATOM      6  C   UNL     1     -35.286  25.342   2.707  0.00  0.00    +0.083 C 
ATOM      7  C   UNL     1     -37.642  25.553   2.149  0.00  0.00    +0.275 C 
ATOM      8  C   UNL     1     -35.069  26.646   2.528  0.00  0.00    +0.066 C 
ATOM      9  C   UNL     1     -36.264  27.404   2.131  0.00  0.00    +0.202 C 
ATOM     10  C   UNL     1     -35.070  29.449   2.639  0.00  0.00    +0.251 C 
ATOM     11  H   UNL     1     -36.590  29.226   1.288  0.00  0.00    +0.158 HD
ENDROOT
BRANCH  10  12
ATOM     12  C   UNL     1     -34.948  30.885   2.280  0.00  0.00    +0.054 C 
ATOM     13  C   UNL     1     -36.021  31.516   1.686  0.00  0.00    +0.008 C 
ATOM     14  C   UNL     1     -33.765  31.541   2.551  0.00  0.00    +0.008 C 
ATOM     15  C   UNL     1     -35.907  32.865   1.349  0.00  0.00    +0.037 C 
ATOM     16  C   UNL     1     -33.651  32.891   2.214  0.00  0.00    +0.037 C 
ATOM     17  C   UNL     1     -34.721  33.552   1.612  0.00  0.00    +0.139 C 
BRANCH  17  18
ATOM     18  O   UNL     1     -34.610  34.868   1.285  0.00  0.00    -0.471 OA
ATOM     19  C   UNL     1     -33.920  35.181   0.077  0.00  0.00    +0.252 C 
ENDBRANCH  17  18
ENDBRANCH  10  12
BRANCH   3  24
ATOM     20  O4* UNL     1     -36.895  23.092   4.142  0.00  0.00    -0.334 OA
ATOM     21  C3* UNL     1     -35.488  21.388   3.284  0.00  0.00    +0.144 C 
ATOM     22  C2* UNL     1     -35.488  22.537   2.303  0.00  0.00    +0.084 C 
ATOM     23  C4* UNL     1     -36.025  22.022   4.559  0.00  0.00    +0.173 C 
ATOM     24  C1* UNL     1     -36.697  23.345   2.743  0.00  0.00    +0.209 C 
BRANCH  21  25
ATOM     25  O3* UNL     1     -36.381  20.372   2.835  0.00  0.00    -0.382 OA
ATOM     26  H3* UNL     1     -36.438  20.397   1.866  0.00  0.00    +0.210 HD
ENDBRANCH  21  25
BRANCH  23  27
ATOM     27  C5* UNL     1     -34.928  22.625   5.428  0.00  0.00    +0.169 C 
BRANCH  27  28
ATOM     28  O5* UNL     1     -34.444  21.626   6.311  0.00  0.00    -0.379 OA
ATOM     29  H5* UNL     1     -34.813  20.765   6.059  0.00  0.00    +0.211 HD
ENDBRANCH  27  28
ENDBRANCH  23  27
ENDBRANCH   3  24
TORSDOF 6
ENDMDL
MODEL 9
REMARK VINA RESULT:      -5.7      7.420     10.399
REMARK  Name = 191072
REMARK  6 active torsions:
REMARK  status: ('A' for Active; 'I' for Inactive)
REMARK    1  A    between atoms: N_3  and  C1*_24
REMARK    2  A    between atoms: C_10  and  C_12
REMARK    3  A    between atoms: C_17  and  O_18
REMARK    4  A    between atoms: C3*_21  and  O3*_25
REMARK    5  A    between atoms: C4*_23  and  C5*_27
REMARK    6  A    between atoms: C5*_27  and  O5*_28
REMARK                            x       y       z     vdW  Elec       q    Type
REMARK                         _______ _______ _______ _____ _____    ______ ____
ROOT
ATOM      1  O   UNL     1     -36.186  31.813   0.285  0.00  0.00    -0.193 OA
ATOM      2  O   UNL     1     -32.990  27.784   3.589  0.00  0.00    -0.270 OA
ATOM      3  N   UNL     1     -34.273  32.019   1.568  0.00  0.00    -0.180 N 
ATOM      4  N   UNL     1     -35.731  30.099   1.707  0.00  0.00    -0.305 NA
ATOM      5  N   UNL     1     -35.192  28.404   3.178  0.00  0.00    -0.255 N 
ATOM      6  C   UNL     1     -33.454  31.449   2.534  0.00  0.00    +0.083 C 
ATOM      7  C   UNL     1     -35.441  31.331   1.140  0.00  0.00    +0.275 C 
ATOM      8  C   UNL     1     -33.708  30.266   3.094  0.00  0.00    +0.066 C 
ATOM      9  C   UNL     1     -34.932  29.618   2.600  0.00  0.00    +0.202 C 
ATOM     10  C   UNL     1     -34.196  27.558   3.639  0.00  0.00    +0.251 C 
ATOM     11  H   UNL     1     -36.129  28.119   3.271  0.00  0.00    +0.158 HD
ENDROOT
BRANCH  10  12
ATOM     12  C   UNL     1     -34.671  26.299   4.268  0.00  0.00    +0.054 C 
ATOM     13  C   UNL     1     -33.843  25.195   4.256  0.00  0.00    +0.008 C 
ATOM     14  C   UNL     1     -35.924  26.272   4.842  0.00  0.00    +0.008 C 
ATOM     15  C   UNL     1     -34.288  24.013   4.847  0.00  0.00    +0.037 C 
ATOM     16  C   UNL     1     -36.371  25.089   5.434  0.00  0.00    +0.037 C 
ATOM     17  C   UNL     1     -35.552  23.960   5.435  0.00  0.00    +0.139 C 
BRANCH  17  18
ATOM     18  O   UNL     1     -35.986  22.806   6.013  0.00  0.00    -0.471 OA
ATOM     19  C   UNL     1     -35.103  21.688   5.973  0.00  0.00    +0.252 C 
ENDBRANCH  17  18
ENDBRANCH  10  12
BRANCH   3  24
ATOM     20  O4* UNL     1     -32.518  33.465   1.018  0.00  0.00    -0.334 OA
ATOM     21  C3* UNL     1     -33.506  35.538   1.607  0.00  0.00    +0.144 C 
ATOM     22  C2* UNL     1     -34.545  34.455   1.780  0.00  0.00    +0.084 C 
ATOM     23  C4* UNL     1     -32.199  34.759   1.565  0.00  0.00    +0.173 C 
ATOM     24  C1* UNL     1     -33.942  33.295   1.005  0.00  0.00    +0.209 C 
BRANCH  21  25
ATOM     25  O3* UNL     1     -33.711  36.207   0.365  0.00  0.00    -0.382 OA
ATOM     26  H3* UNL     1     -32.928  36.093  -0.197  0.00  0.00    +0.210 HD
ENDBRANCH  21  25
BRANCH  23  27
ATOM     27  C5* UNL     1     -31.591  34.546   2.946  0.00  0.00    +0.169 C 
BRANCH  27  28
ATOM     28  O5* UNL     1     -31.713  35.748   3.690  0.00  0.00    -0.379 OA
ATOM     29  H5* UNL     1     -32.124  35.557   4.548  0.00  0.00    +0.211 HD
ENDBRANCH  27  28
ENDBRANCH  23  27
ENDBRANCH   3  24
TORSDOF 6
ENDMDL
