MODEL 1
REMARK VINA RESULT:      -7.6      0.000      0.000
REMARK  Name = 54674461
REMARK  5 active torsions:
REMARK  status: ('A' for Active; 'I' for Inactive)
REMARK    1  A    between atoms: N_2  and  C_29
REMARK    2  A    between atoms: C_7  and  C_14
REMARK    3  A    between atoms: C_15  and  N_21
REMARK    4  A    between atoms: C_22  and  O_24
REMARK    5  A    between atoms: C_29  and  C_31
REMARK                            x       y       z     vdW  Elec       q    Type
REMARK                         _______ _______ _______ _____ _____    ______ ____
ROOT
ATOM      1  F   UNL     1     -34.608  29.035  -0.196  0.00  0.00    -0.207 F 
ATOM      2  N   UNL     1     -35.413  26.212   4.304  0.00  0.00    -0.193 N 
ATOM      3  N   UNL     1     -34.374  26.503   5.107  0.00  0.00    -0.168 NA
ATOM      4  N   UNL     1     -36.269  26.749   2.106  0.00  0.00    -0.251 NA
ATOM      5  C   UNL     1     -34.216  27.620   3.116  0.00  0.00    +0.133 C 
ATOM      6  C   UNL     1     -35.369  26.852   3.099  0.00  0.00    +0.133 C 
ATOM      7  C   UNL     1     -33.649  27.361   4.380  0.00  0.00    +0.172 C 
ATOM      8  C   UNL     1     -33.924  28.390   1.984  0.00  0.00    +0.015 C 
ATOM      9  C   UNL     1     -34.822  28.325   0.918  0.00  0.00    +0.139 C 
ATOM     10  C   UNL     1     -35.944  27.511   1.034  0.00  0.00    +0.182 C 
ENDROOT
BRANCH   7  14
ATOM     11  N   UNL     1     -32.502  28.448   6.147  0.00  0.00    -0.326 NA
ATOM     12  N   UNL     1     -31.340  27.836   4.126  0.00  0.00    -0.326 NA
ATOM     13  N   UNL     1     -31.351  29.534   7.909  0.00  0.00    -0.334 N 
ATOM     14  C   UNL     1     -32.430  27.912   4.914  0.00  0.00    +0.156 C 
ATOM     15  C   UNL     1     -30.158  28.941   5.908  0.00  0.00    +0.210 C 
ATOM     16  C   UNL     1     -31.343  28.956   6.615  0.00  0.00    +0.193 C 
ATOM     17  C   UNL     1     -30.217  28.363   4.656  0.00  0.00    +0.193 C 
ATOM     18  H   UNL     1     -32.184  29.556   8.433  0.00  0.00    +0.144 HD
ATOM     19  H   UNL     1     -30.523  29.913   8.284  0.00  0.00    +0.144 HD
ATOM     20  N   UNL     1     -29.035  28.316   3.876  0.00  0.00    -0.334 N 
ATOM     21  H   UNL     1     -29.053  27.909   2.980  0.00  0.00    +0.144 HD
ATOM     22  H   UNL     1     -28.197  28.692   4.230  0.00  0.00    +0.144 HD
BRANCH  15  24
ATOM     23  O   UNL     1     -27.933  27.659   7.469  0.00  0.00    -0.226 OA
ATOM     24  N   UNL     1     -28.976  29.480   6.423  0.00  0.00    -0.258 N 
ATOM     25  C   UNL     1     -27.973  28.839   7.143  0.00  0.00    +0.402 C 
ATOM     26  H   UNL     1     -28.835  30.439   6.254  0.00  0.00    +0.154 HD
BRANCH  25  27
ATOM     27  O   UNL     1     -26.992  29.742   7.452  0.00  0.00    -0.431 OA
ATOM     28  C   UNL     1     -27.111  31.033   6.843  0.00  0.00    +0.257 C 
ENDBRANCH  25  27
ENDBRANCH  15  24
ENDBRANCH   7  14
BRANCH   2  29
ATOM     29  C   UNL     1     -36.430  25.295   4.760  0.00  0.00    +0.146 C 
BRANCH  29  31
ATOM     30  F   UNL     1     -36.434  23.547   2.529  0.00  0.00    -0.204 F 
ATOM     31  C   UNL     1     -35.956  23.865   4.833  0.00  0.00    +0.027 C 
ATOM     32  C   UNL     1     -35.985  23.059   3.694  0.00  0.00    +0.138 C 
ATOM     33  C   UNL     1     -35.486  23.348   6.040  0.00  0.00    -0.000 C 
ATOM     34  C   UNL     1     -35.545  21.737   3.763  0.00  0.00    +0.029 C 
ATOM     35  C   UNL     1     -35.047  22.026   6.109  0.00  0.00    -0.000 C 
ATOM     36  C   UNL     1     -35.077  21.220   4.971  0.00  0.00    +0.002 C 
ENDBRANCH  29  31
ENDBRANCH   2  29
TORSDOF 5
ENDMDL
MODEL 2
REMARK VINA RESULT:      -7.5      0.365      1.532
REMARK  Name = 54674461
REMARK  5 active torsions:
REMARK  status: ('A' for Active; 'I' for Inactive)
REMARK    1  A    between atoms: N_2  and  C_29
REMARK    2  A    between atoms: C_7  and  C_14
REMARK    3  A    between atoms: C_15  and  N_21
REMARK    4  A    between atoms: C_22  and  O_24
REMARK    5  A    between atoms: C_29  and  C_31
REMARK                            x       y       z     vdW  Elec       q    Type
REMARK                         _______ _______ _______ _____ _____    ______ ____
ROOT
ATOM      1  F   UNL     1     -33.837  28.632  -0.531  0.00  0.00    -0.207 F 
ATOM      2  N   UNL     1     -35.215  26.265   4.090  0.00  0.00    -0.193 N 
ATOM      3  N   UNL     1     -34.261  26.609   4.974  0.00  0.00    -0.168 NA
ATOM      4  N   UNL     1     -35.811  26.611   1.771  0.00  0.00    -0.251 NA
ATOM      5  C   UNL     1     -33.852  27.528   2.919  0.00  0.00    +0.133 C 
ATOM      6  C   UNL     1     -35.021  26.787   2.845  0.00  0.00    +0.133 C 
ATOM      7  C   UNL     1     -33.435  27.378   4.256  0.00  0.00    +0.172 C 
ATOM      8  C   UNL     1     -33.414  28.181   1.761  0.00  0.00    +0.015 C 
ATOM      9  C   UNL     1     -34.194  28.036   0.612  0.00  0.00    +0.139 C 
ATOM     10  C   UNL     1     -35.347  27.260   0.677  0.00  0.00    +0.182 C 
ENDROOT
BRANCH   7  14
ATOM     11  N   UNL     1     -31.126  27.908   4.150  0.00  0.00    -0.326 NA
ATOM     12  N   UNL     1     -32.422  28.469   6.102  0.00  0.00    -0.326 NA
ATOM     13  N   UNL     1     -28.820  28.440   4.048  0.00  0.00    -0.334 N 
ATOM     14  C   UNL     1     -32.263  27.950   4.870  0.00  0.00    +0.156 C 
ATOM     15  C   UNL     1     -30.079  29.013   6.014  0.00  0.00    +0.210 C 
ATOM     16  C   UNL     1     -30.049  28.451   4.754  0.00  0.00    +0.193 C 
ATOM     17  C   UNL     1     -31.305  28.994   6.647  0.00  0.00    +0.193 C 
ATOM     18  H   UNL     1     -28.774  28.044   3.148  0.00  0.00    +0.144 HD
ATOM     19  H   UNL     1     -28.014  28.828   4.457  0.00  0.00    +0.144 HD
ATOM     20  N   UNL     1     -31.407  29.555   7.945  0.00  0.00    -0.334 N 
ATOM     21  H   UNL     1     -32.271  29.552   8.416  0.00  0.00    +0.144 HD
ATOM     22  H   UNL     1     -30.612  29.946   8.375  0.00  0.00    +0.144 HD
BRANCH  15  24
ATOM     23  O   UNL     1     -27.898  27.734   7.637  0.00  0.00    -0.226 OA
ATOM     24  N   UNL     1     -28.943  29.564   6.611  0.00  0.00    -0.258 N 
ATOM     25  C   UNL     1     -27.958  28.925   7.357  0.00  0.00    +0.402 C 
ATOM     26  H   UNL     1     -28.823  30.534   6.488  0.00  0.00    +0.154 HD
BRANCH  25  27
ATOM     27  O   UNL     1     -27.023  29.843   7.752  0.00  0.00    -0.431 OA
ATOM     28  C   UNL     1     -27.107  31.132   7.134  0.00  0.00    +0.257 C 
ENDBRANCH  25  27
ENDBRANCH  15  24
ENDBRANCH   7  14
BRANCH   2  29
ATOM     29  C   UNL     1     -36.305  25.417   4.513  0.00  0.00    +0.146 C 
BRANCH  29  31
ATOM     30  F   UNL     1     -36.308  23.485   2.440  0.00  0.00    -0.204 F 
ATOM     31  C   UNL     1     -35.896  23.981   4.725  0.00  0.00    +0.027 C 
ATOM     32  C   UNL     1     -35.921  23.082   3.659  0.00  0.00    +0.138 C 
ATOM     33  C   UNL     1     -35.492  23.552   5.989  0.00  0.00    -0.000 C 
ATOM     34  C   UNL     1     -35.543  21.754   3.857  0.00  0.00    +0.029 C 
ATOM     35  C   UNL     1     -35.114  22.224   6.187  0.00  0.00    -0.000 C 
ATOM     36  C   UNL     1     -35.140  21.325   5.122  0.00  0.00    +0.002 C 
ENDBRANCH  29  31
ENDBRANCH   2  29
TORSDOF 5
ENDMDL
MODEL 3
REMARK VINA RESULT:      -7.4      3.511      5.400
REMARK  Name = 54674461
REMARK  5 active torsions:
REMARK  status: ('A' for Active; 'I' for Inactive)
REMARK    1  A    between atoms: N_2  and  C_29
REMARK    2  A    between atoms: C_7  and  C_14
REMARK    3  A    between atoms: C_15  and  N_21
REMARK    4  A    between atoms: C_22  and  O_24
REMARK    5  A    between atoms: C_29  and  C_31
REMARK                            x       y       z     vdW  Elec       q    Type
REMARK                         _______ _______ _______ _____ _____    ______ ____
ROOT
ATOM      1  F   UNL     1     -35.393  22.538   7.342  0.00  0.00    -0.207 F 
ATOM      2  N   UNL     1     -34.869  22.627   1.996  0.00  0.00    -0.193 N 
ATOM      3  N   UNL     1     -34.448  23.868   1.692  0.00  0.00    -0.168 NA
ATOM      4  N   UNL     1     -35.471  21.288   3.919  0.00  0.00    -0.251 NA
ATOM      5  C   UNL     1     -34.735  23.623   3.949  0.00  0.00    +0.133 C 
ATOM      6  C   UNL     1     -35.057  22.425   3.332  0.00  0.00    +0.133 C 
ATOM      7  C   UNL     1     -34.368  24.470   2.884  0.00  0.00    +0.172 C 
ATOM      8  C   UNL     1     -34.842  23.694   5.343  0.00  0.00    +0.015 C 
ATOM      9  C   UNL     1     -35.268  22.544   6.009  0.00  0.00    +0.139 C 
ATOM     10  C   UNL     1     -35.560  21.405   5.265  0.00  0.00    +0.182 C 
ENDROOT
BRANCH   7  14
ATOM     11  N   UNL     1     -34.913  26.775   2.989  0.00  0.00    -0.326 NA
ATOM     12  N   UNL     1     -32.613  26.058   3.032  0.00  0.00    -0.326 NA
ATOM     13  N   UNL     1     -35.453  29.079   3.095  0.00  0.00    -0.334 N 
ATOM     14  C   UNL     1     -33.941  25.843   2.974  0.00  0.00    +0.156 C 
ATOM     15  C   UNL     1     -33.146  28.403   3.138  0.00  0.00    +0.210 C 
ATOM     16  C   UNL     1     -34.479  28.049   3.073  0.00  0.00    +0.193 C 
ATOM     17  C   UNL     1     -32.249  27.355   3.113  0.00  0.00    +0.193 C 
ATOM     18  H   UNL     1     -36.410  28.851   3.050  0.00  0.00    +0.144 HD
ATOM     19  H   UNL     1     -35.173  30.020   3.157  0.00  0.00    +0.144 HD
ATOM     20  N   UNL     1     -30.864  27.647   3.175  0.00  0.00    -0.334 N 
ATOM     21  H   UNL     1     -30.205  26.916   3.159  0.00  0.00    +0.144 HD
ATOM     22  H   UNL     1     -30.561  28.582   3.234  0.00  0.00    +0.144 HD
BRANCH  15  24
ATOM     23  O   UNL     1     -32.569  30.135   5.524  0.00  0.00    -0.226 OA
ATOM     24  N   UNL     1     -32.732  29.734   3.220  0.00  0.00    -0.258 N 
ATOM     25  C   UNL     1     -32.477  30.495   4.357  0.00  0.00    +0.402 C 
ATOM     26  H   UNL     1     -32.603  30.195   2.360  0.00  0.00    +0.154 HD
BRANCH  25  27
ATOM     27  O   UNL     1     -32.092  31.753   3.981  0.00  0.00    -0.431 OA
ATOM     28  C   UNL     1     -30.687  31.946   3.776  0.00  0.00    +0.257 C 
ENDBRANCH  25  27
ENDBRANCH  15  24
ENDBRANCH   7  14
BRANCH   2  29
ATOM     29  C   UNL     1     -35.075  21.666   0.938  0.00  0.00    +0.146 C 
BRANCH  29  31
ATOM     30  F   UNL     1     -32.652  22.232  -0.418  0.00  0.00    -0.204 F 
ATOM     31  C   UNL     1     -33.952  20.669   0.809  0.00  0.00    +0.027 C 
ATOM     32  C   UNL     1     -32.784  21.015   0.127  0.00  0.00    +0.138 C 
ATOM     33  C   UNL     1     -34.079  19.400   1.373  0.00  0.00    -0.000 C 
ATOM     34  C   UNL     1     -31.746  20.091   0.009  0.00  0.00    +0.029 C 
ATOM     35  C   UNL     1     -33.040  18.476   1.255  0.00  0.00    -0.000 C 
ATOM     36  C   UNL     1     -31.874  18.821   0.573  0.00  0.00    +0.002 C 
ENDBRANCH  29  31
ENDBRANCH   2  29
TORSDOF 5
ENDMDL
MODEL 4
REMARK VINA RESULT:      -6.8      7.530     10.332
REMARK  Name = 54674461
REMARK  5 active torsions:
REMARK  status: ('A' for Active; 'I' for Inactive)
REMARK    1  A    between atoms: N_2  and  C_29
REMARK    2  A    between atoms: C_7  and  C_14
REMARK    3  A    between atoms: C_15  and  N_21
REMARK    4  A    between atoms: C_22  and  O_24
REMARK    5  A    between atoms: C_29  and  C_31
REMARK                            x       y       z     vdW  Elec       q    Type
REMARK                         _______ _______ _______ _____ _____    ______ ____
ROOT
ATOM      1  F   UNL     1     -31.721  23.568  -1.367  0.00  0.00    -0.207 F 
ATOM      2  N   UNL     1     -35.492  21.343   1.745  0.00  0.00    -0.193 N 
ATOM      3  N   UNL     1     -35.221  20.026   1.761  0.00  0.00    -0.168 NA
ATOM      4  N   UNL     1     -34.649  23.403   0.796  0.00  0.00    -0.251 NA
ATOM      5  C   UNL     1     -33.710  21.165   0.474  0.00  0.00    +0.133 C 
ATOM      6  C   UNL     1     -34.620  22.073   0.991  0.00  0.00    +0.133 C 
ATOM      7  C   UNL     1     -34.135  19.923   0.986  0.00  0.00    +0.172 C 
ATOM      8  C   UNL     1     -32.690  21.655  -0.350  0.00  0.00    +0.015 C 
ATOM      9  C   UNL     1     -32.667  23.029  -0.589  0.00  0.00    +0.139 C 
ATOM     10  C   UNL     1     -33.645  23.829  -0.006  0.00  0.00    +0.182 C 
ENDROOT
BRANCH   7  14
ATOM     11  N   UNL     1     -34.355  17.648   0.355  0.00  0.00    -0.326 NA
ATOM     12  N   UNL     1     -32.204  18.548   0.963  0.00  0.00    -0.326 NA
ATOM     13  N   UNL     1     -34.569  15.374  -0.274  0.00  0.00    -0.334 N 
ATOM     14  C   UNL     1     -33.531  18.635   0.755  0.00  0.00    +0.156 C 
ATOM     15  C   UNL     1     -32.406  16.235   0.327  0.00  0.00    +0.210 C 
ATOM     16  C   UNL     1     -33.757  16.456   0.150  0.00  0.00    +0.193 C 
ATOM     17  C   UNL     1     -31.671  17.328   0.739  0.00  0.00    +0.193 C 
ATOM     18  H   UNL     1     -35.535  15.508  -0.408  0.00  0.00    +0.144 HD
ATOM     19  H   UNL     1     -34.167  14.491  -0.436  0.00  0.00    +0.144 HD
ATOM     20  N   UNL     1     -30.278  17.170   0.942  0.00  0.00    -0.334 N 
ATOM     21  H   UNL     1     -29.734  17.936   1.236  0.00  0.00    +0.144 HD
ATOM     22  H   UNL     1     -29.855  16.294   0.790  0.00  0.00    +0.144 HD
BRANCH  15  24
ATOM     23  O   UNL     1     -31.199  15.041  -2.151  0.00  0.00    -0.226 OA
ATOM     24  N   UNL     1     -31.821  14.986   0.108  0.00  0.00    -0.258 N 
ATOM     25  C   UNL     1     -31.273  14.479  -1.066  0.00  0.00    +0.402 C 
ATOM     26  H   UNL     1     -31.791  14.385   0.888  0.00  0.00    +0.154 HD
BRANCH  25  27
ATOM     27  O   UNL     1     -30.807  13.212  -0.836  0.00  0.00    -0.431 OA
ATOM     28  C   UNL     1     -30.316  12.952   0.484  0.00  0.00    +0.257 C 
ENDBRANCH  25  27
ENDBRANCH  15  24
ENDBRANCH   7  14
BRANCH   2  29
ATOM     29  C   UNL     1     -36.624  21.846   2.488  0.00  0.00    +0.146 C 
BRANCH  29  31
ATOM     30  F   UNL     1     -35.104  20.977   4.717  0.00  0.00    -0.204 F 
ATOM     31  C   UNL     1     -36.235  22.757   3.625  0.00  0.00    +0.027 C 
ATOM     32  C   UNL     1     -35.484  22.262   4.692  0.00  0.00    +0.138 C 
ATOM     33  C   UNL     1     -36.625  24.096   3.609  0.00  0.00    -0.000 C 
ATOM     34  C   UNL     1     -35.125  23.107   5.743  0.00  0.00    +0.029 C 
ATOM     35  C   UNL     1     -36.266  24.940   4.660  0.00  0.00    -0.000 C 
ATOM     36  C   UNL     1     -35.517  24.446   5.727  0.00  0.00    +0.002 C 
ENDBRANCH  29  31
ENDBRANCH   2  29
TORSDOF 5
ENDMDL
MODEL 5
REMARK VINA RESULT:      -6.7      7.730     10.518
REMARK  Name = 54674461
REMARK  5 active torsions:
REMARK  status: ('A' for Active; 'I' for Inactive)
REMARK    1  A    between atoms: N_2  and  C_29
REMARK    2  A    between atoms: C_7  and  C_14
REMARK    3  A    between atoms: C_15  and  N_21
REMARK    4  A    between atoms: C_22  and  O_24
REMARK    5  A    between atoms: C_29  and  C_31
REMARK                            x       y       z     vdW  Elec       q    Type
REMARK                         _______ _______ _______ _____ _____    ______ ____
ROOT
ATOM      1  F   UNL     1     -31.383  23.322  -1.519  0.00  0.00    -0.207 F 
ATOM      2  N   UNL     1     -35.211  21.250   1.628  0.00  0.00    -0.193 N 
ATOM      3  N   UNL     1     -34.984  19.924   1.654  0.00  0.00    -0.168 NA
ATOM      4  N   UNL     1     -34.305  23.272   0.657  0.00  0.00    -0.251 NA
ATOM      5  C   UNL     1     -33.441  21.002   0.351  0.00  0.00    +0.133 C 
ATOM      6  C   UNL     1     -34.319  21.943   0.863  0.00  0.00    +0.133 C 
ATOM      7  C   UNL     1     -33.906  19.779   0.875  0.00  0.00    +0.172 C 
ATOM      8  C   UNL     1     -32.410  21.451  -0.482  0.00  0.00    +0.015 C 
ATOM      9  C   UNL     1     -32.343  22.822  -0.733  0.00  0.00    +0.139 C 
ATOM     10  C   UNL     1     -33.291  23.658  -0.153  0.00  0.00    +0.182 C 
ENDROOT
BRANCH   7  14
ATOM     11  N   UNL     1     -32.017  18.345   0.839  0.00  0.00    -0.326 NA
ATOM     12  N   UNL     1     -34.205  17.504   0.279  0.00  0.00    -0.326 NA
ATOM     13  N   UNL     1     -30.135  16.908   0.801  0.00  0.00    -0.334 N 
ATOM     14  C   UNL     1     -33.345  18.470   0.653  0.00  0.00    +0.156 C 
ATOM     15  C   UNL     1     -32.300  16.033   0.234  0.00  0.00    +0.210 C 
ATOM     16  C   UNL     1     -31.526  17.108   0.621  0.00  0.00    +0.193 C 
ATOM     17  C   UNL     1     -33.647  16.292   0.077  0.00  0.00    +0.193 C 
ATOM     18  H   UNL     1     -29.562  17.661   1.077  0.00  0.00    +0.144 HD
ATOM     19  H   UNL     1     -29.741  16.019   0.653  0.00  0.00    +0.144 HD
ATOM     20  N   UNL     1     -34.499  15.231  -0.320  0.00  0.00    -0.334 N 
ATOM     21  H   UNL     1     -35.463  15.393  -0.439  0.00  0.00    +0.144 HD
ATOM     22  H   UNL     1     -34.126  14.334  -0.478  0.00  0.00    +0.144 HD
BRANCH  15  24
ATOM     23  O   UNL     1     -31.892  14.487  -2.310  0.00  0.00    -0.226 OA
ATOM     24  N   UNL     1     -31.757  14.765   0.014  0.00  0.00    -0.258 N 
ATOM     25  C   UNL     1     -31.589  14.090  -1.191  0.00  0.00    +0.402 C 
ATOM     26  H   UNL     1     -31.452  14.285   0.818  0.00  0.00    +0.154 HD
BRANCH  25  27
ATOM     27  O   UNL     1     -31.015  12.871  -0.951  0.00  0.00    -0.431 OA
ATOM     28  C   UNL     1     -30.181  12.787   0.211  0.00  0.00    +0.257 C 
ENDBRANCH  25  27
ENDBRANCH  15  24
ENDBRANCH   7  14
BRANCH   2  29
ATOM     29  C   UNL     1     -36.322  21.796   2.371  0.00  0.00    +0.146 C 
BRANCH  29  31
ATOM     30  F   UNL     1     -36.496  24.563   2.958  0.00  0.00    -0.204 F 
ATOM     31  C   UNL     1     -35.920  22.382   3.701  0.00  0.00    +0.027 C 
ATOM     32  C   UNL     1     -36.032  23.756   3.922  0.00  0.00    +0.138 C 
ATOM     33  C   UNL     1     -35.436  21.551   4.711  0.00  0.00    -0.000 C 
ATOM     34  C   UNL     1     -35.660  24.296   5.153  0.00  0.00    +0.029 C 
ATOM     35  C   UNL     1     -35.064  22.092   5.942  0.00  0.00    -0.000 C 
ATOM     36  C   UNL     1     -35.175  23.464   6.163  0.00  0.00    +0.002 C 
ENDBRANCH  29  31
ENDBRANCH   2  29
TORSDOF 5
ENDMDL
MODEL 6
REMARK VINA RESULT:      -6.7      3.734      5.776
REMARK  Name = 54674461
REMARK  5 active torsions:
REMARK  status: ('A' for Active; 'I' for Inactive)
REMARK    1  A    between atoms: N_2  and  C_29
REMARK    2  A    between atoms: C_7  and  C_14
REMARK    3  A    between atoms: C_15  and  N_21
REMARK    4  A    between atoms: C_22  and  O_24
REMARK    5  A    between atoms: C_29  and  C_31
REMARK                            x       y       z     vdW  Elec       q    Type
REMARK                         _______ _______ _______ _____ _____    ______ ____
ROOT
ATOM      1  F   UNL     1     -40.901  23.982   1.813  0.00  0.00    -0.207 F 
ATOM      2  N   UNL     1     -36.347  21.133   1.790  0.00  0.00    -0.193 N 
ATOM      3  N   UNL     1     -35.400  21.955   2.278  0.00  0.00    -0.168 NA
ATOM      4  N   UNL     1     -38.712  21.117   1.281  0.00  0.00    -0.251 NA
ATOM      5  C   UNL     1     -37.438  22.993   2.206  0.00  0.00    +0.133 C 
ATOM      6  C   UNL     1     -37.585  21.702   1.725  0.00  0.00    +0.133 C 
ATOM      7  C   UNL     1     -36.070  23.085   2.530  0.00  0.00    +0.172 C 
ATOM      8  C   UNL     1     -38.574  23.811   2.249  0.00  0.00    +0.015 C 
ATOM      9  C   UNL     1     -39.775  23.259   1.801  0.00  0.00    +0.139 C 
ATOM     10  C   UNL     1     -39.782  21.946   1.341  0.00  0.00    +0.182 C 
ENDROOT
BRANCH   7  14
ATOM     11  N   UNL     1     -35.982  24.857   4.103  0.00  0.00    -0.326 NA
ATOM     12  N   UNL     1     -34.208  24.552   2.501  0.00  0.00    -0.326 NA
ATOM     13  N   UNL     1     -35.889  26.628   5.672  0.00  0.00    -0.334 N 
ATOM     14  C   UNL     1     -35.382  24.228   3.075  0.00  0.00    +0.156 C 
ATOM     15  C   UNL     1     -34.101  26.359   4.089  0.00  0.00    +0.210 C 
ATOM     16  C   UNL     1     -35.312  25.922   4.588  0.00  0.00    +0.193 C 
ATOM     17  C   UNL     1     -33.591  25.628   3.035  0.00  0.00    +0.193 C 
ATOM     18  H   UNL     1     -36.753  26.336   6.045  0.00  0.00    +0.144 HD
ATOM     19  H   UNL     1     -35.428  27.410   6.053  0.00  0.00    +0.144 HD
ATOM     20  N   UNL     1     -32.352  26.023   2.473  0.00  0.00    -0.334 N 
ATOM     21  H   UNL     1     -31.969  25.517   1.721  0.00  0.00    +0.144 HD
ATOM     22  H   UNL     1     -31.874  26.804   2.836  0.00  0.00    +0.144 HD
BRANCH  15  24
ATOM     23  O   UNL     1     -32.705  26.748   6.721  0.00  0.00    -0.226 OA
ATOM     24  N   UNL     1     -33.436  27.469   4.614  0.00  0.00    -0.258 N 
ATOM     25  C   UNL     1     -32.802  27.598   5.845  0.00  0.00    +0.402 C 
ATOM     26  H   UNL     1     -33.412  28.266   4.035  0.00  0.00    +0.154 HD
BRANCH  25  27
ATOM     27  O   UNL     1     -32.278  28.858   5.953  0.00  0.00    -0.431 OA
ATOM     28  C   UNL     1     -32.022  29.541   4.720  0.00  0.00    +0.257 C 
ENDBRANCH  25  27
ENDBRANCH  15  24
ENDBRANCH   7  14
BRANCH   2  29
ATOM     29  C   UNL     1     -35.990  19.790   1.397  0.00  0.00    +0.146 C 
BRANCH  29  31
ATOM     30  F   UNL     1     -35.372  20.851  -1.157  0.00  0.00    -0.204 F 
ATOM     31  C   UNL     1     -34.619  19.694   0.775  0.00  0.00    +0.027 C 
ATOM     32  C   UNL     1     -34.385  20.240  -0.488  0.00  0.00    +0.138 C 
ATOM     33  C   UNL     1     -33.585  19.061   1.464  0.00  0.00    -0.000 C 
ATOM     34  C   UNL     1     -33.116  20.151  -1.061  0.00  0.00    +0.029 C 
ATOM     35  C   UNL     1     -32.316  18.971   0.890  0.00  0.00    -0.000 C 
ATOM     36  C   UNL     1     -32.082  19.515  -0.373  0.00  0.00    +0.002 C 
ENDBRANCH  29  31
ENDBRANCH   2  29
TORSDOF 5
ENDMDL
MODEL 7
REMARK VINA RESULT:      -6.6      6.383      9.381
REMARK  Name = 54674461
REMARK  5 active torsions:
REMARK  status: ('A' for Active; 'I' for Inactive)
REMARK    1  A    between atoms: N_2  and  C_29
REMARK    2  A    between atoms: C_7  and  C_14
REMARK    3  A    between atoms: C_15  and  N_21
REMARK    4  A    between atoms: C_22  and  O_24
REMARK    5  A    between atoms: C_29  and  C_31
REMARK                            x       y       z     vdW  Elec       q    Type
REMARK                         _______ _______ _______ _____ _____    ______ ____
ROOT
ATOM      1  F   UNL     1     -30.909  17.245   1.290  0.00  0.00    -0.207 F 
ATOM      2  N   UNL     1     -35.551  18.760  -0.951  0.00  0.00    -0.193 N 
ATOM      3  N   UNL     1     -35.961  19.833  -0.249  0.00  0.00    -0.168 NA
ATOM      4  N   UNL     1     -33.727  17.172  -1.020  0.00  0.00    -0.251 NA
ATOM      5  C   UNL     1     -33.976  19.028   0.558  0.00  0.00    +0.133 C 
ATOM      6  C   UNL     1     -34.370  18.238  -0.511  0.00  0.00    +0.133 C 
ATOM      7  C   UNL     1     -34.999  19.991   0.667  0.00  0.00    +0.172 C 
ATOM      8  C   UNL     1     -32.777  18.707   1.205  0.00  0.00    +0.015 C 
ATOM      9  C   UNL     1     -32.064  17.609   0.721  0.00  0.00    +0.139 C 
ATOM     10  C   UNL     1     -32.575  16.901  -0.363  0.00  0.00    +0.182 C 
ENDROOT
BRANCH   7  14
ATOM     11  N   UNL     1     -34.886  22.310   1.153  0.00  0.00    -0.326 NA
ATOM     12  N   UNL     1     -35.348  20.713   2.898  0.00  0.00    -0.326 NA
ATOM     13  N   UNL     1     -34.775  24.624   1.645  0.00  0.00    -0.334 N 
ATOM     14  C   UNL     1     -35.083  21.064   1.626  0.00  0.00    +0.156 C 
ATOM     15  C   UNL     1     -35.235  23.062   3.413  0.00  0.00    +0.210 C 
ATOM     16  C   UNL     1     -34.970  23.288   2.077  0.00  0.00    +0.193 C 
ATOM     17  C   UNL     1     -35.417  21.741   3.770  0.00  0.00    +0.193 C 
ATOM     18  H   UNL     1     -34.584  24.810   0.697  0.00  0.00    +0.144 HD
ATOM     19  H   UNL     1     -34.830  25.364   2.291  0.00  0.00    +0.144 HD
ATOM     20  N   UNL     1     -35.691  21.437   5.126  0.00  0.00    -0.334 N 
ATOM     21  H   UNL     1     -35.824  20.502   5.404  0.00  0.00    +0.144 HD
ATOM     22  H   UNL     1     -35.748  22.162   5.791  0.00  0.00    +0.144 HD
BRANCH  15  24
ATOM     23  O   UNL     1     -37.582  24.686   4.353  0.00  0.00    -0.226 OA
ATOM     24  N   UNL     1     -35.312  24.100   4.344  0.00  0.00    -0.258 N 
ATOM     25  C   UNL     1     -36.430  24.824   4.746  0.00  0.00    +0.402 C 
ATOM     26  H   UNL     1     -34.462  24.353   4.772  0.00  0.00    +0.154 HD
BRANCH  25  27
ATOM     27  O   UNL     1     -36.055  25.751   5.681  0.00  0.00    -0.431 OA
ATOM     28  C   UNL     1     -34.645  25.940   5.849  0.00  0.00    +0.257 C 
ENDBRANCH  25  27
ENDBRANCH  15  24
ENDBRANCH   7  14
BRANCH   2  29
ATOM     29  C   UNL     1     -36.354  18.279  -2.049  0.00  0.00    +0.146 C 
BRANCH  29  31
ATOM     30  F   UNL     1     -38.896  18.533  -0.821  0.00  0.00    -0.204 F 
ATOM     31  C   UNL     1     -37.215  17.095  -1.685  0.00  0.00    +0.027 C 
ATOM     32  C   UNL     1     -38.458  17.293  -1.082  0.00  0.00    +0.138 C 
ATOM     33  C   UNL     1     -36.769  15.801  -1.953  0.00  0.00    -0.000 C 
ATOM     34  C   UNL     1     -39.253  16.197  -0.746  0.00  0.00    +0.029 C 
ATOM     35  C   UNL     1     -37.564  14.705  -1.617  0.00  0.00    -0.000 C 
ATOM     36  C   UNL     1     -38.806  14.903  -1.013  0.00  0.00    +0.002 C 
ENDBRANCH  29  31
ENDBRANCH   2  29
TORSDOF 5
ENDMDL
MODEL 8
REMARK VINA RESULT:      -6.5      6.825      9.681
REMARK  Name = 54674461
REMARK  5 active torsions:
REMARK  status: ('A' for Active; 'I' for Inactive)
REMARK    1  A    between atoms: N_2  and  C_29
REMARK    2  A    between atoms: C_7  and  C_14
REMARK    3  A    between atoms: C_15  and  N_21
REMARK    4  A    between atoms: C_22  and  O_24
REMARK    5  A    between atoms: C_29  and  C_31
REMARK                            x       y       z     vdW  Elec       q    Type
REMARK                         _______ _______ _______ _____ _____    ______ ____
ROOT
ATOM      1  F   UNL     1     -41.159  27.699  -2.289  0.00  0.00    -0.207 F 
ATOM      2  N   UNL     1     -42.581  27.005   2.844  0.00  0.00    -0.193 N 
ATOM      3  N   UNL     1     -41.735  26.082   3.335  0.00  0.00    -0.168 NA
ATOM      4  N   UNL     1     -43.051  28.189   0.787  0.00  0.00    -0.251 NA
ATOM      5  C   UNL     1     -41.289  26.523   1.135  0.00  0.00    +0.133 C 
ATOM      6  C   UNL     1     -42.361  27.307   1.532  0.00  0.00    +0.133 C 
ATOM      7  C   UNL     1     -40.951  25.793   2.291  0.00  0.00    +0.172 C 
ATOM      8  C   UNL     1     -40.848  26.637  -0.189  0.00  0.00    +0.015 C 
ATOM      9  C   UNL     1     -41.526  27.538  -1.012  0.00  0.00    +0.139 C 
ATOM     10  C   UNL     1     -42.588  28.264  -0.484  0.00  0.00    +0.182 C 
ENDROOT
BRANCH   7  14
ATOM     11  N   UNL     1     -40.243  23.530   2.278  0.00  0.00    -0.326 NA
ATOM     12  N   UNL     1     -38.665  25.304   2.689  0.00  0.00    -0.326 NA
ATOM     13  N   UNL     1     -39.531  21.271   2.266  0.00  0.00    -0.334 N 
ATOM     14  C   UNL     1     -39.894  24.822   2.427  0.00  0.00    +0.156 C 
ATOM     15  C   UNL     1     -37.928  23.013   2.682  0.00  0.00    +0.210 C 
ATOM     16  C   UNL     1     -39.231  22.648   2.412  0.00  0.00    +0.193 C 
ATOM     17  C   UNL     1     -37.701  24.368   2.812  0.00  0.00    +0.193 C 
ATOM     18  H   UNL     1     -40.454  20.987   2.073  0.00  0.00    +0.144 HD
ATOM     19  H   UNL     1     -38.817  20.599   2.356  0.00  0.00    +0.144 HD
ATOM     20  N   UNL     1     -36.384  24.811   3.091  0.00  0.00    -0.334 N 
ATOM     21  H   UNL     1     -36.199  25.773   3.188  0.00  0.00    +0.144 HD
ATOM     22  H   UNL     1     -35.655  24.156   3.188  0.00  0.00    +0.144 HD
BRANCH  15  24
ATOM     23  O   UNL     1     -36.073  22.447   4.977  0.00  0.00    -0.226 OA
ATOM     24  N   UNL     1     -36.904  22.072   2.818  0.00  0.00    -0.258 N 
ATOM     25  C   UNL     1     -36.069  21.849   3.909  0.00  0.00    +0.402 C 
ATOM     26  H   UNL     1     -36.754  21.489   2.039  0.00  0.00    +0.154 HD
BRANCH  25  27
ATOM     27  O   UNL     1     -35.206  20.828   3.616  0.00  0.00    -0.431 OA
ATOM     28  C   UNL     1     -35.101  20.470   2.233  0.00  0.00    +0.257 C 
ENDBRANCH  25  27
ENDBRANCH  15  24
ENDBRANCH   7  14
BRANCH   2  29
ATOM     29  C   UNL     1     -43.598  27.567   3.702  0.00  0.00    +0.146 C 
BRANCH  29  31
ATOM     30  F   UNL     1     -45.120  27.586   6.093  0.00  0.00    -0.204 F 
ATOM     31  C   UNL     1     -44.754  26.630   3.950  0.00  0.00    +0.027 C 
ATOM     32  C   UNL     1     -45.461  26.695   5.152  0.00  0.00    +0.138 C 
ATOM     33  C   UNL     1     -45.117  25.699   2.977  0.00  0.00    -0.000 C 
ATOM     34  C   UNL     1     -46.530  25.828   5.379  0.00  0.00    +0.029 C 
ATOM     35  C   UNL     1     -46.186  24.832   3.205  0.00  0.00    -0.000 C 
ATOM     36  C   UNL     1     -46.892  24.896   4.406  0.00  0.00    +0.002 C 
ENDBRANCH  29  31
ENDBRANCH   2  29
TORSDOF 5
ENDMDL
MODEL 9
REMARK VINA RESULT:      -6.4      8.268     11.185
REMARK  Name = 54674461
REMARK  5 active torsions:
REMARK  status: ('A' for Active; 'I' for Inactive)
REMARK    1  A    between atoms: N_2  and  C_29
REMARK    2  A    between atoms: C_7  and  C_14
REMARK    3  A    between atoms: C_15  and  N_21
REMARK    4  A    between atoms: C_22  and  O_24
REMARK    5  A    between atoms: C_29  and  C_31
REMARK                            x       y       z     vdW  Elec       q    Type
REMARK                         _______ _______ _______ _____ _____    ______ ____
ROOT
ATOM      1  F   UNL     1     -42.246  30.971  -0.493  0.00  0.00    -0.207 F 
ATOM      2  N   UNL     1     -44.382  28.264   3.626  0.00  0.00    -0.193 N 
ATOM      3  N   UNL     1     -43.684  27.116   3.708  0.00  0.00    -0.168 NA
ATOM      4  N   UNL     1     -44.479  30.287   2.304  0.00  0.00    -0.251 NA
ATOM      5  C   UNL     1     -42.919  28.426   1.995  0.00  0.00    +0.133 C 
ATOM      6  C   UNL     1     -43.967  29.085   2.618  0.00  0.00    +0.133 C 
ATOM      7  C   UNL     1     -42.795  27.220   2.714  0.00  0.00    +0.172 C 
ATOM      8  C   UNL     1     -42.300  29.057   0.909  0.00  0.00    +0.015 C 
ATOM      9  C   UNL     1     -42.789  30.309   0.535  0.00  0.00    +0.139 C 
ATOM     10  C   UNL     1     -43.850  30.857   1.249  0.00  0.00    +0.182 C 
ENDROOT
BRANCH   7  14
ATOM     11  N   UNL     1     -40.784  26.110   3.300  0.00  0.00    -0.326 NA
ATOM     12  N   UNL     1     -42.121  25.329   1.454  0.00  0.00    -0.326 NA
ATOM     13  N   UNL     1     -38.775  24.998   3.882  0.00  0.00    -0.334 N 
ATOM     14  C   UNL     1     -41.848  26.161   2.477  0.00  0.00    +0.156 C 
ATOM     15  C   UNL     1     -40.080  24.189   2.032  0.00  0.00    +0.210 C 
ATOM     16  C   UNL     1     -39.917  25.108   3.049  0.00  0.00    +0.193 C 
ATOM     17  C   UNL     1     -41.212  24.350   1.259  0.00  0.00    +0.193 C 
ATOM     18  H   UNL     1     -38.637  25.642   4.614  0.00  0.00    +0.144 HD
ATOM     19  H   UNL     1     -38.122  24.278   3.729  0.00  0.00    +0.144 HD
ATOM     20  N   UNL     1     -41.441  23.441   0.196  0.00  0.00    -0.334 N 
ATOM     21  H   UNL     1     -42.241  23.537  -0.369  0.00  0.00    +0.144 HD
ATOM     22  H   UNL     1     -40.798  22.715   0.023  0.00  0.00    +0.144 HD
BRANCH  15  24
ATOM     23  O   UNL     1     -40.382  21.204   2.192  0.00  0.00    -0.226 OA
ATOM     24  N   UNL     1     -39.160  23.165   1.799  0.00  0.00    -0.258 N 
ATOM     25  C   UNL     1     -39.351  21.790   1.887  0.00  0.00    +0.402 C 
ATOM     26  H   UNL     1     -38.256  23.455   1.536  0.00  0.00    +0.154 HD
BRANCH  25  27
ATOM     27  O   UNL     1     -38.182  21.150   1.573  0.00  0.00    -0.431 OA
ATOM     28  C   UNL     1     -36.990  21.702   2.144  0.00  0.00    +0.257 C 
ENDBRANCH  25  27
ENDBRANCH  15  24
ENDBRANCH   7  14
BRANCH   2  29
ATOM     29  C   UNL     1     -45.453  28.514   4.560  0.00  0.00    +0.146 C 
BRANCH  29  31
ATOM     30  F   UNL     1     -46.520  27.836   7.097  0.00  0.00    -0.204 F 
ATOM     31  C   UNL     1     -44.988  29.149   5.846  0.00  0.00    +0.027 C 
ATOM     32  C   UNL     1     -45.557  28.768   7.062  0.00  0.00    +0.138 C 
ATOM     33  C   UNL     1     -43.986  30.120   5.820  0.00  0.00    -0.000 C 
ATOM     34  C   UNL     1     -45.125  29.356   8.250  0.00  0.00    +0.029 C 
ATOM     35  C   UNL     1     -43.554  30.709   7.009  0.00  0.00    -0.000 C 
ATOM     36  C   UNL     1     -44.124  30.328   8.224  0.00  0.00    +0.002 C 
ENDBRANCH  29  31
ENDBRANCH   2  29
TORSDOF 5
ENDMDL
