MODEL 1
REMARK VINA RESULT:      -7.0      0.000      0.000
REMARK  Name = 20284004
REMARK  8 active torsions:
REMARK  status: ('A' for Active; 'I' for Inactive)
REMARK    1  A    between atoms: S_1  and  N_5
REMARK    2  A    between atoms: S_1  and  N_17
REMARK    3  A    between atoms: C_6  and  O_8
REMARK    4  A    between atoms: O_8  and  C_9
REMARK    5  A    between atoms: C_9  and  C_10
REMARK    6  A    between atoms: C_18  and  O_20
REMARK    7  A    between atoms: O_20  and  C_21
REMARK    8  A    between atoms: C_21  and  C_22
REMARK                            x       y       z     vdW  Elec       q    Type
REMARK                         _______ _______ _______ _____ _____    ______ ____
ROOT
ATOM      1  S   UNL     1     -35.952  23.155   4.965  0.00  0.00    +0.133 S 
ATOM      2  O   UNL     1     -37.088  23.748   4.285  0.00  0.00    -0.135 OA
ATOM      3  O   UNL     1     -35.990  22.945   6.401  0.00  0.00    -0.135 OA
ENDROOT
BRANCH   1   5
ATOM      4  O   UNL     1     -35.233  22.367   2.023  0.00  0.00    -0.225 OA
ATOM      5  N   UNL     1     -35.558  21.659   4.231  0.00  0.00    -0.138 N 
ATOM      6  C   UNL     1     -35.249  21.464   2.850  0.00  0.00    +0.422 C 
ATOM      7  H   UNL     1     -35.543  20.864   4.811  0.00  0.00    +0.181 HD
BRANCH   6   8
ATOM      8  O   UNL     1     -34.974  20.154   2.577  0.00  0.00    -0.429 OA
BRANCH   8   9
ATOM      9  C   UNL     1     -34.851  19.820   1.190  0.00  0.00    +0.237 C 
BRANCH   9  10
ATOM     10  C   UNL     1     -33.419  19.486   0.892  0.00  0.00    +0.021 C 
ATOM     11  C   UNL     1     -32.866  18.298   1.372  0.00  0.00    -0.001 C 
ATOM     12  C   UNL     1     -32.641  20.362   0.135  0.00  0.00    -0.001 C 
ATOM     13  C   UNL     1     -31.534  17.987   1.095  0.00  0.00    -0.000 C 
ATOM     14  C   UNL     1     -31.310  20.051  -0.142  0.00  0.00    -0.000 C 
ATOM     15  C   UNL     1     -30.756  18.863   0.338  0.00  0.00    -0.000 C 
ENDBRANCH   9  10
ENDBRANCH   8   9
ENDBRANCH   6   8
ENDBRANCH   1   5
BRANCH   1  17
ATOM     16  O   UNL     1     -35.073  26.085   5.617  0.00  0.00    -0.225 OA
ATOM     17  N   UNL     1     -34.534  24.044   4.605  0.00  0.00    -0.138 N 
ATOM     18  C   UNL     1     -34.283  25.399   4.981  0.00  0.00    +0.422 C 
ATOM     19  H   UNL     1     -33.831  23.582   4.094  0.00  0.00    +0.181 HD
BRANCH  18  20
ATOM     20  O   UNL     1     -33.062  25.824   4.542  0.00  0.00    -0.429 OA
BRANCH  20  21
ATOM     21  C   UNL     1     -33.074  26.967   3.680  0.00  0.00    +0.237 C 
BRANCH  21  22
ATOM     22  C   UNL     1     -32.645  28.174   4.461  0.00  0.00    +0.021 C 
ATOM     23  C   UNL     1     -32.748  29.445   3.894  0.00  0.00    -0.001 C 
ATOM     24  C   UNL     1     -32.143  28.026   5.754  0.00  0.00    -0.001 C 
ATOM     25  C   UNL     1     -32.348  30.567   4.622  0.00  0.00    -0.000 C 
ATOM     26  C   UNL     1     -31.744  29.148   6.481  0.00  0.00    -0.000 C 
ATOM     27  C   UNL     1     -31.847  30.419   5.914  0.00  0.00    -0.000 C 
ENDBRANCH  21  22
ENDBRANCH  20  21
ENDBRANCH  18  20
ENDBRANCH   1  17
TORSDOF 8
ENDMDL
MODEL 2
REMARK VINA RESULT:      -6.8      0.811      8.537
REMARK  Name = 20284004
REMARK  8 active torsions:
REMARK  status: ('A' for Active; 'I' for Inactive)
REMARK    1  A    between atoms: S_1  and  N_5
REMARK    2  A    between atoms: S_1  and  N_17
REMARK    3  A    between atoms: C_6  and  O_8
REMARK    4  A    between atoms: O_8  and  C_9
REMARK    5  A    between atoms: C_9  and  C_10
REMARK    6  A    between atoms: C_18  and  O_20
REMARK    7  A    between atoms: O_20  and  C_21
REMARK    8  A    between atoms: C_21  and  C_22
REMARK                            x       y       z     vdW  Elec       q    Type
REMARK                         _______ _______ _______ _____ _____    ______ ____
ROOT
ATOM      1  S   UNL     1     -35.908  23.290   4.603  0.00  0.00    +0.133 S 
ATOM      2  O   UNL     1     -35.951  22.393   5.742  0.00  0.00    -0.135 OA
ATOM      3  O   UNL     1     -37.042  24.147   4.307  0.00  0.00    -0.135 OA
ENDROOT
BRANCH   1   5
ATOM      4  O   UNL     1     -35.436  26.160   5.757  0.00  0.00    -0.225 OA
ATOM      5  N   UNL     1     -34.517  24.282   4.702  0.00  0.00    -0.138 N 
ATOM      6  C   UNL     1     -34.466  25.592   5.269  0.00  0.00    +0.422 C 
ATOM      7  H   UNL     1     -33.678  23.918   4.336  0.00  0.00    +0.181 HD
BRANCH   6   8
ATOM      8  O   UNL     1     -33.209  26.121   5.201  0.00  0.00    -0.429 OA
BRANCH   8   9
ATOM      9  C   UNL     1     -32.985  27.063   4.145  0.00  0.00    +0.237 C 
BRANCH   9  10
ATOM     10  C   UNL     1     -32.529  28.363   4.737  0.00  0.00    +0.021 C 
ATOM     11  C   UNL     1     -32.044  28.402   6.046  0.00  0.00    -0.001 C 
ATOM     12  C   UNL     1     -32.588  29.534   3.981  0.00  0.00    -0.001 C 
ATOM     13  C   UNL     1     -31.620  29.611   6.597  0.00  0.00    -0.000 C 
ATOM     14  C   UNL     1     -32.163  30.743   4.532  0.00  0.00    -0.000 C 
ATOM     15  C   UNL     1     -31.679  30.781   5.841  0.00  0.00    -0.000 C 
ENDBRANCH   9  10
ENDBRANCH   8   9
ENDBRANCH   6   8
ENDBRANCH   1   5
BRANCH   1  17
ATOM     16  O   UNL     1     -34.745  24.138   1.825  0.00  0.00    -0.225 OA
ATOM     17  N   UNL     1     -35.539  22.405   3.184  0.00  0.00    -0.138 N 
ATOM     18  C   UNL     1     -35.004  22.951   1.977  0.00  0.00    +0.422 C 
ATOM     19  H   UNL     1     -35.712  21.436   3.202  0.00  0.00    +0.181 HD
BRANCH  18  20
ATOM     20  O   UNL     1     -34.825  21.986   1.027  0.00  0.00    -0.429 OA
BRANCH  20  21
ATOM     21  C   UNL     1     -34.816  20.636   1.504  0.00  0.00    +0.237 C 
BRANCH  21  22
ATOM     22  C   UNL     1     -33.532  19.979   1.093  0.00  0.00    +0.021 C 
ATOM     23  C   UNL     1     -32.645  20.647   0.248  0.00  0.00    -0.001 C 
ATOM     24  C   UNL     1     -33.224  18.700   1.556  0.00  0.00    -0.001 C 
ATOM     25  C   UNL     1     -31.450  20.035  -0.133  0.00  0.00    -0.000 C 
ATOM     26  C   UNL     1     -32.029  18.089   1.175  0.00  0.00    -0.000 C 
ATOM     27  C   UNL     1     -31.142  18.757   0.330  0.00  0.00    -0.000 C 
ENDBRANCH  21  22
ENDBRANCH  20  21
ENDBRANCH  18  20
ENDBRANCH   1  17
TORSDOF 8
ENDMDL
MODEL 3
REMARK VINA RESULT:      -6.7      3.591      4.631
REMARK  Name = 20284004
REMARK  8 active torsions:
REMARK  status: ('A' for Active; 'I' for Inactive)
REMARK    1  A    between atoms: S_1  and  N_5
REMARK    2  A    between atoms: S_1  and  N_17
REMARK    3  A    between atoms: C_6  and  O_8
REMARK    4  A    between atoms: O_8  and  C_9
REMARK    5  A    between atoms: C_9  and  C_10
REMARK    6  A    between atoms: C_18  and  O_20
REMARK    7  A    between atoms: O_20  and  C_21
REMARK    8  A    between atoms: C_21  and  C_22
REMARK                            x       y       z     vdW  Elec       q    Type
REMARK                         _______ _______ _______ _____ _____    ______ ____
ROOT
ATOM      1  S   UNL     1     -39.485  21.644   0.933  0.00  0.00    +0.133 S 
ATOM      2  O   UNL     1     -39.530  22.400  -0.305  0.00  0.00    -0.135 OA
ATOM      3  O   UNL     1     -40.641  20.877   1.361  0.00  0.00    -0.135 OA
ENDROOT
BRANCH   1   5
ATOM      4  O   UNL     1     -36.401  22.153   0.772  0.00  0.00    -0.225 OA
ATOM      5  N   UNL     1     -38.137  20.588   0.915  0.00  0.00    -0.138 N 
ATOM      6  C   UNL     1     -36.768  20.986   0.837  0.00  0.00    +0.422 C 
ATOM      7  H   UNL     1     -38.323  19.623   0.963  0.00  0.00    +0.181 HD
BRANCH   6   8
ATOM      8  O   UNL     1     -35.930  19.908   0.847  0.00  0.00    -0.429 OA
BRANCH   8   9
ATOM      9  C   UNL     1     -34.929  19.905   1.871  0.00  0.00    +0.237 C 
BRANCH   9  10
ATOM     10  C   UNL     1     -33.593  19.621   1.250  0.00  0.00    +0.021 C 
ATOM     11  C   UNL     1     -32.946  18.413   1.509  0.00  0.00    -0.001 C 
ATOM     12  C   UNL     1     -32.998  20.565   0.413  0.00  0.00    -0.001 C 
ATOM     13  C   UNL     1     -31.704  18.148   0.932  0.00  0.00    -0.000 C 
ATOM     14  C   UNL     1     -31.756  20.301  -0.165  0.00  0.00    -0.000 C 
ATOM     15  C   UNL     1     -31.109  19.092   0.095  0.00  0.00    -0.000 C 
ENDBRANCH   9  10
ENDBRANCH   8   9
ENDBRANCH   6   8
ENDBRANCH   1   5
BRANCH   1  17
ATOM     16  O   UNL     1     -40.639  24.362   1.966  0.00  0.00    -0.225 OA
ATOM     17  N   UNL     1     -39.036  22.675   2.223  0.00  0.00    -0.138 N 
ATOM     18  C   UNL     1     -39.677  23.904   2.569  0.00  0.00    +0.422 C 
ATOM     19  H   UNL     1     -38.269  22.398   2.775  0.00  0.00    +0.181 HD
BRANCH  18  20
ATOM     20  O   UNL     1     -39.081  24.496   3.646  0.00  0.00    -0.429 OA
BRANCH  20  21
ATOM     21  C   UNL     1     -38.041  25.432   3.345  0.00  0.00    +0.237 C 
BRANCH  21  22
ATOM     22  C   UNL     1     -36.812  25.068   4.125  0.00  0.00    +0.021 C 
ATOM     23  C   UNL     1     -36.185  26.024   4.926  0.00  0.00    -0.001 C 
ATOM     24  C   UNL     1     -36.296  23.774   4.050  0.00  0.00    -0.001 C 
ATOM     25  C   UNL     1     -35.043  25.683   5.651  0.00  0.00    -0.000 C 
ATOM     26  C   UNL     1     -35.155  23.435   4.776  0.00  0.00    -0.000 C 
ATOM     27  C   UNL     1     -34.528  24.390   5.577  0.00  0.00    -0.000 C 
ENDBRANCH  21  22
ENDBRANCH  20  21
ENDBRANCH  18  20
ENDBRANCH   1  17
TORSDOF 8
ENDMDL
MODEL 4
REMARK VINA RESULT:      -6.7      7.460     11.181
REMARK  Name = 20284004
REMARK  8 active torsions:
REMARK  status: ('A' for Active; 'I' for Inactive)
REMARK    1  A    between atoms: S_1  and  N_5
REMARK    2  A    between atoms: S_1  and  N_17
REMARK    3  A    between atoms: C_6  and  O_8
REMARK    4  A    between atoms: O_8  and  C_9
REMARK    5  A    between atoms: C_9  and  C_10
REMARK    6  A    between atoms: C_18  and  O_20
REMARK    7  A    between atoms: O_20  and  C_21
REMARK    8  A    between atoms: C_21  and  C_22
REMARK                            x       y       z     vdW  Elec       q    Type
REMARK                         _______ _______ _______ _____ _____    ______ ____
ROOT
ATOM      1  S   UNL     1     -41.160  26.193   1.962  0.00  0.00    +0.133 S 
ATOM      2  O   UNL     1     -41.451  25.042   1.128  0.00  0.00    -0.135 OA
ATOM      3  O   UNL     1     -40.677  27.424   1.361  0.00  0.00    -0.135 OA
ENDROOT
BRANCH   1   5
ATOM      4  O   UNL     1     -41.575  28.115   4.396  0.00  0.00    -0.225 OA
ATOM      5  N   UNL     1     -42.532  26.580   2.909  0.00  0.00    -0.138 N 
ATOM      6  C   UNL     1     -42.557  27.494   4.006  0.00  0.00    +0.422 C 
ATOM      7  H   UNL     1     -43.378  26.133   2.678  0.00  0.00    +0.181 HD
BRANCH   6   8
ATOM      8  O   UNL     1     -43.804  27.588   4.555  0.00  0.00    -0.429 OA
BRANCH   8   9
ATOM      9  C   UNL     1     -44.368  28.904   4.599  0.00  0.00    +0.237 C 
BRANCH   9  10
ATOM     10  C   UNL     1     -44.548  29.311   6.031  0.00  0.00    +0.021 C 
ATOM     11  C   UNL     1     -45.568  28.742   6.796  0.00  0.00    -0.001 C 
ATOM     12  C   UNL     1     -43.697  30.259   6.599  0.00  0.00    -0.001 C 
ATOM     13  C   UNL     1     -45.735  29.121   8.128  0.00  0.00    -0.000 C 
ATOM     14  C   UNL     1     -43.864  30.638   7.931  0.00  0.00    -0.000 C 
ATOM     15  C   UNL     1     -44.883  30.069   8.696  0.00  0.00    -0.000 C 
ENDBRANCH   9  10
ENDBRANCH   8   9
ENDBRANCH   6   8
ENDBRANCH   1   5
BRANCH   1  17
ATOM     16  O   UNL     1     -38.215  25.141   1.894  0.00  0.00    -0.225 OA
ATOM     17  N   UNL     1     -40.062  25.749   3.198  0.00  0.00    -0.138 N 
ATOM     18  C   UNL     1     -38.728  25.279   2.997  0.00  0.00    +0.422 C 
ATOM     19  H   UNL     1     -40.378  25.824   4.127  0.00  0.00    +0.181 HD
BRANCH  18  20
ATOM     20  O   UNL     1     -38.109  25.005   4.183  0.00  0.00    -0.429 OA
BRANCH  20  21
ATOM     21  C   UNL     1     -36.680  25.103   4.177  0.00  0.00    +0.237 C 
BRANCH  21  22
ATOM     22  C   UNL     1     -36.096  23.775   4.558  0.00  0.00    +0.021 C 
ATOM     23  C   UNL     1     -35.615  23.570   5.852  0.00  0.00    -0.001 C 
ATOM     24  C   UNL     1     -36.034  22.745   3.619  0.00  0.00    -0.001 C 
ATOM     25  C   UNL     1     -35.072  22.333   6.205  0.00  0.00    -0.000 C 
ATOM     26  C   UNL     1     -35.492  21.510   3.973  0.00  0.00    -0.000 C 
ATOM     27  C   UNL     1     -35.011  21.304   5.267  0.00  0.00    -0.000 C 
ENDBRANCH  21  22
ENDBRANCH  20  21
ENDBRANCH  18  20
ENDBRANCH   1  17
TORSDOF 8
ENDMDL
MODEL 5
REMARK VINA RESULT:      -6.7      1.705      2.197
REMARK  Name = 20284004
REMARK  8 active torsions:
REMARK  status: ('A' for Active; 'I' for Inactive)
REMARK    1  A    between atoms: S_1  and  N_5
REMARK    2  A    between atoms: S_1  and  N_17
REMARK    3  A    between atoms: C_6  and  O_8
REMARK    4  A    between atoms: O_8  and  C_9
REMARK    5  A    between atoms: C_9  and  C_10
REMARK    6  A    between atoms: C_18  and  O_20
REMARK    7  A    between atoms: O_20  and  C_21
REMARK    8  A    between atoms: C_21  and  C_22
REMARK                            x       y       z     vdW  Elec       q    Type
REMARK                         _______ _______ _______ _____ _____    ______ ____
ROOT
ATOM      1  S   UNL     1     -37.830  25.179   3.199  0.00  0.00    +0.133 S 
ATOM      2  O   UNL     1     -37.928  26.051   2.043  0.00  0.00    -0.135 OA
ATOM      3  O   UNL     1     -39.031  24.763   3.901  0.00  0.00    -0.135 OA
ENDROOT
BRANCH   1   5
ATOM      4  O   UNL     1     -36.481  22.945   4.925  0.00  0.00    -0.225 OA
ATOM      5  N   UNL     1     -36.954  23.768   2.785  0.00  0.00    -0.138 N 
ATOM      6  C   UNL     1     -36.393  22.834   3.708  0.00  0.00    +0.422 C 
ATOM      7  H   UNL     1     -36.825  23.584   1.826  0.00  0.00    +0.181 HD
BRANCH   6   8
ATOM      8  O   UNL     1     -35.757  21.811   3.065  0.00  0.00    -0.429 OA
BRANCH   8   9
ATOM      9  C   UNL     1     -35.452  22.037   1.684  0.00  0.00    +0.237 C 
BRANCH   9  10
ATOM     10  C   UNL     1     -34.377  21.082   1.257  0.00  0.00    +0.021 C 
ATOM     11  C   UNL     1     -34.351  19.785   1.773  0.00  0.00    -0.001 C 
ATOM     12  C   UNL     1     -33.403  21.489   0.346  0.00  0.00    -0.001 C 
ATOM     13  C   UNL     1     -33.351  18.897   1.377  0.00  0.00    -0.000 C 
ATOM     14  C   UNL     1     -32.403  20.601  -0.051  0.00  0.00    -0.000 C 
ATOM     15  C   UNL     1     -32.377  19.304   0.465  0.00  0.00    -0.000 C 
ENDBRANCH   9  10
ENDBRANCH   8   9
ENDBRANCH   6   8
ENDBRANCH   1   5
BRANCH   1  17
ATOM     16  O   UNL     1     -34.850  26.115   3.023  0.00  0.00    -0.225 OA
ATOM     17  N   UNL     1     -36.763  25.863   4.349  0.00  0.00    -0.138 N 
ATOM     18  C   UNL     1     -35.407  26.242   4.106  0.00  0.00    +0.422 C 
ATOM     19  H   UNL     1     -37.114  26.008   5.257  0.00  0.00    +0.181 HD
BRANCH  18  20
ATOM     20  O   UNL     1     -34.820  26.755   5.227  0.00  0.00    -0.429 OA
BRANCH  20  21
ATOM     21  C   UNL     1     -33.414  26.516   5.358  0.00  0.00    +0.237 C 
BRANCH  21  22
ATOM     22  C   UNL     1     -32.702  27.832   5.470  0.00  0.00    +0.021 C 
ATOM     23  C   UNL     1     -32.564  28.648   4.347  0.00  0.00    -0.001 C 
ATOM     24  C   UNL     1     -32.179  28.239   6.697  0.00  0.00    -0.001 C 
ATOM     25  C   UNL     1     -31.902  29.872   4.453  0.00  0.00    -0.000 C 
ATOM     26  C   UNL     1     -31.517  29.463   6.802  0.00  0.00    -0.000 C 
ATOM     27  C   UNL     1     -31.379  30.280   5.680  0.00  0.00    -0.000 C 
ENDBRANCH  21  22
ENDBRANCH  20  21
ENDBRANCH  18  20
ENDBRANCH   1  17
TORSDOF 8
ENDMDL
MODEL 6
REMARK VINA RESULT:      -6.7      5.171     10.598
REMARK  Name = 20284004
REMARK  8 active torsions:
REMARK  status: ('A' for Active; 'I' for Inactive)
REMARK    1  A    between atoms: S_1  and  N_5
REMARK    2  A    between atoms: S_1  and  N_17
REMARK    3  A    between atoms: C_6  and  O_8
REMARK    4  A    between atoms: O_8  and  C_9
REMARK    5  A    between atoms: C_9  and  C_10
REMARK    6  A    between atoms: C_18  and  O_20
REMARK    7  A    between atoms: O_20  and  C_21
REMARK    8  A    between atoms: C_21  and  C_22
REMARK                            x       y       z     vdW  Elec       q    Type
REMARK                         _______ _______ _______ _____ _____    ______ ____
ROOT
ATOM      1  S   UNL     1     -34.488  28.538   2.756  0.00  0.00    +0.133 S 
ATOM      2  O   UNL     1     -34.748  27.765   1.557  0.00  0.00    -0.135 OA
ATOM      3  O   UNL     1     -33.181  29.133   2.970  0.00  0.00    -0.135 OA
ENDROOT
BRANCH   1   5
ATOM      4  O   UNL     1     -35.247  30.959   0.924  0.00  0.00    -0.225 OA
ATOM      5  N   UNL     1     -35.657  29.780   2.906  0.00  0.00    -0.138 N 
ATOM      6  C   UNL     1     -35.882  30.831   1.965  0.00  0.00    +0.422 C 
ATOM      7  H   UNL     1     -36.223  29.770   3.711  0.00  0.00    +0.181 HD
BRANCH   6   8
ATOM      8  O   UNL     1     -36.887  31.662   2.370  0.00  0.00    -0.429 OA
BRANCH   8   9
ATOM      9  C   UNL     1     -37.768  32.124   1.339  0.00  0.00    +0.237 C 
BRANCH   9  10
ATOM     10  C   UNL     1     -37.805  33.623   1.363  0.00  0.00    +0.021 C 
ATOM     11  C   UNL     1     -36.875  34.356   0.625  0.00  0.00    -0.001 C 
ATOM     12  C   UNL     1     -38.770  34.284   2.123  0.00  0.00    -0.001 C 
ATOM     13  C   UNL     1     -36.911  35.751   0.647  0.00  0.00    -0.000 C 
ATOM     14  C   UNL     1     -38.805  35.679   2.145  0.00  0.00    -0.000 C 
ATOM     15  C   UNL     1     -37.875  36.412   1.407  0.00  0.00    -0.000 C 
ENDBRANCH   9  10
ENDBRANCH   8   9
ENDBRANCH   6   8
ENDBRANCH   1   5
BRANCH   1  17
ATOM     16  O   UNL     1     -33.036  26.148   4.159  0.00  0.00    -0.225 OA
ATOM     17  N   UNL     1     -34.870  27.605   4.140  0.00  0.00    -0.138 N 
ATOM     18  C   UNL     1     -34.088  26.527   4.659  0.00  0.00    +0.422 C 
ATOM     19  H   UNL     1     -35.699  27.830   4.619  0.00  0.00    +0.181 HD
BRANCH  18  20
ATOM     20  O   UNL     1     -34.662  25.981   5.771  0.00  0.00    -0.429 OA
BRANCH  20  21
ATOM     21  C   UNL     1     -35.927  25.342   5.568  0.00  0.00    +0.237 C 
BRANCH  21  22
ATOM     22  C   UNL     1     -35.697  23.908   5.195  0.00  0.00    +0.021 C 
ATOM     23  C   UNL     1     -35.313  22.985   6.169  0.00  0.00    -0.001 C 
ATOM     24  C   UNL     1     -35.867  23.495   3.873  0.00  0.00    -0.001 C 
ATOM     25  C   UNL     1     -35.100  21.651   5.821  0.00  0.00    -0.000 C 
ATOM     26  C   UNL     1     -35.653  22.161   3.525  0.00  0.00    -0.000 C 
ATOM     27  C   UNL     1     -35.270  21.239   4.500  0.00  0.00    -0.000 C 
ENDBRANCH  21  22
ENDBRANCH  20  21
ENDBRANCH  18  20
ENDBRANCH   1  17
TORSDOF 8
ENDMDL
MODEL 7
REMARK VINA RESULT:      -6.6      2.910      8.207
REMARK  Name = 20284004
REMARK  8 active torsions:
REMARK  status: ('A' for Active; 'I' for Inactive)
REMARK    1  A    between atoms: S_1  and  N_5
REMARK    2  A    between atoms: S_1  and  N_17
REMARK    3  A    between atoms: C_6  and  O_8
REMARK    4  A    between atoms: O_8  and  C_9
REMARK    5  A    between atoms: C_9  and  C_10
REMARK    6  A    between atoms: C_18  and  O_20
REMARK    7  A    between atoms: O_20  and  C_21
REMARK    8  A    between atoms: C_21  and  C_22
REMARK                            x       y       z     vdW  Elec       q    Type
REMARK                         _______ _______ _______ _____ _____    ______ ____
ROOT
ATOM      1  S   UNL     1     -39.343  21.450   1.174  0.00  0.00    +0.133 S 
ATOM      2  O   UNL     1     -40.288  21.218   2.250  0.00  0.00    -0.135 OA
ATOM      3  O   UNL     1     -39.775  21.353  -0.208  0.00  0.00    -0.135 OA
ENDROOT
BRANCH   1   5
ATOM      4  O   UNL     1     -37.435  22.591   3.376  0.00  0.00    -0.225 OA
ATOM      5  N   UNL     1     -38.598  22.977   1.381  0.00  0.00    -0.138 N 
ATOM      6  C   UNL     1     -37.738  23.346   2.460  0.00  0.00    +0.422 C 
ATOM      7  H   UNL     1     -38.777  23.661   0.695  0.00  0.00    +0.181 HD
BRANCH   6   8
ATOM      8  O   UNL     1     -37.300  24.634   2.337  0.00  0.00    -0.429 OA
BRANCH   8   9
ATOM      9  C   UNL     1     -37.527  25.480   3.470  0.00  0.00    +0.237 C 
BRANCH   9  10
ATOM     10  C   UNL     1     -36.206  25.841   4.083  0.00  0.00    +0.021 C 
ATOM     11  C   UNL     1     -35.263  26.552   3.340  0.00  0.00    -0.001 C 
ATOM     12  C   UNL     1     -35.920  25.465   5.396  0.00  0.00    -0.001 C 
ATOM     13  C   UNL     1     -34.035  26.887   3.910  0.00  0.00    -0.000 C 
ATOM     14  C   UNL     1     -34.692  25.800   5.966  0.00  0.00    -0.000 C 
ATOM     15  C   UNL     1     -33.749  26.511   5.223  0.00  0.00    -0.000 C 
ENDBRANCH   9  10
ENDBRANCH   8   9
ENDBRANCH   6   8
ENDBRANCH   1   5
BRANCH   1  17
ATOM     16  O   UNL     1     -36.660  21.178  -0.411  0.00  0.00    -0.225 OA
ATOM     17  N   UNL     1     -37.984  20.428   1.369  0.00  0.00    -0.138 N 
ATOM     18  C   UNL     1     -36.817  20.429   0.545  0.00  0.00    +0.422 C 
ATOM     19  H   UNL     1     -38.009  19.784   2.113  0.00  0.00    +0.181 HD
BRANCH  18  20
ATOM     20  O   UNL     1     -35.911  19.493   0.957  0.00  0.00    -0.429 OA
BRANCH  20  21
ATOM     21  C   UNL     1     -34.873  19.969   1.820  0.00  0.00    +0.237 C 
BRANCH  21  22
ATOM     22  C   UNL     1     -33.541  19.633   1.217  0.00  0.00    +0.021 C 
ATOM     23  C   UNL     1     -32.907  20.546   0.374  0.00  0.00    -0.001 C 
ATOM     24  C   UNL     1     -32.936  18.408   1.500  0.00  0.00    -0.001 C 
ATOM     25  C   UNL     1     -31.667  20.233  -0.185  0.00  0.00    -0.000 C 
ATOM     26  C   UNL     1     -31.697  18.096   0.940  0.00  0.00    -0.000 C 
ATOM     27  C   UNL     1     -31.063  19.009   0.097  0.00  0.00    -0.000 C 
ENDBRANCH  21  22
ENDBRANCH  20  21
ENDBRANCH  18  20
ENDBRANCH   1  17
TORSDOF 8
ENDMDL
MODEL 8
REMARK VINA RESULT:      -6.6      5.162      7.212
REMARK  Name = 20284004
REMARK  8 active torsions:
REMARK  status: ('A' for Active; 'I' for Inactive)
REMARK    1  A    between atoms: S_1  and  N_5
REMARK    2  A    between atoms: S_1  and  N_17
REMARK    3  A    between atoms: C_6  and  O_8
REMARK    4  A    between atoms: O_8  and  C_9
REMARK    5  A    between atoms: C_9  and  C_10
REMARK    6  A    between atoms: C_18  and  O_20
REMARK    7  A    between atoms: O_20  and  C_21
REMARK    8  A    between atoms: C_21  and  C_22
REMARK                            x       y       z     vdW  Elec       q    Type
REMARK                         _______ _______ _______ _____ _____    ______ ____
ROOT
ATOM      1  S   UNL     1     -34.302  28.658   2.818  0.00  0.00    +0.133 S 
ATOM      2  O   UNL     1     -33.024  29.298   3.064  0.00  0.00    -0.135 OA
ATOM      3  O   UNL     1     -34.512  27.894   1.601  0.00  0.00    -0.135 OA
ENDROOT
BRANCH   1   5
ATOM      4  O   UNL     1     -32.954  26.107   4.027  0.00  0.00    -0.225 OA
ATOM      5  N   UNL     1     -34.709  27.652   4.141  0.00  0.00    -0.138 N 
ATOM      6  C   UNL     1     -33.976  26.504   4.572  0.00  0.00    +0.422 C 
ATOM      7  H   UNL     1     -35.518  27.885   4.651  0.00  0.00    +0.181 HD
BRANCH   6   8
ATOM      8  O   UNL     1     -34.556  25.917   5.660  0.00  0.00    -0.429 OA
BRANCH   8   9
ATOM      9  C   UNL     1     -35.835  25.313   5.435  0.00  0.00    +0.237 C 
BRANCH   9  10
ATOM     10  C   UNL     1     -35.640  23.862   5.106  0.00  0.00    +0.021 C 
ATOM     11  C   UNL     1     -35.818  23.414   3.797  0.00  0.00    -0.001 C 
ATOM     12  C   UNL     1     -35.282  22.962   6.109  0.00  0.00    -0.001 C 
ATOM     13  C   UNL     1     -35.637  22.065   3.491  0.00  0.00    -0.000 C 
ATOM     14  C   UNL     1     -35.101  21.613   5.803  0.00  0.00    -0.000 C 
ATOM     15  C   UNL     1     -35.278  21.164   4.494  0.00  0.00    -0.000 C 
ENDBRANCH   9  10
ENDBRANCH   8   9
ENDBRANCH   6   8
ENDBRANCH   1   5
BRANCH   1  17
ATOM     16  O   UNL     1     -35.122  31.068   0.999  0.00  0.00    -0.225 OA
ATOM     17  N   UNL     1     -35.558  29.816   2.929  0.00  0.00    -0.138 N 
ATOM     18  C   UNL     1     -35.802  30.873   1.999  0.00  0.00    +0.422 C 
ATOM     19  H   UNL     1     -36.165  29.748   3.701  0.00  0.00    +0.181 HD
BRANCH  18  20
ATOM     20  O   UNL     1     -36.877  31.630   2.369  0.00  0.00    -0.429 OA
BRANCH  20  21
ATOM     21  C   UNL     1     -37.705  32.099   1.299  0.00  0.00    +0.237 C 
BRANCH  21  22
ATOM     22  C   UNL     1     -37.781  33.596   1.359  0.00  0.00    +0.021 C 
ATOM     23  C   UNL     1     -38.843  34.216   2.019  0.00  0.00    -0.001 C 
ATOM     24  C   UNL     1     -36.789  34.370   0.756  0.00  0.00    -0.001 C 
ATOM     25  C   UNL     1     -38.911  35.609   2.075  0.00  0.00    -0.000 C 
ATOM     26  C   UNL     1     -36.858  35.762   0.812  0.00  0.00    -0.000 C 
ATOM     27  C   UNL     1     -37.920  36.381   1.472  0.00  0.00    -0.000 C 
ENDBRANCH  21  22
ENDBRANCH  20  21
ENDBRANCH  18  20
ENDBRANCH   1  17
TORSDOF 8
ENDMDL
MODEL 9
REMARK VINA RESULT:      -6.6      5.848     10.875
REMARK  Name = 20284004
REMARK  8 active torsions:
REMARK  status: ('A' for Active; 'I' for Inactive)
REMARK    1  A    between atoms: S_1  and  N_5
REMARK    2  A    between atoms: S_1  and  N_17
REMARK    3  A    between atoms: C_6  and  O_8
REMARK    4  A    between atoms: O_8  and  C_9
REMARK    5  A    between atoms: C_9  and  C_10
REMARK    6  A    between atoms: C_18  and  O_20
REMARK    7  A    between atoms: O_20  and  C_21
REMARK    8  A    between atoms: C_21  and  C_22
REMARK                            x       y       z     vdW  Elec       q    Type
REMARK                         _______ _______ _______ _____ _____    ______ ____
ROOT
ATOM      1  S   UNL     1     -34.152  29.795   2.957  0.00  0.00    +0.133 S 
ATOM      2  O   UNL     1     -33.471  29.549   1.699  0.00  0.00    -0.135 OA
ATOM      3  O   UNL     1     -33.385  30.066   4.159  0.00  0.00    -0.135 OA
ENDROOT
BRANCH   1   5
ATOM      4  O   UNL     1     -36.748  30.070   1.231  0.00  0.00    -0.225 OA
ATOM      5  N   UNL     1     -35.282  31.066   2.761  0.00  0.00    -0.138 N 
ATOM      6  C   UNL     1     -36.435  31.034   1.920  0.00  0.00    +0.422 C 
ATOM      7  H   UNL     1     -35.122  31.891   3.274  0.00  0.00    +0.181 HD
BRANCH   6   8
ATOM      8  O   UNL     1     -37.138  32.203   1.986  0.00  0.00    -0.429 OA
BRANCH   8   9
ATOM      9  C   UNL     1     -38.318  32.268   1.176  0.00  0.00    +0.237 C 
BRANCH   9  10
ATOM     10  C   UNL     1     -39.075  33.518   1.513  0.00  0.00    +0.021 C 
ATOM     11  C   UNL     1     -40.353  33.722   0.990  0.00  0.00    -0.001 C 
ATOM     12  C   UNL     1     -38.502  34.477   2.348  0.00  0.00    -0.001 C 
ATOM     13  C   UNL     1     -41.057  34.885   1.303  0.00  0.00    -0.000 C 
ATOM     14  C   UNL     1     -39.206  35.640   2.661  0.00  0.00    -0.000 C 
ATOM     15  C   UNL     1     -40.484  35.844   2.138  0.00  0.00    -0.000 C 
ENDBRANCH   9  10
ENDBRANCH   8   9
ENDBRANCH   6   8
ENDBRANCH   1   5
BRANCH   1  17
ATOM     16  O   UNL     1     -33.665  26.818   3.786  0.00  0.00    -0.225 OA
ATOM     17  N   UNL     1     -35.218  28.501   3.299  0.00  0.00    -0.138 N 
ATOM     18  C   UNL     1     -34.830  27.177   3.670  0.00  0.00    +0.422 C 
ATOM     19  H   UNL     1     -36.183  28.684   3.234  0.00  0.00    +0.181 HD
BRANCH  18  20
ATOM     20  O   UNL     1     -35.915  26.373   3.873  0.00  0.00    -0.429 OA
BRANCH  20  21
ATOM     21  C   UNL     1     -35.979  25.724   5.147  0.00  0.00    +0.237 C 
BRANCH  21  22
ATOM     22  C   UNL     1     -35.734  24.256   4.963  0.00  0.00    +0.021 C 
ATOM     23  C   UNL     1     -35.881  23.677   3.701  0.00  0.00    -0.001 C 
ATOM     24  C   UNL     1     -35.359  23.469   6.052  0.00  0.00    -0.001 C 
ATOM     25  C   UNL     1     -35.652  22.311   3.531  0.00  0.00    -0.000 C 
ATOM     26  C   UNL     1     -35.130  22.103   5.880  0.00  0.00    -0.000 C 
ATOM     27  C   UNL     1     -35.277  21.525   4.619  0.00  0.00    -0.000 C 
ENDBRANCH  21  22
ENDBRANCH  20  21
ENDBRANCH  18  20
ENDBRANCH   1  17
TORSDOF 8
ENDMDL
