MODEL 1
REMARK VINA RESULT:      -6.9      0.000      0.000
REMARK  Name = 5318624
REMARK  7 active torsions:
REMARK  status: ('A' for Active; 'I' for Inactive)
REMARK    1  A    between atoms: C_3  and  C_26
REMARK    2  A    between atoms: C_6  and  O_20
REMARK    3  A    between atoms: C_7  and  O_22
REMARK    4  A    between atoms: C_8  and  C_12
REMARK    5  A    between atoms: C_11  and  O_24
REMARK    6  A    between atoms: C_17  and  O_18
REMARK    7  A    between atoms: C_26  and  C_27
REMARK                            x       y       z     vdW  Elec       q    Type
REMARK                         _______ _______ _______ _____ _____    ______ ____
ROOT
ATOM      1  O   UNL     1     -36.048  23.280   3.075  0.00  0.00    -0.450 OA
ATOM      2  O   UNL     1     -39.827  24.634   2.372  0.00  0.00    -0.283 OA
ATOM      3  C   UNL     1     -36.532  21.198   2.073  0.00  0.00    +0.051 C 
ATOM      4  C   UNL     1     -36.961  22.471   2.448  0.00  0.00    +0.151 A 
ATOM      5  C   UNL     1     -38.267  22.875   2.181  0.00  0.00    +0.110 A 
ATOM      6  C   UNL     1     -37.415  20.331   1.430  0.00  0.00    +0.136 C 
ATOM      7  C   UNL     1     -39.155  22.007   1.537  0.00  0.00    +0.143 C 
ATOM      8  C   UNL     1     -36.447  24.546   3.470  0.00  0.00    +0.182 A 
ATOM      9  C   UNL     1     -38.693  24.223   2.585  0.00  0.00    +0.238 A 
ATOM     10  C   UNL     1     -38.725  20.735   1.163  0.00  0.00    +0.073 C 
ATOM     11  C   UNL     1     -37.674  25.059   3.264  0.00  0.00    +0.208 A 
ENDROOT
BRANCH   8  12
ATOM     12  C   UNL     1     -35.372  25.308   4.129  0.00  0.00    +0.038 C 
ATOM     13  C   UNL     1     -34.473  26.052   3.364  0.00  0.00    +0.006 C 
ATOM     14  C   UNL     1     -35.249  25.285   5.519  0.00  0.00    +0.006 C 
ATOM     15  C   UNL     1     -33.454  26.772   3.987  0.00  0.00    +0.037 C 
ATOM     16  C   UNL     1     -34.230  26.005   6.142  0.00  0.00    +0.037 C 
ATOM     17  C   UNL     1     -33.332  26.749   5.376  0.00  0.00    +0.134 C 
BRANCH  17  18
ATOM     18  O   UNL     1     -32.338  27.451   5.984  0.00  0.00    -0.506 OA
ATOM     19  H   UNL     1     -32.523  28.283   6.373  0.00  0.00    +0.292 HD
ENDBRANCH  17  18
ENDBRANCH   8  12
BRANCH   6  20
ATOM     20  O   UNL     1     -37.017  19.082   1.055  0.00  0.00    -0.506 OA
ATOM     21  H   UNL     1     -36.104  18.881   0.990  0.00  0.00    +0.292 HD
ENDBRANCH   6  20
BRANCH   7  22
ATOM     22  O   UNL     1     -40.442  22.353   1.253  0.00  0.00    -0.505 OA
ATOM     23  H   UNL     1     -40.709  22.475   0.363  0.00  0.00    +0.292 HD
ENDBRANCH   7  22
BRANCH  11  24
ATOM     24  O   UNL     1     -38.029  26.336   3.640  0.00  0.00    -0.501 OA
ATOM     25  H   UNL     1     -37.819  27.063   3.087  0.00  0.00    +0.292 HD
ENDBRANCH  11  24
BRANCH   3  26
ATOM     26  C   UNL     1     -35.132  20.757   2.354  0.00  0.00    +0.058 C 
BRANCH  26  27
ATOM     27  C   UNL     1     -34.221  20.910   1.162  0.00  0.00    -0.030 C 
ATOM     28  C   UNL     1     -33.318  20.030   0.689  0.00  0.00    -0.048 C 
ATOM     29  C   UNL     1     -32.438  20.248  -0.510  0.00  0.00    +0.026 C 
ATOM     30  C   UNL     1     -33.115  18.704   1.372  0.00  0.00    +0.026 C 
ENDBRANCH  26  27
ENDBRANCH   3  26
TORSDOF 7
ENDMDL
MODEL 2
REMARK VINA RESULT:      -6.8      2.418      6.408
REMARK  Name = 5318624
REMARK  7 active torsions:
REMARK  status: ('A' for Active; 'I' for Inactive)
REMARK    1  A    between atoms: C_3  and  C_26
REMARK    2  A    between atoms: C_6  and  O_20
REMARK    3  A    between atoms: C_7  and  O_22
REMARK    4  A    between atoms: C_8  and  C_12
REMARK    5  A    between atoms: C_11  and  O_24
REMARK    6  A    between atoms: C_17  and  O_18
REMARK    7  A    between atoms: C_26  and  C_27
REMARK                            x       y       z     vdW  Elec       q    Type
REMARK                         _______ _______ _______ _____ _____    ______ ____
ROOT
ATOM      1  O   UNL     1     -35.471  20.803   1.278  0.00  0.00    -0.450 OA
ATOM      2  O   UNL     1     -38.332  18.796  -0.818  0.00  0.00    -0.283 OA
ATOM      3  C   UNL     1     -37.071  22.286   2.179  0.00  0.00    +0.051 C 
ATOM      4  C   UNL     1     -36.782  21.196   1.359  0.00  0.00    +0.151 A 
ATOM      5  C   UNL     1     -37.806  20.552   0.666  0.00  0.00    +0.110 A 
ATOM      6  C   UNL     1     -38.388  22.731   2.302  0.00  0.00    +0.136 C 
ATOM      7  C   UNL     1     -39.126  20.996   0.787  0.00  0.00    +0.143 C 
ATOM      8  C   UNL     1     -35.150  19.729   0.463  0.00  0.00    +0.182 A 
ATOM      9  C   UNL     1     -37.474  19.403  -0.190  0.00  0.00    +0.238 A 
ATOM     10  C   UNL     1     -39.413  22.087   1.607  0.00  0.00    +0.073 C 
ATOM     11  C   UNL     1     -36.043  19.018  -0.249  0.00  0.00    +0.208 A 
ENDROOT
BRANCH   8  12
ATOM     12  C   UNL     1     -33.711  19.413   0.469  0.00  0.00    +0.038 C 
ATOM     13  C   UNL     1     -33.236  18.337   1.219  0.00  0.00    +0.006 C 
ATOM     14  C   UNL     1     -32.822  20.190  -0.273  0.00  0.00    +0.006 C 
ATOM     15  C   UNL     1     -31.873  18.038   1.227  0.00  0.00    +0.037 C 
ATOM     16  C   UNL     1     -31.459  19.891  -0.266  0.00  0.00    +0.037 C 
ATOM     17  C   UNL     1     -30.985  18.815   0.484  0.00  0.00    +0.134 C 
BRANCH  17  18
ATOM     18  O   UNL     1     -29.656  18.524   0.490  0.00  0.00    -0.506 OA
ATOM     19  H   UNL     1     -29.371  17.635   0.414  0.00  0.00    +0.292 HD
ENDBRANCH  17  18
ENDBRANCH   8  12
BRANCH   6  20
ATOM     20  O   UNL     1     -38.691  23.796   3.097  0.00  0.00    -0.506 OA
ATOM     21  H   UNL     1     -38.867  24.633   2.714  0.00  0.00    +0.292 HD
ENDBRANCH   6  20
BRANCH   7  22
ATOM     22  O   UNL     1     -40.163  20.403   0.132  0.00  0.00    -0.505 OA
ATOM     23  H   UNL     1     -40.037  19.581  -0.299  0.00  0.00    +0.292 HD
ENDBRANCH   7  22
BRANCH  11  24
ATOM     24  O   UNL     1     -35.696  17.934  -1.025  0.00  0.00    -0.501 OA
ATOM     25  H   UNL     1     -35.598  17.090  -0.632  0.00  0.00    +0.292 HD
ENDBRANCH  11  24
BRANCH   3  26
ATOM     26  C   UNL     1     -35.980  22.982   2.927  0.00  0.00    +0.058 C 
BRANCH  26  27
ATOM     27  C   UNL     1     -35.651  22.312   4.237  0.00  0.00    -0.030 C 
ATOM     28  C   UNL     1     -35.455  22.888   5.438  0.00  0.00    -0.048 C 
ATOM     29  C   UNL     1     -35.128  22.156   6.710  0.00  0.00    +0.026 C 
ATOM     30  C   UNL     1     -35.547  24.383   5.590  0.00  0.00    +0.026 C 
ENDBRANCH  26  27
ENDBRANCH   3  26
TORSDOF 7
ENDMDL
MODEL 3
REMARK VINA RESULT:      -6.7      1.911      3.105
REMARK  Name = 5318624
REMARK  7 active torsions:
REMARK  status: ('A' for Active; 'I' for Inactive)
REMARK    1  A    between atoms: C_3  and  C_26
REMARK    2  A    between atoms: C_6  and  O_20
REMARK    3  A    between atoms: C_7  and  O_22
REMARK    4  A    between atoms: C_8  and  C_12
REMARK    5  A    between atoms: C_11  and  O_24
REMARK    6  A    between atoms: C_17  and  O_18
REMARK    7  A    between atoms: C_26  and  C_27
REMARK                            x       y       z     vdW  Elec       q    Type
REMARK                         _______ _______ _______ _____ _____    ______ ____
ROOT
ATOM      1  O   UNL     1     -35.277  21.092   2.118  0.00  0.00    -0.450 OA
ATOM      2  O   UNL     1     -39.181  20.987   0.953  0.00  0.00    -0.283 OA
ATOM      3  C   UNL     1     -34.775  19.164   0.854  0.00  0.00    +0.051 C 
ATOM      4  C   UNL     1     -35.716  20.102   1.277  0.00  0.00    +0.151 A 
ATOM      5  C   UNL     1     -37.037  20.011   0.844  0.00  0.00    +0.110 A 
ATOM      6  C   UNL     1     -35.162  18.133  -0.004  0.00  0.00    +0.136 C 
ATOM      7  C   UNL     1     -37.428  18.979  -0.014  0.00  0.00    +0.143 C 
ATOM      8  C   UNL     1     -36.191  22.033   2.565  0.00  0.00    +0.182 A 
ATOM      9  C   UNL     1     -38.009  21.014   1.304  0.00  0.00    +0.238 A 
ATOM     10  C   UNL     1     -36.486  18.041  -0.437  0.00  0.00    +0.073 C 
ATOM     11  C   UNL     1     -37.490  22.063   2.216  0.00  0.00    +0.208 A 
ENDROOT
BRANCH   8  12
ATOM     12  C   UNL     1     -35.588  23.039   3.459  0.00  0.00    +0.038 C 
ATOM     13  C   UNL     1     -35.638  22.862   4.842  0.00  0.00    +0.006 C 
ATOM     14  C   UNL     1     -34.969  24.168   2.923  0.00  0.00    +0.006 C 
ATOM     15  C   UNL     1     -35.069  23.814   5.688  0.00  0.00    +0.037 C 
ATOM     16  C   UNL     1     -34.400  25.120   3.769  0.00  0.00    +0.037 C 
ATOM     17  C   UNL     1     -34.450  24.943   5.152  0.00  0.00    +0.134 C 
BRANCH  17  18
ATOM     18  O   UNL     1     -33.896  25.871   5.977  0.00  0.00    -0.506 OA
ATOM     19  H   UNL     1     -34.011  25.803   6.905  0.00  0.00    +0.292 HD
ENDBRANCH  17  18
ENDBRANCH   8  12
BRANCH   6  20
ATOM     20  O   UNL     1     -34.259  17.205  -0.429  0.00  0.00    -0.506 OA
ATOM     21  H   UNL     1     -33.474  17.055   0.061  0.00  0.00    +0.292 HD
ENDBRANCH   6  20
BRANCH   7  22
ATOM     22  O   UNL     1     -38.706  18.844  -0.466  0.00  0.00    -0.505 OA
ATOM     23  H   UNL     1     -39.406  18.704   0.140  0.00  0.00    +0.292 HD
ENDBRANCH   7  22
BRANCH  11  24
ATOM     24  O   UNL     1     -38.365  23.033   2.652  0.00  0.00    -0.501 OA
ATOM     25  H   UNL     1     -39.033  23.354   2.079  0.00  0.00    +0.292 HD
ENDBRANCH  11  24
BRANCH   3  26
ATOM     26  C   UNL     1     -33.355  19.254   1.311  0.00  0.00    +0.058 C 
BRANCH  26  27
ATOM     27  C   UNL     1     -32.501  20.101   0.401  0.00  0.00    -0.030 C 
ATOM     28  C   UNL     1     -31.251  19.854  -0.032  0.00  0.00    -0.048 C 
ATOM     29  C   UNL     1     -30.454  20.745  -0.942  0.00  0.00    +0.026 C 
ATOM     30  C   UNL     1     -30.529  18.604   0.399  0.00  0.00    +0.026 C 
ENDBRANCH  26  27
ENDBRANCH   3  26
TORSDOF 7
ENDMDL
MODEL 4
REMARK VINA RESULT:      -6.6      2.985      6.882
REMARK  Name = 5318624
REMARK  7 active torsions:
REMARK  status: ('A' for Active; 'I' for Inactive)
REMARK    1  A    between atoms: C_3  and  C_26
REMARK    2  A    between atoms: C_6  and  O_20
REMARK    3  A    between atoms: C_7  and  O_22
REMARK    4  A    between atoms: C_8  and  C_12
REMARK    5  A    between atoms: C_11  and  O_24
REMARK    6  A    between atoms: C_17  and  O_18
REMARK    7  A    between atoms: C_26  and  C_27
REMARK                            x       y       z     vdW  Elec       q    Type
REMARK                         _______ _______ _______ _____ _____    ______ ____
ROOT
ATOM      1  O   UNL     1     -34.735  26.189   3.233  0.00  0.00    -0.450 OA
ATOM      2  O   UNL     1     -38.181  27.464   1.471  0.00  0.00    -0.283 OA
ATOM      3  C   UNL     1     -33.609  28.172   2.627  0.00  0.00    +0.051 C 
ATOM      4  C   UNL     1     -34.778  27.412   2.614  0.00  0.00    +0.151 A 
ATOM      5  C   UNL     1     -35.924  27.903   1.993  0.00  0.00    +0.110 A 
ATOM      6  C   UNL     1     -33.591  29.426   2.015  0.00  0.00    +0.136 C 
ATOM      7  C   UNL     1     -35.909  29.159   1.378  0.00  0.00    +0.143 C 
ATOM      8  C   UNL     1     -35.878  25.404   3.227  0.00  0.00    +0.182 A 
ATOM      9  C   UNL     1     -37.144  27.082   1.996  0.00  0.00    +0.238 A 
ATOM     10  C   UNL     1     -34.739  29.918   1.392  0.00  0.00    +0.073 C 
ATOM     11  C   UNL     1     -37.049  25.765   2.672  0.00  0.00    +0.208 A 
ENDROOT
BRANCH   8  12
ATOM     12  C   UNL     1     -35.696  24.119   3.925  0.00  0.00    +0.038 C 
ATOM     13  C   UNL     1     -35.571  24.091   5.315  0.00  0.00    +0.006 C 
ATOM     14  C   UNL     1     -35.645  22.930   3.198  0.00  0.00    +0.006 C 
ATOM     15  C   UNL     1     -35.398  22.875   5.976  0.00  0.00    +0.037 C 
ATOM     16  C   UNL     1     -35.471  21.714   3.859  0.00  0.00    +0.037 C 
ATOM     17  C   UNL     1     -35.348  21.686   5.248  0.00  0.00    +0.134 C 
BRANCH  17  18
ATOM     18  O   UNL     1     -35.178  20.501   5.892  0.00  0.00    -0.506 OA
ATOM     19  H   UNL     1     -34.755  19.787   5.456  0.00  0.00    +0.292 HD
ENDBRANCH  17  18
ENDBRANCH   8  12
BRANCH   6  20
ATOM     20  O   UNL     1     -32.459  30.185   2.016  0.00  0.00    -0.506 OA
ATOM     21  H   UNL     1     -32.192  30.629   2.797  0.00  0.00    +0.292 HD
ENDBRANCH   6  20
BRANCH   7  22
ATOM     22  O   UNL     1     -37.001  29.685   0.758  0.00  0.00    -0.505 OA
ATOM     23  H   UNL     1     -37.098  29.606  -0.170  0.00  0.00    +0.292 HD
ENDBRANCH   7  22
BRANCH  11  24
ATOM     24  O   UNL     1     -38.177  24.975   2.713  0.00  0.00    -0.501 OA
ATOM     25  H   UNL     1     -38.985  25.329   3.028  0.00  0.00    +0.292 HD
ENDBRANCH  11  24
BRANCH   3  26
ATOM     26  C   UNL     1     -32.374  27.654   3.292  0.00  0.00    +0.058 C 
BRANCH  26  27
ATOM     27  C   UNL     1     -31.968  28.474   4.491  0.00  0.00    -0.030 C 
ATOM     28  C   UNL     1     -32.210  28.221   5.791  0.00  0.00    -0.048 C 
ATOM     29  C   UNL     1     -31.774  29.086   6.940  0.00  0.00    +0.026 C 
ATOM     30  C   UNL     1     -32.980  26.993   6.197  0.00  0.00    +0.026 C 
ENDBRANCH  26  27
ENDBRANCH   3  26
TORSDOF 7
ENDMDL
MODEL 5
REMARK VINA RESULT:      -6.5      1.820      6.191
REMARK  Name = 5318624
REMARK  7 active torsions:
REMARK  status: ('A' for Active; 'I' for Inactive)
REMARK    1  A    between atoms: C_3  and  C_26
REMARK    2  A    between atoms: C_6  and  O_20
REMARK    3  A    between atoms: C_7  and  O_22
REMARK    4  A    between atoms: C_8  and  C_12
REMARK    5  A    between atoms: C_11  and  O_24
REMARK    6  A    between atoms: C_17  and  O_18
REMARK    7  A    between atoms: C_26  and  C_27
REMARK                            x       y       z     vdW  Elec       q    Type
REMARK                         _______ _______ _______ _____ _____    ______ ____
ROOT
ATOM      1  O   UNL     1     -35.197  21.678   2.065  0.00  0.00    -0.450 OA
ATOM      2  O   UNL     1     -38.599  20.582   0.108  0.00  0.00    -0.283 OA
ATOM      3  C   UNL     1     -36.349  23.340   3.282  0.00  0.00    +0.051 C 
ATOM      4  C   UNL     1     -36.378  22.322   2.330  0.00  0.00    +0.151 A 
ATOM      5  C   UNL     1     -37.574  21.995   1.694  0.00  0.00    +0.110 A 
ATOM      6  C   UNL     1     -37.520  24.030   3.596  0.00  0.00    +0.136 C 
ATOM      7  C   UNL     1     -38.749  22.685   2.004  0.00  0.00    +0.143 C 
ATOM      8  C   UNL     1     -35.191  20.669   1.115  0.00  0.00    +0.182 A 
ATOM      9  C   UNL     1     -37.578  20.916   0.694  0.00  0.00    +0.238 A 
ATOM     10  C   UNL     1     -38.718  23.703   2.958  0.00  0.00    +0.073 C 
ATOM     11  C   UNL     1     -36.276  20.252   0.438  0.00  0.00    +0.208 A 
ENDROOT
BRANCH   8  12
ATOM     12  C   UNL     1     -33.861  20.063   0.929  0.00  0.00    +0.038 C 
ATOM     13  C   UNL     1     -33.560  18.841   1.532  0.00  0.00    +0.006 C 
ATOM     14  C   UNL     1     -32.900  20.710   0.152  0.00  0.00    +0.006 C 
ATOM     15  C   UNL     1     -32.301  18.267   1.357  0.00  0.00    +0.037 C 
ATOM     16  C   UNL     1     -31.641  20.136  -0.023  0.00  0.00    +0.037 C 
ATOM     17  C   UNL     1     -31.341  18.915   0.580  0.00  0.00    +0.134 C 
BRANCH  17  18
ATOM     18  O   UNL     1     -30.113  18.355   0.410  0.00  0.00    -0.506 OA
ATOM     19  H   UNL     1     -30.038  17.449   0.185  0.00  0.00    +0.292 HD
ENDBRANCH  17  18
ENDBRANCH   8  12
BRANCH   6  20
ATOM     20  O   UNL     1     -37.513  25.029   4.523  0.00  0.00    -0.506 OA
ATOM     21  H   UNL     1     -37.064  25.831   4.345  0.00  0.00    +0.292 HD
ENDBRANCH   6  20
BRANCH   7  22
ATOM     22  O   UNL     1     -39.943  22.405   1.412  0.00  0.00    -0.505 OA
ATOM     23  H   UNL     1     -40.167  22.804   0.595  0.00  0.00    +0.292 HD
ENDBRANCH   7  22
BRANCH  11  24
ATOM     24  O   UNL     1     -36.243  19.223  -0.477  0.00  0.00    -0.501 OA
ATOM     25  H   UNL     1     -36.583  19.352  -1.341  0.00  0.00    +0.292 HD
ENDBRANCH  11  24
BRANCH   3  26
ATOM     26  C   UNL     1     -35.071  23.696   3.971  0.00  0.00    +0.058 C 
BRANCH  26  27
ATOM     27  C   UNL     1     -34.461  24.972   3.447  0.00  0.00    -0.030 C 
ATOM     28  C   UNL     1     -34.033  26.038   4.149  0.00  0.00    -0.048 C 
ATOM     29  C   UNL     1     -33.432  27.283   3.559  0.00  0.00    +0.026 C 
ATOM     30  C   UNL     1     -34.143  26.055   5.650  0.00  0.00    +0.026 C 
ENDBRANCH  26  27
ENDBRANCH   3  26
TORSDOF 7
ENDMDL
MODEL 6
REMARK VINA RESULT:      -6.4      3.124      6.784
REMARK  Name = 5318624
REMARK  7 active torsions:
REMARK  status: ('A' for Active; 'I' for Inactive)
REMARK    1  A    between atoms: C_3  and  C_26
REMARK    2  A    between atoms: C_6  and  O_20
REMARK    3  A    between atoms: C_7  and  O_22
REMARK    4  A    between atoms: C_8  and  C_12
REMARK    5  A    between atoms: C_11  and  O_24
REMARK    6  A    between atoms: C_17  and  O_18
REMARK    7  A    between atoms: C_26  and  C_27
REMARK                            x       y       z     vdW  Elec       q    Type
REMARK                         _______ _______ _______ _____ _____    ______ ____
ROOT
ATOM      1  O   UNL     1     -36.075  25.992   2.706  0.00  0.00    -0.450 OA
ATOM      2  O   UNL     1     -33.346  28.833   3.751  0.00  0.00    -0.283 OA
ATOM      3  C   UNL     1     -37.087  27.440   1.141  0.00  0.00    +0.051 C 
ATOM      4  C   UNL     1     -36.103  27.224   2.105  0.00  0.00    +0.151 A 
ATOM      5  C   UNL     1     -35.199  28.237   2.419  0.00  0.00    +0.110 A 
ATOM      6  C   UNL     1     -37.164  28.674   0.493  0.00  0.00    +0.136 C 
ATOM      7  C   UNL     1     -35.274  29.474   1.773  0.00  0.00    +0.143 C 
ATOM      8  C   UNL     1     -35.115  25.751   3.676  0.00  0.00    +0.182 A 
ATOM      9  C   UNL     1     -34.169  27.983   3.438  0.00  0.00    +0.238 A 
ATOM     10  C   UNL     1     -36.259  29.689   0.809  0.00  0.00    +0.073 C 
ATOM     11  C   UNL     1     -34.182  26.638   4.064  0.00  0.00    +0.208 A 
ENDROOT
BRANCH   8  12
ATOM     12  C   UNL     1     -35.197  24.391   4.239  0.00  0.00    +0.038 C 
ATOM     13  C   UNL     1     -35.248  23.286   3.389  0.00  0.00    +0.006 C 
ATOM     14  C   UNL     1     -35.225  24.207   5.621  0.00  0.00    +0.006 C 
ATOM     15  C   UNL     1     -35.327  21.998   3.920  0.00  0.00    +0.037 C 
ATOM     16  C   UNL     1     -35.303  22.920   6.153  0.00  0.00    +0.037 C 
ATOM     17  C   UNL     1     -35.355  21.816   5.303  0.00  0.00    +0.134 C 
BRANCH  17  18
ATOM     18  O   UNL     1     -35.431  20.561   5.821  0.00  0.00    -0.506 OA
ATOM     19  H   UNL     1     -34.674  20.009   5.826  0.00  0.00    +0.292 HD
ENDBRANCH  17  18
ENDBRANCH   8  12
BRANCH   6  20
ATOM     20  O   UNL     1     -38.119  28.906  -0.452  0.00  0.00    -0.506 OA
ATOM     21  H   UNL     1     -37.920  29.433  -1.200  0.00  0.00    +0.292 HD
ENDBRANCH   6  20
BRANCH   7  22
ATOM     22  O   UNL     1     -34.416  30.497   2.043  0.00  0.00    -0.505 OA
ATOM     23  H   UNL     1     -33.835  30.441   2.775  0.00  0.00    +0.292 HD
ENDBRANCH   7  22
BRANCH  11  24
ATOM     24  O   UNL     1     -33.220  26.355   5.009  0.00  0.00    -0.501 OA
ATOM     25  H   UNL     1     -32.731  27.050   5.403  0.00  0.00    +0.292 HD
ENDBRANCH  11  24
BRANCH   3  26
ATOM     26  C   UNL     1     -38.060  26.359   0.796  0.00  0.00    +0.058 C 
BRANCH  26  27
ATOM     27  C   UNL     1     -39.398  26.542   1.468  0.00  0.00    -0.030 C 
ATOM     28  C   UNL     1     -39.889  25.880   2.532  0.00  0.00    -0.048 C 
ATOM     29  C   UNL     1     -41.238  26.114   3.154  0.00  0.00    +0.026 C 
ATOM     30  C   UNL     1     -39.079  24.801   3.200  0.00  0.00    +0.026 C 
ENDBRANCH  26  27
ENDBRANCH   3  26
TORSDOF 7
ENDMDL
MODEL 7
REMARK VINA RESULT:      -6.2      1.673      6.014
REMARK  Name = 5318624
REMARK  7 active torsions:
REMARK  status: ('A' for Active; 'I' for Inactive)
REMARK    1  A    between atoms: C_3  and  C_26
REMARK    2  A    between atoms: C_6  and  O_20
REMARK    3  A    between atoms: C_7  and  O_22
REMARK    4  A    between atoms: C_8  and  C_12
REMARK    5  A    between atoms: C_11  and  O_24
REMARK    6  A    between atoms: C_17  and  O_18
REMARK    7  A    between atoms: C_26  and  C_27
REMARK                            x       y       z     vdW  Elec       q    Type
REMARK                         _______ _______ _______ _____ _____    ______ ____
ROOT
ATOM      1  O   UNL     1     -35.183  22.401   2.323  0.00  0.00    -0.450 OA
ATOM      2  O   UNL     1     -38.908  21.574   0.891  0.00  0.00    -0.283 OA
ATOM      3  C   UNL     1     -35.997  24.219   3.588  0.00  0.00    +0.051 C 
ATOM      4  C   UNL     1     -36.251  23.171   2.705  0.00  0.00    +0.151 A 
ATOM      5  C   UNL     1     -37.548  22.941   2.250  0.00  0.00    +0.110 A 
ATOM      6  C   UNL     1     -37.044  25.037   4.014  0.00  0.00    +0.136 C 
ATOM      7  C   UNL     1     -38.599  23.758   2.674  0.00  0.00    +0.143 C 
ATOM      8  C   UNL     1     -35.402  21.358   1.437  0.00  0.00    +0.182 A 
ATOM      9  C   UNL     1     -37.789  21.827   1.320  0.00  0.00    +0.238 A 
ATOM     10  C   UNL     1     -38.343  24.807   3.558  0.00  0.00    +0.073 C 
ATOM     11  C   UNL     1     -36.603  21.025   0.931  0.00  0.00    +0.208 A 
ENDROOT
BRANCH   8  12
ATOM     12  C   UNL     1     -34.172  20.614   1.112  0.00  0.00    +0.038 C 
ATOM     13  C   UNL     1     -33.228  21.168   0.247  0.00  0.00    +0.006 C 
ATOM     14  C   UNL     1     -33.952  19.353   1.666  0.00  0.00    +0.006 C 
ATOM     15  C   UNL     1     -32.065  20.463  -0.062  0.00  0.00    +0.037 C 
ATOM     16  C   UNL     1     -32.789  18.648   1.357  0.00  0.00    +0.037 C 
ATOM     17  C   UNL     1     -31.845  19.203   0.493  0.00  0.00    +0.134 C 
BRANCH  17  18
ATOM     18  O   UNL     1     -30.711  18.515   0.192  0.00  0.00    -0.506 OA
ATOM     19  H   UNL     1     -30.734  17.829  -0.446  0.00  0.00    +0.292 HD
ENDBRANCH  17  18
ENDBRANCH   8  12
BRANCH   6  20
ATOM     20  O   UNL     1     -36.817  26.068   4.877  0.00  0.00    -0.506 OA
ATOM     21  H   UNL     1     -36.593  26.915   4.547  0.00  0.00    +0.292 HD
ENDBRANCH   6  20
BRANCH   7  22
ATOM     22  O   UNL     1     -39.884  23.576   2.260  0.00  0.00    -0.505 OA
ATOM     23  H   UNL     1     -40.063  23.362   1.365  0.00  0.00    +0.292 HD
ENDBRANCH   7  22
BRANCH  11  24
ATOM     24  O   UNL     1     -36.792  19.961   0.078  0.00  0.00    -0.501 OA
ATOM     25  H   UNL     1     -37.641  19.793  -0.280  0.00  0.00    +0.292 HD
ENDBRANCH  11  24
BRANCH   3  26
ATOM     26  C   UNL     1     -34.609  24.474   4.083  0.00  0.00    +0.058 C 
BRANCH  26  27
ATOM     27  C   UNL     1     -33.812  25.358   3.158  0.00  0.00    -0.030 C 
ATOM     28  C   UNL     1     -33.221  26.535   3.439  0.00  0.00    -0.048 C 
ATOM     29  C   UNL     1     -32.438  27.368   2.463  0.00  0.00    +0.026 C 
ATOM     30  C   UNL     1     -33.318  27.126   4.820  0.00  0.00    +0.026 C 
ENDBRANCH  26  27
ENDBRANCH   3  26
TORSDOF 7
ENDMDL
MODEL 8
REMARK VINA RESULT:      -6.1      2.175      6.167
REMARK  Name = 5318624
REMARK  7 active torsions:
REMARK  status: ('A' for Active; 'I' for Inactive)
REMARK    1  A    between atoms: C_3  and  C_26
REMARK    2  A    between atoms: C_6  and  O_20
REMARK    3  A    between atoms: C_7  and  O_22
REMARK    4  A    between atoms: C_8  and  C_12
REMARK    5  A    between atoms: C_11  and  O_24
REMARK    6  A    between atoms: C_17  and  O_18
REMARK    7  A    between atoms: C_26  and  C_27
REMARK                            x       y       z     vdW  Elec       q    Type
REMARK                         _______ _______ _______ _____ _____    ______ ____
ROOT
ATOM      1  O   UNL     1     -36.899  21.916   1.768  0.00  0.00    -0.450 OA
ATOM      2  O   UNL     1     -40.716  21.536   0.393  0.00  0.00    -0.283 OA
ATOM      3  C   UNL     1     -37.400  23.979   2.799  0.00  0.00    +0.051 C 
ATOM      4  C   UNL     1     -37.826  22.888   2.041  0.00  0.00    +0.151 A 
ATOM      5  C   UNL     1     -39.145  22.817   1.599  0.00  0.00    +0.110 A 
ATOM      6  C   UNL     1     -38.300  24.999   3.110  0.00  0.00    +0.136 C 
ATOM      7  C   UNL     1     -40.048  23.838   1.909  0.00  0.00    +0.143 C 
ATOM      8  C   UNL     1     -37.288  20.824   1.008  0.00  0.00    +0.182 A 
ATOM      9  C   UNL     1     -39.569  21.654   0.804  0.00  0.00    +0.238 A 
ATOM     10  C   UNL     1     -39.621  24.929   2.666  0.00  0.00    +0.073 C 
ATOM     11  C   UNL     1     -38.530  20.632   0.529  0.00  0.00    +0.208 A 
ENDROOT
BRANCH   8  12
ATOM     12  C   UNL     1     -36.197  19.857   0.791  0.00  0.00    +0.038 C 
ATOM     13  C   UNL     1     -34.964  20.043   1.417  0.00  0.00    +0.006 C 
ATOM     14  C   UNL     1     -36.395  18.756  -0.043  0.00  0.00    +0.006 C 
ATOM     15  C   UNL     1     -33.931  19.129   1.210  0.00  0.00    +0.037 C 
ATOM     16  C   UNL     1     -35.362  17.842  -0.249  0.00  0.00    +0.037 C 
ATOM     17  C   UNL     1     -34.130  18.028   0.377  0.00  0.00    +0.134 C 
BRANCH  17  18
ATOM     18  O   UNL     1     -33.123  17.137   0.176  0.00  0.00    -0.506 OA
ATOM     19  H   UNL     1     -32.590  16.861   0.895  0.00  0.00    +0.292 HD
ENDBRANCH  17  18
ENDBRANCH   8  12
BRANCH   6  20
ATOM     20  O   UNL     1     -37.904  26.075   3.849  0.00  0.00    -0.506 OA
ATOM     21  H   UNL     1     -37.868  26.015   4.783  0.00  0.00    +0.292 HD
ENDBRANCH   6  20
BRANCH   7  22
ATOM     22  O   UNL     1     -41.348  23.817   1.501  0.00  0.00    -0.505 OA
ATOM     23  H   UNL     1     -41.923  23.142   1.802  0.00  0.00    +0.292 HD
ENDBRANCH   7  22
BRANCH  11  24
ATOM     24  O   UNL     1     -38.894  19.517  -0.195  0.00  0.00    -0.501 OA
ATOM     25  H   UNL     1     -39.664  19.038   0.038  0.00  0.00    +0.292 HD
ENDBRANCH  11  24
BRANCH   3  26
ATOM     26  C   UNL     1     -35.987  24.063   3.279  0.00  0.00    +0.058 C 
BRANCH  26  27
ATOM     27  C   UNL     1     -35.845  23.709   4.738  0.00  0.00    -0.030 C 
ATOM     28  C   UNL     1     -35.482  22.529   5.275  0.00  0.00    -0.048 C 
ATOM     29  C   UNL     1     -35.359  22.243   6.746  0.00  0.00    +0.026 C 
ATOM     30  C   UNL     1     -35.165  21.354   4.388  0.00  0.00    +0.026 C 
ENDBRANCH  26  27
ENDBRANCH   3  26
TORSDOF 7
ENDMDL
MODEL 9
REMARK VINA RESULT:      -6.1      2.421      7.380
REMARK  Name = 5318624
REMARK  7 active torsions:
REMARK  status: ('A' for Active; 'I' for Inactive)
REMARK    1  A    between atoms: C_3  and  C_26
REMARK    2  A    between atoms: C_6  and  O_20
REMARK    3  A    between atoms: C_7  and  O_22
REMARK    4  A    between atoms: C_8  and  C_12
REMARK    5  A    between atoms: C_11  and  O_24
REMARK    6  A    between atoms: C_17  and  O_18
REMARK    7  A    between atoms: C_26  and  C_27
REMARK                            x       y       z     vdW  Elec       q    Type
REMARK                         _______ _______ _______ _____ _____    ______ ____
ROOT
ATOM      1  O   UNL     1     -37.316  23.305   2.133  0.00  0.00    -0.450 OA
ATOM      2  O   UNL     1     -35.247  20.700   4.487  0.00  0.00    -0.283 OA
ATOM      3  C   UNL     1     -36.660  25.139   3.466  0.00  0.00    +0.051 C 
ATOM      4  C   UNL     1     -36.622  23.767   3.222  0.00  0.00    +0.151 A 
ATOM      5  C   UNL     1     -35.897  22.928   4.066  0.00  0.00    +0.110 A 
ATOM      6  C   UNL     1     -35.972  25.669   4.559  0.00  0.00    +0.136 C 
ATOM      7  C   UNL     1     -35.207  23.455   5.161  0.00  0.00    +0.143 C 
ATOM      8  C   UNL     1     -37.306  21.945   1.870  0.00  0.00    +0.182 A 
ATOM      9  C   UNL     1     -35.871  21.484   3.784  0.00  0.00    +0.238 A 
ATOM     10  C   UNL     1     -35.247  24.827   5.405  0.00  0.00    +0.073 C 
ATOM     11  C   UNL     1     -36.640  21.031   2.599  0.00  0.00    +0.208 A 
ENDROOT
BRANCH   8  12
ATOM     12  C   UNL     1     -38.088  21.586   0.674  0.00  0.00    +0.038 C 
ATOM     13  C   UNL     1     -37.460  21.489  -0.568  0.00  0.00    +0.006 C 
ATOM     14  C   UNL     1     -39.458  21.343   0.782  0.00  0.00    +0.006 C 
ATOM     15  C   UNL     1     -38.201  21.150  -1.701  0.00  0.00    +0.037 C 
ATOM     16  C   UNL     1     -40.198  21.005  -0.350  0.00  0.00    +0.037 C 
ATOM     17  C   UNL     1     -39.570  20.908  -1.592  0.00  0.00    +0.134 C 
BRANCH  17  18
ATOM     18  O   UNL     1     -40.292  20.578  -2.696  0.00  0.00    -0.506 OA
ATOM     19  H   UNL     1     -40.219  19.719  -3.064  0.00  0.00    +0.292 HD
ENDBRANCH  17  18
ENDBRANCH   8  12
BRANCH   6  20
ATOM     20  O   UNL     1     -35.997  27.007   4.816  0.00  0.00    -0.506 OA
ATOM     21  H   UNL     1     -35.198  27.496   4.838  0.00  0.00    +0.292 HD
ENDBRANCH   6  20
BRANCH   7  22
ATOM     22  O   UNL     1     -34.484  22.678   6.016  0.00  0.00    -0.505 OA
ATOM     23  H   UNL     1     -34.910  22.238   6.725  0.00  0.00    +0.292 HD
ENDBRANCH   7  22
BRANCH  11  24
ATOM     24  O   UNL     1     -36.623  19.688   2.291  0.00  0.00    -0.501 OA
ATOM     25  H   UNL     1     -36.108  19.380   1.572  0.00  0.00    +0.292 HD
ENDBRANCH  11  24
BRANCH   3  26
ATOM     26  C   UNL     1     -37.434  26.048   2.566  0.00  0.00    +0.058 C 
BRANCH  26  27
ATOM     27  C   UNL     1     -38.917  26.011   2.833  0.00  0.00    -0.030 C 
ATOM     28  C   UNL     1     -39.908  25.704   1.975  0.00  0.00    -0.048 C 
ATOM     29  C   UNL     1     -41.373  25.687   2.309  0.00  0.00    +0.026 C 
ATOM     30  C   UNL     1     -39.595  25.349   0.546  0.00  0.00    +0.026 C 
ENDBRANCH  26  27
ENDBRANCH   3  26
TORSDOF 7
ENDMDL
