MODEL 1
REMARK VINA RESULT:      -7.1      0.000      0.000
REMARK  Name = 53630253
REMARK  11 active torsions:
REMARK  status: ('A' for Active; 'I' for Inactive)
REMARK    1  A    between atoms: S_1  and  N_4
REMARK    2  A    between atoms: S_1  and  C_20
REMARK    3  A    between atoms: N_4  and  C_6
REMARK    4  A    between atoms: C_6  and  C_9
REMARK    5  A    between atoms: C_8  and  O_14
REMARK    6  A    between atoms: O_14  and  C_15
REMARK    7  A    between atoms: C_20  and  C_21
REMARK    8  A    between atoms: C_21  and  C_22
REMARK    9  A    between atoms: C_22  and  O_23
REMARK   10  A    between atoms: O_23  and  C_24
REMARK   11  A    between atoms: C_24  and  N_27
REMARK                            x       y       z     vdW  Elec       q    Type
REMARK                         _______ _______ _______ _____ _____    ______ ____
ROOT
ATOM      1  S   UNL     1     -34.863  25.833   5.157  0.00  0.00    +0.041 S 
ATOM      2  O   UNL     1     -33.901  26.550   5.970  0.00  0.00    -0.157 OA
ATOM      3  O   UNL     1     -36.288  25.992   5.378  0.00  0.00    -0.157 OA
ENDROOT
BRANCH   1   4
ATOM      4  N   UNL     1     -34.518  24.172   5.166  0.00  0.00    -0.181 NA
ATOM      5  H   UNL     1     -33.892  23.999   5.953  0.00  0.00    +0.149 HD
BRANCH   4   6
ATOM      6  C   UNL     1     -35.656  23.207   5.285  0.00  0.00    +0.097 C 
ATOM      7  C   UNL     1     -35.239  22.105   6.270  0.00  0.00    +0.024 C 
BRANCH   6   9
ATOM      8  C   UNL     1     -35.890  21.001   2.223  0.00  0.00    +0.138 C 
ATOM      9  C   UNL     1     -36.093  22.658   3.970  0.00  0.00    -0.003 C 
ATOM     10  C   UNL     1     -35.481  21.515   3.454  0.00  0.00    +0.034 C 
ATOM     11  C   UNL     1     -36.909  21.630   1.508  0.00  0.00    +0.037 C 
ATOM     12  C   UNL     1     -37.113  23.288   3.255  0.00  0.00    -0.003 C 
ATOM     13  C   UNL     1     -37.520  22.773   2.024  0.00  0.00    +0.003 C 
BRANCH   8  14
ATOM     14  O   UNL     1     -35.289  19.879   1.716  0.00  0.00    -0.479 OA
BRANCH  14  15
ATOM     15  C   UNL     1     -33.880  19.901   1.620  0.00  0.00    +0.166 C 
ATOM     16  C   UNL     1     -33.309  18.516   1.356  0.00  0.00    +0.044 C 
ATOM     17  C   UNL     1     -33.427  20.683   0.399  0.00  0.00    +0.044 C 
ATOM     18  C   UNL     1     -31.936  18.787   0.756  0.00  0.00    +0.004 C 
ATOM     19  C   UNL     1     -32.006  20.192   0.151  0.00  0.00    +0.004 C 
ENDBRANCH  14  15
ENDBRANCH   8  14
ENDBRANCH   6   9
ENDBRANCH   4   6
ENDBRANCH   1   4
BRANCH   1  20
ATOM     20  C   UNL     1     -34.544  26.231   3.453  0.00  0.00    +0.171 C 
BRANCH  20  21
ATOM     21  C   UNL     1     -33.086  26.005   3.095  0.00  0.00    +0.059 C 
BRANCH  21  22
ATOM     22  C   UNL     1     -32.370  27.315   2.803  0.00  0.00    +0.146 C 
BRANCH  22  23
ATOM     23  O   UNL     1     -31.291  27.462   3.716  0.00  0.00    -0.334 OA
BRANCH  23  24
ATOM     24  C   UNL     1     -31.420  28.645   4.490  0.00  0.00    +0.248 C 
BRANCH  24  27
ATOM     25  O   UNL     1     -31.667  29.790   7.061  0.00  0.00    -0.252 OA
ATOM     26  O   UNL     1     -27.330  28.687   8.168  0.00  0.00    -0.270 OA
ATOM     27  N   UNL     1     -30.374  28.670   5.468  0.00  0.00    -0.215 N 
ATOM     28  N   UNL     1     -29.507  29.240   7.610  0.00  0.00    -0.236 N 
ATOM     29  C   UNL     1     -30.598  29.270   6.732  0.00  0.00    +0.316 C 
ATOM     30  C   UNL     1     -29.136  28.105   5.179  0.00  0.00    +0.076 C 
ATOM     31  C   UNL     1     -28.106  28.083   6.027  0.00  0.00    +0.074 C 
ATOM     32  C   UNL     1     -28.258  28.689   7.365  0.00  0.00    +0.254 C 
ATOM     33  H   UNL     1     -29.641  29.652   8.494  0.00  0.00    +0.159 HD
ENDBRANCH  24  27
ENDBRANCH  23  24
ENDBRANCH  22  23
ENDBRANCH  21  22
ENDBRANCH  20  21
ENDBRANCH   1  20
TORSDOF 11
ENDMDL
MODEL 2
REMARK VINA RESULT:      -6.7      3.323      7.057
REMARK  Name = 53630253
REMARK  11 active torsions:
REMARK  status: ('A' for Active; 'I' for Inactive)
REMARK    1  A    between atoms: S_1  and  N_4
REMARK    2  A    between atoms: S_1  and  C_20
REMARK    3  A    between atoms: N_4  and  C_6
REMARK    4  A    between atoms: C_6  and  C_9
REMARK    5  A    between atoms: C_8  and  O_14
REMARK    6  A    between atoms: O_14  and  C_15
REMARK    7  A    between atoms: C_20  and  C_21
REMARK    8  A    between atoms: C_21  and  C_22
REMARK    9  A    between atoms: C_22  and  O_23
REMARK   10  A    between atoms: O_23  and  C_24
REMARK   11  A    between atoms: C_24  and  N_27
REMARK                            x       y       z     vdW  Elec       q    Type
REMARK                         _______ _______ _______ _____ _____    ______ ____
ROOT
ATOM      1  S   UNL     1     -34.381  25.860   5.172  0.00  0.00    +0.041 S 
ATOM      2  O   UNL     1     -33.283  26.280   6.022  0.00  0.00    -0.157 OA
ATOM      3  O   UNL     1     -35.748  26.224   5.492  0.00  0.00    -0.157 OA
ENDROOT
BRANCH   1   4
ATOM      4  N   UNL     1     -34.332  24.181   4.937  0.00  0.00    -0.181 NA
ATOM      5  H   UNL     1     -33.597  23.814   5.541  0.00  0.00    +0.149 HD
BRANCH   4   6
ATOM      6  C   UNL     1     -35.570  23.385   5.210  0.00  0.00    +0.097 C 
ATOM      7  C   UNL     1     -35.245  22.372   6.317  0.00  0.00    +0.024 C 
BRANCH   6   9
ATOM      8  C   UNL     1     -36.004  21.012   2.298  0.00  0.00    +0.138 C 
ATOM      9  C   UNL     1     -36.124  22.734   3.988  0.00  0.00    -0.003 C 
ATOM     10  C   UNL     1     -35.486  21.620   3.441  0.00  0.00    +0.034 C 
ATOM     11  C   UNL     1     -37.160  21.516   1.702  0.00  0.00    +0.037 C 
ATOM     12  C   UNL     1     -37.280  23.240   3.392  0.00  0.00    -0.003 C 
ATOM     13  C   UNL     1     -37.797  22.630   2.249  0.00  0.00    +0.003 C 
BRANCH   8  14
ATOM     14  O   UNL     1     -35.377  19.918   1.761  0.00  0.00    -0.479 OA
BRANCH  14  15
ATOM     15  C   UNL     1     -33.972  19.990   1.632  0.00  0.00    +0.166 C 
ATOM     16  C   UNL     1     -33.359  18.625   1.362  0.00  0.00    +0.044 C 
ATOM     17  C   UNL     1     -33.577  20.781   0.397  0.00  0.00    +0.044 C 
ATOM     18  C   UNL     1     -32.010  18.943   0.729  0.00  0.00    +0.004 C 
ATOM     19  C   UNL     1     -32.145  20.340   0.119  0.00  0.00    +0.004 C 
ENDBRANCH  14  15
ENDBRANCH   8  14
ENDBRANCH   6   9
ENDBRANCH   4   6
ENDBRANCH   1   4
BRANCH   1  20
ATOM     20  C   UNL     1     -34.050  26.439   3.524  0.00  0.00    +0.171 C 
BRANCH  20  21
ATOM     21  C   UNL     1     -35.225  27.221   2.965  0.00  0.00    +0.059 C 
BRANCH  21  22
ATOM     22  C   UNL     1     -36.025  26.396   1.968  0.00  0.00    +0.146 C 
BRANCH  22  23
ATOM     23  O   UNL     1     -37.409  26.571   2.234  0.00  0.00    -0.334 OA
BRANCH  23  24
ATOM     24  C   UNL     1     -38.128  26.914   1.059  0.00  0.00    +0.248 C 
BRANCH  24  27
ATOM     25  O   UNL     1     -40.491  26.692   2.591  0.00  0.00    -0.252 OA
ATOM     26  O   UNL     1     -41.969  23.091   0.122  0.00  0.00    -0.270 OA
ATOM     27  N   UNL     1     -39.145  25.931   0.838  0.00  0.00    -0.215 N 
ATOM     28  N   UNL     1     -41.225  24.899   1.359  0.00  0.00    -0.236 N 
ATOM     29  C   UNL     1     -40.296  25.903   1.663  0.00  0.00    +0.316 C 
ATOM     30  C   UNL     1     -39.005  25.002  -0.188  0.00  0.00    +0.076 C 
ATOM     31  C   UNL     1     -39.900  24.052  -0.466  0.00  0.00    +0.074 C 
ATOM     32  C   UNL     1     -41.127  23.954   0.349  0.00  0.00    +0.254 C 
ATOM     33  H   UNL     1     -42.033  24.860   1.922  0.00  0.00    +0.159 HD
ENDBRANCH  24  27
ENDBRANCH  23  24
ENDBRANCH  22  23
ENDBRANCH  21  22
ENDBRANCH  20  21
ENDBRANCH   1  20
TORSDOF 11
ENDMDL
MODEL 3
REMARK VINA RESULT:      -6.5      7.851     10.877
REMARK  Name = 53630253
REMARK  11 active torsions:
REMARK  status: ('A' for Active; 'I' for Inactive)
REMARK    1  A    between atoms: S_1  and  N_4
REMARK    2  A    between atoms: S_1  and  C_20
REMARK    3  A    between atoms: N_4  and  C_6
REMARK    4  A    between atoms: C_6  and  C_9
REMARK    5  A    between atoms: C_8  and  O_14
REMARK    6  A    between atoms: O_14  and  C_15
REMARK    7  A    between atoms: C_20  and  C_21
REMARK    8  A    between atoms: C_21  and  C_22
REMARK    9  A    between atoms: C_22  and  O_23
REMARK   10  A    between atoms: O_23  and  C_24
REMARK   11  A    between atoms: C_24  and  N_27
REMARK                            x       y       z     vdW  Elec       q    Type
REMARK                         _______ _______ _______ _____ _____    ______ ____
ROOT
ATOM      1  S   UNL     1     -42.652  28.366   3.610  0.00  0.00    +0.041 S 
ATOM      2  O   UNL     1     -42.469  29.072   2.357  0.00  0.00    -0.157 OA
ATOM      3  O   UNL     1     -42.066  28.870   4.838  0.00  0.00    -0.157 OA
ENDROOT
BRANCH   1   4
ATOM      4  N   UNL     1     -42.192  26.742   3.443  0.00  0.00    -0.181 NA
ATOM      5  H   UNL     1     -42.980  26.173   3.750  0.00  0.00    +0.149 HD
BRANCH   4   6
ATOM      6  C   UNL     1     -41.791  26.250   2.087  0.00  0.00    +0.097 C 
ATOM      7  C   UNL     1     -42.978  25.476   1.496  0.00  0.00    +0.024 C 
BRANCH   6   9
ATOM      8  C   UNL     1     -38.168  25.267   2.542  0.00  0.00    +0.138 C 
ATOM      9  C   UNL     1     -40.539  25.441   2.109  0.00  0.00    -0.003 C 
ATOM     10  C   UNL     1     -39.340  26.023   2.521  0.00  0.00    +0.034 C 
ATOM     11  C   UNL     1     -38.195  23.928   2.150  0.00  0.00    +0.037 C 
ATOM     12  C   UNL     1     -40.566  24.102   1.717  0.00  0.00    -0.003 C 
ATOM     13  C   UNL     1     -39.394  23.346   1.738  0.00  0.00    +0.003 C 
BRANCH   8  14
ATOM     14  O   UNL     1     -36.991  25.839   2.946  0.00  0.00    -0.479 OA
BRANCH  14  15
ATOM     15  C   UNL     1     -36.252  25.147   3.931  0.00  0.00    +0.166 C 
ATOM     16  C   UNL     1     -34.866  24.766   3.434  0.00  0.00    +0.044 C 
ATOM     17  C   UNL     1     -35.944  26.046   5.115  0.00  0.00    +0.044 C 
ATOM     18  C   UNL     1     -34.060  24.553   4.709  0.00  0.00    +0.004 C 
ATOM     19  C   UNL     1     -34.764  25.366   5.798  0.00  0.00    +0.004 C 
ENDBRANCH  14  15
ENDBRANCH   8  14
ENDBRANCH   6   9
ENDBRANCH   4   6
ENDBRANCH   1   4
BRANCH   1  20
ATOM     20  C   UNL     1     -44.400  28.191   3.890  0.00  0.00    +0.171 C 
BRANCH  20  21
ATOM     21  C   UNL     1     -44.712  26.928   4.672  0.00  0.00    +0.059 C 
BRANCH  21  22
ATOM     22  C   UNL     1     -45.441  27.237   5.970  0.00  0.00    +0.146 C 
BRANCH  22  23
ATOM     23  O   UNL     1     -46.284  28.362   5.767  0.00  0.00    -0.334 OA
BRANCH  23  24
ATOM     24  C   UNL     1     -46.159  29.305   6.821  0.00  0.00    +0.248 C 
BRANCH  24  27
ATOM     25  O   UNL     1     -43.566  30.055   7.656  0.00  0.00    -0.252 OA
ATOM     26  O   UNL     1     -43.535  33.729   4.872  0.00  0.00    -0.270 OA
ATOM     27  N   UNL     1     -45.451  30.450   6.331  0.00  0.00    -0.215 N 
ATOM     28  N   UNL     1     -43.553  31.884   6.269  0.00  0.00    -0.236 N 
ATOM     29  C   UNL     1     -44.152  30.741   6.815  0.00  0.00    +0.316 C 
ATOM     30  C   UNL     1     -46.038  31.277   5.379  0.00  0.00    +0.076 C 
ATOM     31  C   UNL     1     -45.455  32.363   4.868  0.00  0.00    +0.074 C 
ATOM     32  C   UNL     1     -44.100  32.736   5.321  0.00  0.00    +0.254 C 
ATOM     33  H   UNL     1     -42.649  32.106   6.592  0.00  0.00    +0.159 HD
ENDBRANCH  24  27
ENDBRANCH  23  24
ENDBRANCH  22  23
ENDBRANCH  21  22
ENDBRANCH  20  21
ENDBRANCH   1  20
TORSDOF 11
ENDMDL
MODEL 4
REMARK VINA RESULT:      -6.5      2.169      2.996
REMARK  Name = 53630253
REMARK  11 active torsions:
REMARK  status: ('A' for Active; 'I' for Inactive)
REMARK    1  A    between atoms: S_1  and  N_4
REMARK    2  A    between atoms: S_1  and  C_20
REMARK    3  A    between atoms: N_4  and  C_6
REMARK    4  A    between atoms: C_6  and  C_9
REMARK    5  A    between atoms: C_8  and  O_14
REMARK    6  A    between atoms: O_14  and  C_15
REMARK    7  A    between atoms: C_20  and  C_21
REMARK    8  A    between atoms: C_21  and  C_22
REMARK    9  A    between atoms: C_22  and  O_23
REMARK   10  A    between atoms: O_23  and  C_24
REMARK   11  A    between atoms: C_24  and  N_27
REMARK                            x       y       z     vdW  Elec       q    Type
REMARK                         _______ _______ _______ _____ _____    ______ ____
ROOT
ATOM      1  S   UNL     1     -36.768  27.167   1.405  0.00  0.00    +0.041 S 
ATOM      2  O   UNL     1     -36.895  28.611   1.462  0.00  0.00    -0.157 OA
ATOM      3  O   UNL     1     -37.347  26.415   0.308  0.00  0.00    -0.157 OA
ENDROOT
BRANCH   1   4
ATOM      4  N   UNL     1     -37.310  26.472   2.854  0.00  0.00    -0.181 NA
ATOM      5  H   UNL     1     -38.113  27.017   3.168  0.00  0.00    +0.149 HD
BRANCH   4   6
ATOM      6  C   UNL     1     -37.726  25.034   2.845  0.00  0.00    +0.097 C 
ATOM      7  C   UNL     1     -39.191  24.965   3.302  0.00  0.00    +0.024 C 
BRANCH   6   9
ATOM      8  C   UNL     1     -35.690  22.062   3.991  0.00  0.00    +0.138 C 
ATOM      9  C   UNL     1     -36.834  24.165   3.663  0.00  0.00    -0.003 C 
ATOM     10  C   UNL     1     -36.525  22.876   3.226  0.00  0.00    +0.034 C 
ATOM     11  C   UNL     1     -35.163  22.536   5.193  0.00  0.00    +0.037 C 
ATOM     12  C   UNL     1     -36.307  24.640   4.865  0.00  0.00    -0.003 C 
ATOM     13  C   UNL     1     -35.472  23.825   5.629  0.00  0.00    +0.003 C 
BRANCH   8  14
ATOM     14  O   UNL     1     -35.388  20.796   3.563  0.00  0.00    -0.479 OA
BRANCH  14  15
ATOM     15  C   UNL     1     -35.273  20.607   2.168  0.00  0.00    +0.166 C 
ATOM     16  C   UNL     1     -34.107  19.698   1.814  0.00  0.00    +0.044 C 
ATOM     17  C   UNL     1     -36.467  19.844   1.619  0.00  0.00    +0.044 C 
ATOM     18  C   UNL     1     -34.449  19.178   0.423  0.00  0.00    +0.004 C 
ATOM     19  C   UNL     1     -35.970  19.287   0.291  0.00  0.00    +0.004 C 
ENDBRANCH  14  15
ENDBRANCH   8  14
ENDBRANCH   6   9
ENDBRANCH   4   6
ENDBRANCH   1   4
BRANCH   1  20
ATOM     20  C   UNL     1     -35.037  26.766   1.468  0.00  0.00    +0.171 C 
BRANCH  20  21
ATOM     21  C   UNL     1     -34.449  27.063   2.835  0.00  0.00    +0.059 C 
BRANCH  21  22
ATOM     22  C   UNL     1     -33.369  26.060   3.212  0.00  0.00    +0.146 C 
BRANCH  22  23
ATOM     23  O   UNL     1     -32.147  26.754   3.413  0.00  0.00    -0.334 OA
BRANCH  23  24
ATOM     24  C   UNL     1     -32.369  28.116   3.751  0.00  0.00    +0.248 C 
BRANCH  24  27
ATOM     25  O   UNL     1     -32.768  27.635   6.506  0.00  0.00    -0.252 OA
ATOM     26  O   UNL     1     -28.751  29.606   7.617  0.00  0.00    -0.270 OA
ATOM     27  N   UNL     1     -31.445  28.491   4.779  0.00  0.00    -0.215 N 
ATOM     28  N   UNL     1     -30.767  28.617   7.057  0.00  0.00    -0.236 N 
ATOM     29  C   UNL     1     -31.738  28.204   6.135  0.00  0.00    +0.316 C 
ATOM     30  C   UNL     1     -30.258  29.137   4.448  0.00  0.00    +0.076 C 
ATOM     31  C   UNL     1     -29.342  29.523   5.337  0.00  0.00    +0.074 C 
ATOM     32  C   UNL     1     -29.573  29.263   6.772  0.00  0.00    +0.254 C 
ATOM     33  H   UNL     1     -30.951  28.428   8.006  0.00  0.00    +0.159 HD
ENDBRANCH  24  27
ENDBRANCH  23  24
ENDBRANCH  22  23
ENDBRANCH  21  22
ENDBRANCH  20  21
ENDBRANCH   1  20
TORSDOF 11
ENDMDL
MODEL 5
REMARK VINA RESULT:      -6.5      2.637      3.151
REMARK  Name = 53630253
REMARK  11 active torsions:
REMARK  status: ('A' for Active; 'I' for Inactive)
REMARK    1  A    between atoms: S_1  and  N_4
REMARK    2  A    between atoms: S_1  and  C_20
REMARK    3  A    between atoms: N_4  and  C_6
REMARK    4  A    between atoms: C_6  and  C_9
REMARK    5  A    between atoms: C_8  and  O_14
REMARK    6  A    between atoms: O_14  and  C_15
REMARK    7  A    between atoms: C_20  and  C_21
REMARK    8  A    between atoms: C_21  and  C_22
REMARK    9  A    between atoms: C_22  and  O_23
REMARK   10  A    between atoms: O_23  and  C_24
REMARK   11  A    between atoms: C_24  and  N_27
REMARK                            x       y       z     vdW  Elec       q    Type
REMARK                         _______ _______ _______ _____ _____    ______ ____
ROOT
ATOM      1  S   UNL     1     -34.482  25.836   5.290  0.00  0.00    +0.041 S 
ATOM      2  O   UNL     1     -33.468  26.287   6.224  0.00  0.00    -0.157 OA
ATOM      3  O   UNL     1     -35.880  26.167   5.495  0.00  0.00    -0.157 OA
ENDROOT
BRANCH   1   4
ATOM      4  N   UNL     1     -34.372  24.158   5.068  0.00  0.00    -0.181 NA
ATOM      5  H   UNL     1     -33.680  23.812   5.732  0.00  0.00    +0.149 HD
BRANCH   4   6
ATOM      6  C   UNL     1     -35.608  23.332   5.244  0.00  0.00    +0.097 C 
ATOM      7  C   UNL     1     -35.309  22.255   6.297  0.00  0.00    +0.024 C 
BRANCH   6   9
ATOM      8  C   UNL     1     -35.973  21.071   2.236  0.00  0.00    +0.138 C 
ATOM      9  C   UNL     1     -36.108  22.754   3.964  0.00  0.00    -0.003 C 
ATOM     10  C   UNL     1     -35.506  21.613   3.433  0.00  0.00    +0.034 C 
ATOM     11  C   UNL     1     -37.042  21.670   1.569  0.00  0.00    +0.037 C 
ATOM     12  C   UNL     1     -37.177  23.353   3.298  0.00  0.00    -0.003 C 
ATOM     13  C   UNL     1     -37.644  22.811   2.101  0.00  0.00    +0.003 C 
BRANCH   8  14
ATOM     14  O   UNL     1     -35.381  19.951   1.714  0.00  0.00    -0.479 OA
BRANCH  14  15
ATOM     15  C   UNL     1     -33.971  19.958   1.629  0.00  0.00    +0.166 C 
ATOM     16  C   UNL     1     -33.415  18.570   1.351  0.00  0.00    +0.044 C 
ATOM     17  C   UNL     1     -33.500  20.751   0.422  0.00  0.00    +0.044 C 
ATOM     18  C   UNL     1     -32.033  18.834   0.765  0.00  0.00    +0.004 C 
ATOM     19  C   UNL     1     -32.083  20.247   0.179  0.00  0.00    +0.004 C 
ENDBRANCH  14  15
ENDBRANCH   8  14
ENDBRANCH   6   9
ENDBRANCH   4   6
ENDBRANCH   1   4
BRANCH   1  20
ATOM     20  C   UNL     1     -34.032  26.419   3.671  0.00  0.00    +0.171 C 
BRANCH  20  21
ATOM     21  C   UNL     1     -35.249  26.558   2.774  0.00  0.00    +0.059 C 
BRANCH  21  22
ATOM     22  C   UNL     1     -35.438  27.991   2.302  0.00  0.00    +0.146 C 
BRANCH  22  23
ATOM     23  O   UNL     1     -34.948  28.873   3.302  0.00  0.00    -0.334 OA
BRANCH  23  24
ATOM     24  C   UNL     1     -35.026  30.228   2.887  0.00  0.00    +0.248 C 
BRANCH  24  27
ATOM     25  O   UNL     1     -34.249  32.717   1.800  0.00  0.00    -0.252 OA
ATOM     26  O   UNL     1     -30.137  32.545   3.875  0.00  0.00    -0.270 OA
ATOM     27  N   UNL     1     -33.761  30.856   3.127  0.00  0.00    -0.215 N 
ATOM     28  N   UNL     1     -32.201  32.629   2.835  0.00  0.00    -0.236 N 
ATOM     29  C   UNL     1     -33.467  32.108   2.534  0.00  0.00    +0.316 C 
ATOM     30  C   UNL     1     -32.821  30.238   3.945  0.00  0.00    +0.076 C 
ATOM     31  C   UNL     1     -31.619  30.747   4.222  0.00  0.00    +0.074 C 
ATOM     32  C   UNL     1     -31.234  32.049   3.641  0.00  0.00    +0.254 C 
ATOM     33  H   UNL     1     -31.975  33.499   2.432  0.00  0.00    +0.159 HD
ENDBRANCH  24  27
ENDBRANCH  23  24
ENDBRANCH  22  23
ENDBRANCH  21  22
ENDBRANCH  20  21
ENDBRANCH   1  20
TORSDOF 11
ENDMDL
MODEL 6
REMARK VINA RESULT:      -6.4      1.702      2.708
REMARK  Name = 53630253
REMARK  11 active torsions:
REMARK  status: ('A' for Active; 'I' for Inactive)
REMARK    1  A    between atoms: S_1  and  N_4
REMARK    2  A    between atoms: S_1  and  C_20
REMARK    3  A    between atoms: N_4  and  C_6
REMARK    4  A    between atoms: C_6  and  C_9
REMARK    5  A    between atoms: C_8  and  O_14
REMARK    6  A    between atoms: O_14  and  C_15
REMARK    7  A    between atoms: C_20  and  C_21
REMARK    8  A    between atoms: C_21  and  C_22
REMARK    9  A    between atoms: C_22  and  O_23
REMARK   10  A    between atoms: O_23  and  C_24
REMARK   11  A    between atoms: C_24  and  N_27
REMARK                            x       y       z     vdW  Elec       q    Type
REMARK                         _______ _______ _______ _____ _____    ______ ____
ROOT
ATOM      1  S   UNL     1     -33.849  27.060   4.171  0.00  0.00    +0.041 S 
ATOM      2  O   UNL     1     -32.915  26.436   5.088  0.00  0.00    -0.157 OA
ATOM      3  O   UNL     1     -33.940  28.504   4.074  0.00  0.00    -0.157 OA
ENDROOT
BRANCH   1   4
ATOM      4  N   UNL     1     -35.413  26.456   4.424  0.00  0.00    -0.181 NA
ATOM      5  H   UNL     1     -36.063  27.219   4.240  0.00  0.00    +0.149 HD
BRANCH   4   6
ATOM      6  C   UNL     1     -35.866  25.283   3.611  0.00  0.00    +0.097 C 
ATOM      7  C   UNL     1     -37.340  25.504   3.244  0.00  0.00    +0.024 C 
BRANCH   6   9
ATOM      8  C   UNL     1     -35.430  21.573   4.200  0.00  0.00    +0.138 C 
ATOM      9  C   UNL     1     -35.639  23.978   4.296  0.00  0.00    -0.003 C 
ATOM     10  C   UNL     1     -35.641  22.794   3.559  0.00  0.00    +0.034 C 
ATOM     11  C   UNL     1     -35.217  21.537   5.579  0.00  0.00    +0.037 C 
ATOM     12  C   UNL     1     -35.427  23.942   5.675  0.00  0.00    -0.003 C 
ATOM     13  C   UNL     1     -35.215  22.721   6.315  0.00  0.00    +0.003 C 
BRANCH   8  14
ATOM     14  O   UNL     1     -35.432  20.410   3.476  0.00  0.00    -0.479 OA
BRANCH  14  15
ATOM     15  C   UNL     1     -35.188  20.524   2.089  0.00  0.00    +0.166 C 
ATOM     16  C   UNL     1     -34.045  19.626   1.641  0.00  0.00    +0.044 C 
ATOM     17  C   UNL     1     -36.361  19.994   1.283  0.00  0.00    +0.044 C 
ATOM     18  C   UNL     1     -34.274  19.452   0.145  0.00  0.00    +0.004 C 
ATOM     19  C   UNL     1     -35.765  19.705  -0.089  0.00  0.00    +0.004 C 
ENDBRANCH  14  15
ENDBRANCH   8  14
ENDBRANCH   6   9
ENDBRANCH   4   6
ENDBRANCH   1   4
BRANCH   1  20
ATOM     20  C   UNL     1     -33.510  26.440   2.539  0.00  0.00    +0.171 C 
BRANCH  20  21
ATOM     21  C   UNL     1     -32.020  26.254   2.315  0.00  0.00    +0.059 C 
BRANCH  21  22
ATOM     22  C   UNL     1     -31.369  27.524   1.788  0.00  0.00    +0.146 C 
BRANCH  22  23
ATOM     23  O   UNL     1     -30.776  28.221   2.874  0.00  0.00    -0.334 OA
BRANCH  23  24
ATOM     24  C   UNL     1     -29.622  27.550   3.358  0.00  0.00    +0.248 C 
BRANCH  24  27
ATOM     25  O   UNL     1     -27.670  26.447   5.076  0.00  0.00    -0.252 OA
ATOM     26  O   UNL     1     -28.455  29.634   8.313  0.00  0.00    -0.270 OA
ATOM     27  N   UNL     1     -29.296  28.071   4.652  0.00  0.00    -0.215 N 
ATOM     28  N   UNL     1     -28.063  28.035   6.687  0.00  0.00    -0.236 N 
ATOM     29  C   UNL     1     -28.299  27.443   5.439  0.00  0.00    +0.316 C 
ATOM     30  C   UNL     1     -29.958  29.194   5.138  0.00  0.00    +0.076 C 
ATOM     31  C   UNL     1     -29.721  29.746   6.329  0.00  0.00    +0.074 C 
ATOM     32  C   UNL     1     -28.697  29.151   7.211  0.00  0.00    +0.254 C 
ATOM     33  H   UNL     1     -27.373  27.615   7.251  0.00  0.00    +0.159 HD
ENDBRANCH  24  27
ENDBRANCH  23  24
ENDBRANCH  22  23
ENDBRANCH  21  22
ENDBRANCH  20  21
ENDBRANCH   1  20
TORSDOF 11
ENDMDL
MODEL 7
REMARK VINA RESULT:      -6.4      3.934      6.548
REMARK  Name = 53630253
REMARK  11 active torsions:
REMARK  status: ('A' for Active; 'I' for Inactive)
REMARK    1  A    between atoms: S_1  and  N_4
REMARK    2  A    between atoms: S_1  and  C_20
REMARK    3  A    between atoms: N_4  and  C_6
REMARK    4  A    between atoms: C_6  and  C_9
REMARK    5  A    between atoms: C_8  and  O_14
REMARK    6  A    between atoms: O_14  and  C_15
REMARK    7  A    between atoms: C_20  and  C_21
REMARK    8  A    between atoms: C_21  and  C_22
REMARK    9  A    between atoms: C_22  and  O_23
REMARK   10  A    between atoms: O_23  and  C_24
REMARK   11  A    between atoms: C_24  and  N_27
REMARK                            x       y       z     vdW  Elec       q    Type
REMARK                         _______ _______ _______ _____ _____    ______ ____
ROOT
ATOM      1  S   UNL     1     -40.378  21.184  -0.287  0.00  0.00    +0.041 S 
ATOM      2  O   UNL     1     -41.692  20.664   0.037  0.00  0.00    -0.157 OA
ATOM      3  O   UNL     1     -39.941  21.291  -1.667  0.00  0.00    -0.157 OA
ENDROOT
BRANCH   1   4
ATOM      4  N   UNL     1     -39.183  20.339   0.571  0.00  0.00    -0.181 NA
ATOM      5  H   UNL     1     -39.633  19.523   0.987  0.00  0.00    +0.149 HD
BRANCH   4   6
ATOM      6  C   UNL     1     -37.980  19.851  -0.172  0.00  0.00    +0.097 C 
ATOM      7  C   UNL     1     -38.281  18.434  -0.680  0.00  0.00    +0.024 C 
BRANCH   6   9
ATOM      8  C   UNL     1     -34.414  19.305   0.962  0.00  0.00    +0.138 C 
ATOM      9  C   UNL     1     -36.731  19.911   0.640  0.00  0.00    -0.003 C 
ATOM     10  C   UNL     1     -35.583  19.250   0.202  0.00  0.00    +0.034 C 
ATOM     11  C   UNL     1     -34.393  20.020   2.160  0.00  0.00    +0.037 C 
ATOM     12  C   UNL     1     -36.711  20.626   1.837  0.00  0.00    -0.003 C 
ATOM     13  C   UNL     1     -35.542  20.681   2.596  0.00  0.00    +0.003 C 
BRANCH   8  14
ATOM     14  O   UNL     1     -33.287  18.655   0.532  0.00  0.00    -0.479 OA
BRANCH  14  15
ATOM     15  C   UNL     1     -32.086  19.398   0.532  0.00  0.00    +0.166 C 
ATOM     16  C   UNL     1     -30.894  18.546   0.122  0.00  0.00    +0.044 C 
ATOM     17  C   UNL     1     -32.108  20.473  -0.541  0.00  0.00    +0.044 C 
ATOM     18  C   UNL     1     -29.856  19.558  -0.345  0.00  0.00    +0.004 C 
ATOM     19  C   UNL     1     -30.638  20.808  -0.759  0.00  0.00    +0.004 C 
ENDBRANCH  14  15
ENDBRANCH   8  14
ENDBRANCH   6   9
ENDBRANCH   4   6
ENDBRANCH   1   4
BRANCH   1  20
ATOM     20  C   UNL     1     -40.233  22.800   0.441  0.00  0.00    +0.171 C 
BRANCH  20  21
ATOM     21  C   UNL     1     -39.612  22.731   1.825  0.00  0.00    +0.059 C 
BRANCH  21  22
ATOM     22  C   UNL     1     -39.805  24.029   2.593  0.00  0.00    +0.146 C 
BRANCH  22  23
ATOM     23  O   UNL     1     -38.760  24.158   3.546  0.00  0.00    -0.334 OA
BRANCH  23  24
ATOM     24  C   UNL     1     -37.484  23.990   2.948  0.00  0.00    +0.248 C 
BRANCH  24  27
ATOM     25  O   UNL     1     -36.246  22.900   5.242  0.00  0.00    -0.252 OA
ATOM     26  O   UNL     1     -33.752  26.714   5.932  0.00  0.00    -0.270 OA
ATOM     27  N   UNL     1     -36.509  24.675   3.743  0.00  0.00    -0.215 N 
ATOM     28  N   UNL     1     -35.005  24.801   5.583  0.00  0.00    -0.236 N 
ATOM     29  C   UNL     1     -35.946  24.040   4.878  0.00  0.00    +0.316 C 
ATOM     30  C   UNL     1     -36.112  25.964   3.402  0.00  0.00    +0.076 C 
ATOM     31  C   UNL     1     -35.213  26.676   4.084  0.00  0.00    +0.074 C 
ATOM     32  C   UNL     1     -34.581  26.086   5.281  0.00  0.00    +0.254 C 
ATOM     33  H   UNL     1     -34.602  24.379   6.376  0.00  0.00    +0.159 HD
ENDBRANCH  24  27
ENDBRANCH  23  24
ENDBRANCH  22  23
ENDBRANCH  21  22
ENDBRANCH  20  21
ENDBRANCH   1  20
TORSDOF 11
ENDMDL
MODEL 8
REMARK VINA RESULT:      -6.4      5.231      8.889
REMARK  Name = 53630253
REMARK  11 active torsions:
REMARK  status: ('A' for Active; 'I' for Inactive)
REMARK    1  A    between atoms: S_1  and  N_4
REMARK    2  A    between atoms: S_1  and  C_20
REMARK    3  A    between atoms: N_4  and  C_6
REMARK    4  A    between atoms: C_6  and  C_9
REMARK    5  A    between atoms: C_8  and  O_14
REMARK    6  A    between atoms: O_14  and  C_15
REMARK    7  A    between atoms: C_20  and  C_21
REMARK    8  A    between atoms: C_21  and  C_22
REMARK    9  A    between atoms: C_22  and  O_23
REMARK   10  A    between atoms: O_23  and  C_24
REMARK   11  A    between atoms: C_24  and  N_27
REMARK                            x       y       z     vdW  Elec       q    Type
REMARK                         _______ _______ _______ _____ _____    ______ ____
ROOT
ATOM      1  S   UNL     1     -37.390  25.856   1.985  0.00  0.00    +0.041 S 
ATOM      2  O   UNL     1     -37.317  24.968   0.841  0.00  0.00    -0.157 OA
ATOM      3  O   UNL     1     -37.490  27.292   1.804  0.00  0.00    -0.157 OA
ENDROOT
BRANCH   1   4
ATOM      4  N   UNL     1     -36.101  25.554   3.046  0.00  0.00    -0.181 NA
ATOM      5  H   UNL     1     -35.580  26.425   3.141  0.00  0.00    +0.149 HD
BRANCH   4   6
ATOM      6  C   UNL     1     -36.413  25.071   4.428  0.00  0.00    +0.097 C 
ATOM      7  C   UNL     1     -35.822  26.079   5.425  0.00  0.00    +0.024 C 
BRANCH   6   9
ATOM      8  C   UNL     1     -35.601  21.415   3.908  0.00  0.00    +0.138 C 
ATOM      9  C   UNL     1     -35.939  23.679   4.678  0.00  0.00    -0.003 C 
ATOM     10  C   UNL     1     -36.043  22.717   3.674  0.00  0.00    +0.034 C 
ATOM     11  C   UNL     1     -35.054  21.075   5.146  0.00  0.00    +0.037 C 
ATOM     12  C   UNL     1     -35.392  23.341   5.917  0.00  0.00    -0.003 C 
ATOM     13  C   UNL     1     -34.950  22.038   6.149  0.00  0.00    +0.003 C 
BRANCH   8  14
ATOM     14  O   UNL     1     -35.704  20.469   2.922  0.00  0.00    -0.479 OA
BRANCH  14  15
ATOM     15  C   UNL     1     -34.894  20.650   1.779  0.00  0.00    +0.166 C 
ATOM     16  C   UNL     1     -33.948  19.479   1.565  0.00  0.00    +0.044 C 
ATOM     17  C   UNL     1     -35.728  20.639   0.510  0.00  0.00    +0.044 C 
ATOM     18  C   UNL     1     -33.581  19.562   0.088  0.00  0.00    +0.004 C 
ATOM     19  C   UNL     1     -34.723  20.324  -0.591  0.00  0.00    +0.004 C 
ENDBRANCH  14  15
ENDBRANCH   8  14
ENDBRANCH   6   9
ENDBRANCH   4   6
ENDBRANCH   1   4
BRANCH   1  20
ATOM     20  C   UNL     1     -38.772  25.350   2.984  0.00  0.00    +0.171 C 
BRANCH  20  21
ATOM     21  C   UNL     1     -39.722  24.459   2.205  0.00  0.00    +0.059 C 
BRANCH  21  22
ATOM     22  C   UNL     1     -41.061  25.139   1.966  0.00  0.00    +0.146 C 
BRANCH  22  23
ATOM     23  O   UNL     1     -41.323  26.029   3.042  0.00  0.00    -0.334 OA
BRANCH  23  24
ATOM     24  C   UNL     1     -42.035  27.178   2.607  0.00  0.00    +0.248 C 
BRANCH  24  27
ATOM     25  O   UNL     1     -42.265  29.169   4.599  0.00  0.00    -0.252 OA
ATOM     26  O   UNL     1     -46.490  27.755   5.781  0.00  0.00    -0.270 OA
ATOM     27  N   UNL     1     -43.182  27.353   3.448  0.00  0.00    -0.215 N 
ATOM     28  N   UNL     1     -44.369  28.463   5.186  0.00  0.00    -0.236 N 
ATOM     29  C   UNL     1     -43.199  28.384   4.419  0.00  0.00    +0.316 C 
ATOM     30  C   UNL     1     -44.281  26.511   3.310  0.00  0.00    +0.076 C 
ATOM     31  C   UNL     1     -45.389  26.599   4.048  0.00  0.00    +0.074 C 
ATOM     32  C   UNL     1     -45.486  27.647   5.084  0.00  0.00    +0.254 C 
ATOM     33  H   UNL     1     -44.402  29.173   5.868  0.00  0.00    +0.159 HD
ENDBRANCH  24  27
ENDBRANCH  23  24
ENDBRANCH  22  23
ENDBRANCH  21  22
ENDBRANCH  20  21
ENDBRANCH   1  20
TORSDOF 11
ENDMDL
MODEL 9
REMARK VINA RESULT:      -6.4      1.713      3.868
REMARK  Name = 53630253
REMARK  11 active torsions:
REMARK  status: ('A' for Active; 'I' for Inactive)
REMARK    1  A    between atoms: S_1  and  N_4
REMARK    2  A    between atoms: S_1  and  C_20
REMARK    3  A    between atoms: N_4  and  C_6
REMARK    4  A    between atoms: C_6  and  C_9
REMARK    5  A    between atoms: C_8  and  O_14
REMARK    6  A    between atoms: O_14  and  C_15
REMARK    7  A    between atoms: C_20  and  C_21
REMARK    8  A    between atoms: C_21  and  C_22
REMARK    9  A    between atoms: C_22  and  O_23
REMARK   10  A    between atoms: O_23  and  C_24
REMARK   11  A    between atoms: C_24  and  N_27
REMARK                            x       y       z     vdW  Elec       q    Type
REMARK                         _______ _______ _______ _____ _____    ______ ____
ROOT
ATOM      1  S   UNL     1     -34.559  25.728   5.250  0.00  0.00    +0.041 S 
ATOM      2  O   UNL     1     -33.429  26.335   5.927  0.00  0.00    -0.157 OA
ATOM      3  O   UNL     1     -35.916  25.984   5.694  0.00  0.00    -0.157 OA
ENDROOT
BRANCH   1   4
ATOM      4  N   UNL     1     -34.351  24.048   5.151  0.00  0.00    -0.181 NA
ATOM      5  H   UNL     1     -33.709  23.780   5.897  0.00  0.00    +0.149 HD
BRANCH   4   6
ATOM      6  C   UNL     1     -35.559  23.171   5.270  0.00  0.00    +0.097 C 
ATOM      7  C   UNL     1     -35.284  22.137   6.371  0.00  0.00    +0.024 C 
BRANCH   6   9
ATOM      8  C   UNL     1     -37.220  22.581   1.926  0.00  0.00    +0.138 C 
ATOM      9  C   UNL     1     -35.947  22.537   3.978  0.00  0.00    -0.003 C 
ATOM     10  C   UNL     1     -36.857  23.174   3.134  0.00  0.00    +0.034 C 
ATOM     11  C   UNL     1     -36.673  21.350   1.560  0.00  0.00    +0.037 C 
ATOM     12  C   UNL     1     -35.400  21.306   3.613  0.00  0.00    -0.003 C 
ATOM     13  C   UNL     1     -35.763  20.714   2.404  0.00  0.00    +0.003 C 
BRANCH   8  14
ATOM     14  O   UNL     1     -38.115  23.207   1.097  0.00  0.00    -0.479 OA
BRANCH  14  15
ATOM     15  C   UNL     1     -38.851  24.278   1.650  0.00  0.00    +0.166 C 
ATOM     16  C   UNL     1     -38.864  25.489   0.730  0.00  0.00    +0.044 C 
ATOM     17  C   UNL     1     -40.326  23.929   1.758  0.00  0.00    +0.044 C 
ATOM     18  C   UNL     1     -40.082  26.285   1.181  0.00  0.00    +0.004 C 
ATOM     19  C   UNL     1     -41.019  25.282   1.858  0.00  0.00    +0.004 C 
ENDBRANCH  14  15
ENDBRANCH   8  14
ENDBRANCH   6   9
ENDBRANCH   4   6
ENDBRANCH   1   4
BRANCH   1  20
ATOM     20  C   UNL     1     -34.471  26.177   3.531  0.00  0.00    +0.171 C 
BRANCH  20  21
ATOM     21  C   UNL     1     -33.125  25.810   2.931  0.00  0.00    +0.059 C 
BRANCH  21  22
ATOM     22  C   UNL     1     -32.328  27.046   2.543  0.00  0.00    +0.146 C 
BRANCH  22  23
ATOM     23  O   UNL     1     -31.288  27.238   3.491  0.00  0.00    -0.334 OA
BRANCH  23  24
ATOM     24  C   UNL     1     -31.149  28.606   3.845  0.00  0.00    +0.248 C 
BRANCH  24  27
ATOM     25  O   UNL     1     -32.096  29.437   6.374  0.00  0.00    -0.252 OA
ATOM     26  O   UNL     1     -27.941  28.917   8.302  0.00  0.00    -0.270 OA
ATOM     27  N   UNL     1     -30.338  28.696   5.023  0.00  0.00    -0.215 N 
ATOM     28  N   UNL     1     -30.025  29.177   7.332  0.00  0.00    -0.236 N 
ATOM     29  C   UNL     1     -30.909  29.125   6.246  0.00  0.00    +0.316 C 
ATOM     30  C   UNL     1     -28.989  28.361   4.966  0.00  0.00    +0.076 C 
ATOM     31  C   UNL     1     -28.160  28.415   6.010  0.00  0.00    +0.074 C 
ATOM     32  C   UNL     1     -28.677  28.854   7.322  0.00  0.00    +0.254 C 
ATOM     33  H   UNL     1     -30.401  29.474   8.193  0.00  0.00    +0.159 HD
ENDBRANCH  24  27
ENDBRANCH  23  24
ENDBRANCH  22  23
ENDBRANCH  21  22
ENDBRANCH  20  21
ENDBRANCH   1  20
TORSDOF 11
ENDMDL
