MODEL 1
REMARK VINA RESULT:      -5.9      0.000      0.000
REMARK  Name = 195552
REMARK  8 active torsions:
REMARK  status: ('A' for Active; 'I' for Inactive)
REMARK    1  A    between atoms: C_1  and  C_8
REMARK    2  A    between atoms: C_2  and  C_20
REMARK    3  A    between atoms: C_4  and  C_26
REMARK    4  A    between atoms: C_5  and  O_17
REMARK    5  A    between atoms: C_9  and  N_16
REMARK    6  A    between atoms: C_20  and  O_21
REMARK    7  A    between atoms: O_21  and  C_22
REMARK    8  A    between atoms: C_26  and  O_27
REMARK                            x       y       z     vdW  Elec       q    Type
REMARK                         _______ _______ _______ _____ _____    ______ ____
ROOT
ATOM      1  C   UNL     1     -36.584  23.737   2.783  0.00  0.00    +0.017 C 
ATOM      2  C   UNL     1     -36.017  22.646   3.446  0.00  0.00    +0.072 C 
ATOM      3  C   UNL     1     -35.643  22.760   4.784  0.00  0.00    -0.013 C 
ATOM      4  C   UNL     1     -36.776  24.941   3.463  0.00  0.00    +0.109 C 
ATOM      5  C   UNL     1     -36.402  25.053   4.803  0.00  0.00    +0.140 C 
ATOM      6  C   UNL     1     -35.835  23.963   5.463  0.00  0.00    +0.033 C 
ATOM      7  C   UNL     1     -35.034  21.611   5.521  0.00  0.00    +0.031 C 
ENDROOT
BRANCH   1   8
ATOM      8  C   UNL     1     -36.974  23.620   1.389  0.00  0.00    +0.023 C 
ATOM      9  C   UNL     1     -38.224  23.121   1.022  0.00  0.00    +0.143 C 
ATOM     10  C   UNL     1     -36.066  24.019   0.409  0.00  0.00    +0.002 C 
ATOM     11  C   UNL     1     -38.567  23.021  -0.326  0.00  0.00    +0.024 C 
ATOM     12  C   UNL     1     -36.408  23.919  -0.940  0.00  0.00    +0.000 C 
ATOM     13  C   UNL     1     -37.659  23.420  -1.308  0.00  0.00    +0.002 C 
BRANCH   9  16
ATOM     14  O   UNL     1     -39.850  23.577   2.593  0.00  0.00    -0.126 OA
ATOM     15  O   UNL     1     -39.308  21.481   2.227  0.00  0.00    -0.126 OA
ATOM     16  N   UNL     1     -39.175  22.705   1.997  0.00  0.00    +0.058 N 
ENDBRANCH   9  16
ENDBRANCH   1   8
BRANCH   5  17
ATOM     17  O   UNL     1     -36.580  26.219   5.488  0.00  0.00    -0.505 OA
ATOM     18  H   UNL     1     -36.327  26.277   6.388  0.00  0.00    +0.292 HD
ENDBRANCH   5  17
BRANCH   2  20
ATOM     19  O   UNL     1     -36.586  20.422   2.806  0.00  0.00    -0.245 OA
ATOM     20  C   UNL     1     -35.808  21.378   2.752  0.00  0.00    +0.341 C 
BRANCH  20  21
ATOM     21  O   UNL     1     -34.643  21.388   2.040  0.00  0.00    -0.449 OA
BRANCH  21  22
ATOM     22  C   UNL     1     -34.526  20.425   0.988  0.00  0.00    +0.169 C 
ATOM     23  C   UNL     1     -33.933  21.095  -0.243  0.00  0.00    +0.047 C 
ATOM     24  C   UNL     1     -33.671  19.261   1.466  0.00  0.00    +0.047 C 
ENDBRANCH  21  22
ENDBRANCH  20  21
ENDBRANCH   2  20
BRANCH   4  26
ATOM     25  O   UNL     1     -38.582  26.287   2.682  0.00  0.00    -0.245 OA
ATOM     26  C   UNL     1     -37.367  26.097   2.795  0.00  0.00    +0.344 C 
BRANCH  26  27
ATOM     27  O   UNL     1     -36.405  26.940   2.316  0.00  0.00    -0.441 OA
ATOM     28  C   UNL     1     -36.748  27.716   1.164  0.00  0.00    +0.256 C 
ENDBRANCH  26  27
ENDBRANCH   4  26
TORSDOF 8
ENDMDL
MODEL 2
REMARK VINA RESULT:      -5.7      1.710      4.539
REMARK  Name = 195552
REMARK  8 active torsions:
REMARK  status: ('A' for Active; 'I' for Inactive)
REMARK    1  A    between atoms: C_1  and  C_8
REMARK    2  A    between atoms: C_2  and  C_20
REMARK    3  A    between atoms: C_4  and  C_26
REMARK    4  A    between atoms: C_5  and  O_17
REMARK    5  A    between atoms: C_9  and  N_16
REMARK    6  A    between atoms: C_20  and  O_21
REMARK    7  A    between atoms: O_21  and  C_22
REMARK    8  A    between atoms: C_26  and  O_27
REMARK                            x       y       z     vdW  Elec       q    Type
REMARK                         _______ _______ _______ _____ _____    ______ ____
ROOT
ATOM      1  C   UNL     1     -35.681  23.164   2.991  0.00  0.00    +0.017 C 
ATOM      2  C   UNL     1     -35.576  24.334   3.747  0.00  0.00    +0.072 C 
ATOM      3  C   UNL     1     -35.383  24.261   5.126  0.00  0.00    -0.013 C 
ATOM      4  C   UNL     1     -35.593  21.921   3.619  0.00  0.00    +0.109 C 
ATOM      5  C   UNL     1     -35.400  21.848   4.999  0.00  0.00    +0.140 C 
ATOM      6  C   UNL     1     -35.295  23.017   5.752  0.00  0.00    +0.033 C 
ATOM      7  C   UNL     1     -35.266  25.494   5.961  0.00  0.00    +0.031 C 
ENDROOT
BRANCH   1   8
ATOM      8  C   UNL     1     -35.882  23.240   1.555  0.00  0.00    +0.023 C 
ATOM      9  C   UNL     1     -37.160  23.312   1.001  0.00  0.00    +0.143 C 
ATOM     10  C   UNL     1     -34.761  23.239   0.725  0.00  0.00    +0.002 C 
ATOM     11  C   UNL     1     -37.317  23.384  -0.383  0.00  0.00    +0.024 C 
ATOM     12  C   UNL     1     -34.917  23.310  -0.659  0.00  0.00    +0.000 C 
ATOM     13  C   UNL     1     -36.196  23.382  -1.213  0.00  0.00    +0.002 C 
BRANCH   9  16
ATOM     14  O   UNL     1     -38.803  24.417   2.184  0.00  0.00    -0.126 OA
ATOM     15  O   UNL     1     -38.838  22.222   2.145  0.00  0.00    -0.126 OA
ATOM     16  N   UNL     1     -38.326  23.317   1.818  0.00  0.00    +0.058 N 
ENDBRANCH   9  16
ENDBRANCH   1   8
BRANCH   5  17
ATOM     17  O   UNL     1     -35.310  20.644   5.634  0.00  0.00    -0.505 OA
ATOM     18  H   UNL     1     -34.521  20.142   5.577  0.00  0.00    +0.292 HD
ENDBRANCH   5  17
BRANCH   2  20
ATOM     19  O   UNL     1     -36.715  26.280   2.973  0.00  0.00    -0.245 OA
ATOM     20  C   UNL     1     -35.665  25.645   3.109  0.00  0.00    +0.341 C 
BRANCH  20  21
ATOM     21  O   UNL     1     -34.441  26.075   2.685  0.00  0.00    -0.449 OA
BRANCH  21  22
ATOM     22  C   UNL     1     -34.092  27.428   2.999  0.00  0.00    +0.169 C 
ATOM     23  C   UNL     1     -32.852  27.434   3.880  0.00  0.00    +0.047 C 
ATOM     24  C   UNL     1     -33.873  28.202   1.707  0.00  0.00    +0.047 C 
ENDBRANCH  21  22
ENDBRANCH  20  21
ENDBRANCH   2  20
BRANCH   4  26
ATOM     25  O   UNL     1     -36.756  20.238   2.395  0.00  0.00    -0.245 OA
ATOM     26  C   UNL     1     -35.700  20.681   2.854  0.00  0.00    +0.344 C 
BRANCH  26  27
ATOM     27  O   UNL     1     -34.482  20.080   2.711  0.00  0.00    -0.441 OA
ATOM     28  C   UNL     1     -34.174  19.556   1.416  0.00  0.00    +0.256 C 
ENDBRANCH  26  27
ENDBRANCH   4  26
TORSDOF 8
ENDMDL
MODEL 3
REMARK VINA RESULT:      -5.6      1.970      4.655
REMARK  Name = 195552
REMARK  8 active torsions:
REMARK  status: ('A' for Active; 'I' for Inactive)
REMARK    1  A    between atoms: C_1  and  C_8
REMARK    2  A    between atoms: C_2  and  C_20
REMARK    3  A    between atoms: C_4  and  C_26
REMARK    4  A    between atoms: C_5  and  O_17
REMARK    5  A    between atoms: C_9  and  N_16
REMARK    6  A    between atoms: C_20  and  O_21
REMARK    7  A    between atoms: O_21  and  C_22
REMARK    8  A    between atoms: C_26  and  O_27
REMARK                            x       y       z     vdW  Elec       q    Type
REMARK                         _______ _______ _______ _____ _____    ______ ____
ROOT
ATOM      1  C   UNL     1     -35.655  23.455   2.926  0.00  0.00    +0.017 C 
ATOM      2  C   UNL     1     -35.418  23.463   4.302  0.00  0.00    +0.072 C 
ATOM      3  C   UNL     1     -35.268  22.262   4.994  0.00  0.00    -0.013 C 
ATOM      4  C   UNL     1     -35.742  22.240   2.244  0.00  0.00    +0.109 C 
ATOM      5  C   UNL     1     -35.592  21.037   2.936  0.00  0.00    +0.140 C 
ATOM      6  C   UNL     1     -35.356  21.048   4.310  0.00  0.00    +0.033 C 
ATOM      7  C   UNL     1     -35.014  22.238   6.466  0.00  0.00    +0.031 C 
ENDROOT
BRANCH   1   8
ATOM      8  C   UNL     1     -35.811  24.706   2.206  0.00  0.00    +0.023 C 
ATOM      9  C   UNL     1     -37.068  25.273   1.995  0.00  0.00    +0.143 C 
ATOM     10  C   UNL     1     -34.669  25.340   1.719  0.00  0.00    +0.002 C 
ATOM     11  C   UNL     1     -37.183  26.476   1.299  0.00  0.00    +0.024 C 
ATOM     12  C   UNL     1     -34.782  26.543   1.022  0.00  0.00    +0.000 C 
ATOM     13  C   UNL     1     -36.040  27.111   0.812  0.00  0.00    +0.002 C 
BRANCH   9  16
ATOM     14  O   UNL     1     -38.555  24.783   3.689  0.00  0.00    -0.126 OA
ATOM     15  O   UNL     1     -38.962  23.997   1.680  0.00  0.00    -0.126 OA
ATOM     16  N   UNL     1     -38.255  24.653   2.479  0.00  0.00    +0.058 N 
ENDBRANCH   9  16
ENDBRANCH   1   8
BRANCH   5  17
ATOM     17  O   UNL     1     -35.672  19.839   2.290  0.00  0.00    -0.505 OA
ATOM     18  H   UNL     1     -35.676  19.811   1.353  0.00  0.00    +0.292 HD
ENDBRANCH   5  17
BRANCH   2  20
ATOM     19  O   UNL     1     -36.285  25.296   5.557  0.00  0.00    -0.245 OA
ATOM     20  C   UNL     1     -35.324  24.724   5.036  0.00  0.00    +0.341 C 
BRANCH  20  21
ATOM     21  O   UNL     1     -34.038  25.183   5.068  0.00  0.00    -0.449 OA
BRANCH  21  22
ATOM     22  C   UNL     1     -33.861  26.569   5.381  0.00  0.00    +0.169 C 
ATOM     23  C   UNL     1     -33.156  26.694   6.723  0.00  0.00    +0.047 C 
ATOM     24  C   UNL     1     -33.073  27.237   4.264  0.00  0.00    +0.047 C 
ENDBRANCH  21  22
ENDBRANCH  20  21
ENDBRANCH   2  20
BRANCH   4  26
ATOM     25  O   UNL     1     -35.166  22.540  -0.050  0.00  0.00    -0.245 OA
ATOM     26  C   UNL     1     -35.990  22.201   0.805  0.00  0.00    +0.344 C 
BRANCH  26  27
ATOM     27  O   UNL     1     -37.245  21.739   0.529  0.00  0.00    -0.441 OA
ATOM     28  C   UNL     1     -37.673  21.823  -0.834  0.00  0.00    +0.256 C 
ENDBRANCH  26  27
ENDBRANCH   4  26
TORSDOF 8
ENDMDL
MODEL 4
REMARK VINA RESULT:      -5.4      2.717      4.620
REMARK  Name = 195552
REMARK  8 active torsions:
REMARK  status: ('A' for Active; 'I' for Inactive)
REMARK    1  A    between atoms: C_1  and  C_8
REMARK    2  A    between atoms: C_2  and  C_20
REMARK    3  A    between atoms: C_4  and  C_26
REMARK    4  A    between atoms: C_5  and  O_17
REMARK    5  A    between atoms: C_9  and  N_16
REMARK    6  A    between atoms: C_20  and  O_21
REMARK    7  A    between atoms: O_21  and  C_22
REMARK    8  A    between atoms: C_26  and  O_27
REMARK                            x       y       z     vdW  Elec       q    Type
REMARK                         _______ _______ _______ _____ _____    ______ ____
ROOT
ATOM      1  C   UNL     1     -35.028  24.198   3.191  0.00  0.00    +0.017 C 
ATOM      2  C   UNL     1     -34.429  25.225   3.923  0.00  0.00    +0.072 C 
ATOM      3  C   UNL     1     -34.425  25.180   5.317  0.00  0.00    -0.013 C 
ATOM      4  C   UNL     1     -35.622  23.125   3.857  0.00  0.00    +0.109 C 
ATOM      5  C   UNL     1     -35.617  23.079   5.252  0.00  0.00    +0.140 C 
ATOM      6  C   UNL     1     -35.019  24.106   5.981  0.00  0.00    +0.033 C 
ATOM      7  C   UNL     1     -33.793  26.263   6.129  0.00  0.00    +0.031 C 
ENDROOT
BRANCH   1   8
ATOM      8  C   UNL     1     -35.033  24.245   1.740  0.00  0.00    +0.023 C 
ATOM      9  C   UNL     1     -36.037  24.908   1.036  0.00  0.00    +0.143 C 
ATOM     10  C   UNL     1     -34.003  23.605   1.050  0.00  0.00    +0.002 C 
ATOM     11  C   UNL     1     -36.012  24.934  -0.359  0.00  0.00    +0.024 C 
ATOM     12  C   UNL     1     -33.977  23.630  -0.345  0.00  0.00    +0.000 C 
ATOM     13  C   UNL     1     -34.982  24.295  -1.049  0.00  0.00    +0.002 C 
BRANCH   9  16
ATOM     14  O   UNL     1     -38.106  24.906   2.056  0.00  0.00    -0.126 OA
ATOM     15  O   UNL     1     -37.005  26.801   1.930  0.00  0.00    -0.126 OA
ATOM     16  N   UNL     1     -37.103  25.572   1.708  0.00  0.00    +0.058 N 
ENDBRANCH   9  16
ENDBRANCH   1   8
BRANCH   5  17
ATOM     17  O   UNL     1     -36.191  22.040   5.924  0.00  0.00    -0.505 OA
ATOM     18  H   UNL     1     -35.698  21.568   6.566  0.00  0.00    +0.292 HD
ENDBRANCH   5  17
BRANCH   2  20
ATOM     19  O   UNL     1     -34.383  27.412   2.975  0.00  0.00    -0.245 OA
ATOM     20  C   UNL     1     -33.802  26.357   3.246  0.00  0.00    +0.341 C 
BRANCH  20  21
ATOM     21  O   UNL     1     -32.494  26.098   2.953  0.00  0.00    -0.449 OA
BRANCH  21  22
ATOM     22  C   UNL     1     -31.846  27.004   2.055  0.00  0.00    +0.169 C 
ATOM     23  C   UNL     1     -30.684  27.676   2.772  0.00  0.00    +0.047 C 
ATOM     24  C   UNL     1     -31.385  26.244   0.821  0.00  0.00    +0.047 C 
ENDBRANCH  21  22
ENDBRANCH  20  21
ENDBRANCH   2  20
BRANCH   4  26
ATOM     25  O   UNL     1     -37.377  22.105   2.606  0.00  0.00    -0.245 OA
ATOM     26  C   UNL     1     -36.255  22.036   3.117  0.00  0.00    +0.344 C 
BRANCH  26  27
ATOM     27  O   UNL     1     -35.447  20.937   3.062  0.00  0.00    -0.441 OA
ATOM     28  C   UNL     1     -35.377  20.254   1.806  0.00  0.00    +0.256 C 
ENDBRANCH  26  27
ENDBRANCH   4  26
TORSDOF 8
ENDMDL
MODEL 5
REMARK VINA RESULT:      -5.4      1.965      2.546
REMARK  Name = 195552
REMARK  8 active torsions:
REMARK  status: ('A' for Active; 'I' for Inactive)
REMARK    1  A    between atoms: C_1  and  C_8
REMARK    2  A    between atoms: C_2  and  C_20
REMARK    3  A    between atoms: C_4  and  C_26
REMARK    4  A    between atoms: C_5  and  O_17
REMARK    5  A    between atoms: C_9  and  N_16
REMARK    6  A    between atoms: C_20  and  O_21
REMARK    7  A    between atoms: O_21  and  C_22
REMARK    8  A    between atoms: C_26  and  O_27
REMARK                            x       y       z     vdW  Elec       q    Type
REMARK                         _______ _______ _______ _____ _____    ______ ____
ROOT
ATOM      1  C   UNL     1     -34.974  24.769   3.053  0.00  0.00    +0.017 C 
ATOM      2  C   UNL     1     -35.313  23.587   3.715  0.00  0.00    +0.072 C 
ATOM      3  C   UNL     1     -35.142  23.485   5.095  0.00  0.00    -0.013 C 
ATOM      4  C   UNL     1     -34.463  25.848   3.776  0.00  0.00    +0.109 C 
ATOM      5  C   UNL     1     -34.292  25.745   5.157  0.00  0.00    +0.140 C 
ATOM      6  C   UNL     1     -34.631  24.564   5.817  0.00  0.00    +0.033 C 
ATOM      7  C   UNL     1     -35.496  22.234   5.832  0.00  0.00    +0.031 C 
ENDROOT
BRANCH   1   8
ATOM      8  C   UNL     1     -35.152  24.876   1.616  0.00  0.00    +0.023 C 
ATOM      9  C   UNL     1     -36.340  25.353   1.063  0.00  0.00    +0.143 C 
ATOM     10  C   UNL     1     -34.101  24.488   0.785  0.00  0.00    +0.002 C 
ATOM     11  C   UNL     1     -36.478  25.442  -0.322  0.00  0.00    +0.024 C 
ATOM     12  C   UNL     1     -34.238  24.577  -0.600  0.00  0.00    +0.000 C 
ATOM     13  C   UNL     1     -35.427  25.055  -1.154  0.00  0.00    +0.002 C 
BRANCH   9  16
ATOM     14  O   UNL     1     -37.545  26.969   2.183  0.00  0.00    -0.126 OA
ATOM     15  O   UNL     1     -38.246  24.891   2.275  0.00  0.00    -0.126 OA
ATOM     16  N   UNL     1     -37.432  25.758   1.881  0.00  0.00    +0.058 N 
ENDBRANCH   9  16
ENDBRANCH   1   8
BRANCH   5  17
ATOM     17  O   UNL     1     -33.795  26.787   5.884  0.00  0.00    -0.505 OA
ATOM     18  H   UNL     1     -33.099  26.642   6.495  0.00  0.00    +0.292 HD
ENDBRANCH   5  17
BRANCH   2  20
ATOM     19  O   UNL     1     -37.054  22.208   2.847  0.00  0.00    -0.245 OA
ATOM     20  C   UNL     1     -35.850  22.445   2.977  0.00  0.00    +0.341 C 
BRANCH  20  21
ATOM     21  O   UNL     1     -34.849  21.680   2.453  0.00  0.00    -0.449 OA
BRANCH  21  22
ATOM     22  C   UNL     1     -35.245  20.614   1.583  0.00  0.00    +0.169 C 
ATOM     23  C   UNL     1     -35.474  21.167   0.184  0.00  0.00    +0.047 C 
ATOM     24  C   UNL     1     -34.176  19.532   1.596  0.00  0.00    +0.047 C 
ENDBRANCH  21  22
ENDBRANCH  20  21
ENDBRANCH   2  20
BRANCH   4  26
ATOM     25  O   UNL     1     -33.138  27.220   2.346  0.00  0.00    -0.245 OA
ATOM     26  C   UNL     1     -34.099  27.096   3.110  0.00  0.00    +0.344 C 
BRANCH  26  27
ATOM     27  O   UNL     1     -34.960  28.104   3.440  0.00  0.00    -0.441 OA
ATOM     28  C   UNL     1     -34.910  29.281   2.629  0.00  0.00    +0.256 C 
ENDBRANCH  26  27
ENDBRANCH   4  26
TORSDOF 8
ENDMDL
MODEL 6
REMARK VINA RESULT:      -5.3      3.061      6.144
REMARK  Name = 195552
REMARK  8 active torsions:
REMARK  status: ('A' for Active; 'I' for Inactive)
REMARK    1  A    between atoms: C_1  and  C_8
REMARK    2  A    between atoms: C_2  and  C_20
REMARK    3  A    between atoms: C_4  and  C_26
REMARK    4  A    between atoms: C_5  and  O_17
REMARK    5  A    between atoms: C_9  and  N_16
REMARK    6  A    between atoms: C_20  and  O_21
REMARK    7  A    between atoms: O_21  and  C_22
REMARK    8  A    between atoms: C_26  and  O_27
REMARK                            x       y       z     vdW  Elec       q    Type
REMARK                         _______ _______ _______ _____ _____    ______ ____
ROOT
ATOM      1  C   UNL     1     -35.485  26.884   2.792  0.00  0.00    +0.017 C 
ATOM      2  C   UNL     1     -34.417  27.782   2.847  0.00  0.00    +0.072 C 
ATOM      3  C   UNL     1     -34.452  28.957   2.097  0.00  0.00    -0.013 C 
ATOM      4  C   UNL     1     -36.589  27.165   1.984  0.00  0.00    +0.109 C 
ATOM      5  C   UNL     1     -36.624  28.342   1.234  0.00  0.00    +0.140 C 
ATOM      6  C   UNL     1     -35.556  29.237   1.290  0.00  0.00    +0.033 C 
ATOM      7  C   UNL     1     -33.326  29.938   2.134  0.00  0.00    +0.031 C 
ENDROOT
BRANCH   1   8
ATOM      8  C   UNL     1     -35.449  25.661   3.573  0.00  0.00    +0.023 C 
ATOM      9  C   UNL     1     -35.014  24.456   3.020  0.00  0.00    +0.143 C 
ATOM     10  C   UNL     1     -35.864  25.708   4.904  0.00  0.00    +0.002 C 
ATOM     11  C   UNL     1     -34.993  23.299   3.798  0.00  0.00    +0.024 C 
ATOM     12  C   UNL     1     -35.843  24.551   5.682  0.00  0.00    +0.000 C 
ATOM     13  C   UNL     1     -35.407  23.346   5.129  0.00  0.00    +0.002 C 
BRANCH   9  16
ATOM     14  O   UNL     1     -33.449  24.812   1.363  0.00  0.00    -0.126 OA
ATOM     15  O   UNL     1     -35.352  23.861   0.818  0.00  0.00    -0.126 OA
ATOM     16  N   UNL     1     -34.584  24.372   1.665  0.00  0.00    +0.058 N 
ENDBRANCH   9  16
ENDBRANCH   1   8
BRANCH   5  17
ATOM     17  O   UNL     1     -37.692  28.637   0.439  0.00  0.00    -0.505 OA
ATOM     18  H   UNL     1     -38.353  29.227   0.743  0.00  0.00    +0.292 HD
ENDBRANCH   5  17
BRANCH   2  20
ATOM     19  O   UNL     1     -32.313  26.782   3.350  0.00  0.00    -0.245 OA
ATOM     20  C   UNL     1     -33.253  27.507   3.686  0.00  0.00    +0.341 C 
BRANCH  20  21
ATOM     21  O   UNL     1     -33.341  28.156   4.884  0.00  0.00    -0.449 OA
BRANCH  21  22
ATOM     22  C   UNL     1     -32.291  27.908   5.825  0.00  0.00    +0.169 C 
ATOM     23  C   UNL     1     -31.788  29.234   6.376  0.00  0.00    +0.047 C 
ATOM     24  C   UNL     1     -32.811  26.998   6.928  0.00  0.00    +0.047 C 
ENDBRANCH  21  22
ENDBRANCH  20  21
ENDBRANCH   2  20
BRANCH   4  26
ATOM     25  O   UNL     1     -37.887  25.424   1.000  0.00  0.00    -0.245 OA
ATOM     26  C   UNL     1     -37.720  26.244   1.907  0.00  0.00    +0.344 C 
BRANCH  26  27
ATOM     27  O   UNL     1     -38.565  26.407   2.968  0.00  0.00    -0.441 OA
ATOM     28  C   UNL     1     -39.493  25.346   3.216  0.00  0.00    +0.256 C 
ENDBRANCH  26  27
ENDBRANCH   4  26
TORSDOF 8
ENDMDL
MODEL 7
REMARK VINA RESULT:      -5.2      1.595      4.965
REMARK  Name = 195552
REMARK  8 active torsions:
REMARK  status: ('A' for Active; 'I' for Inactive)
REMARK    1  A    between atoms: C_1  and  C_8
REMARK    2  A    between atoms: C_2  and  C_20
REMARK    3  A    between atoms: C_4  and  C_26
REMARK    4  A    between atoms: C_5  and  O_17
REMARK    5  A    between atoms: C_9  and  N_16
REMARK    6  A    between atoms: C_20  and  O_21
REMARK    7  A    between atoms: O_21  and  C_22
REMARK    8  A    between atoms: C_26  and  O_27
REMARK                            x       y       z     vdW  Elec       q    Type
REMARK                         _______ _______ _______ _____ _____    ______ ____
ROOT
ATOM      1  C   UNL     1     -36.289  23.232   2.830  0.00  0.00    +0.017 C 
ATOM      2  C   UNL     1     -36.315  24.391   3.608  0.00  0.00    +0.072 C 
ATOM      3  C   UNL     1     -35.920  24.345   4.945  0.00  0.00    -0.013 C 
ATOM      4  C   UNL     1     -35.867  22.026   3.393  0.00  0.00    +0.109 C 
ATOM      5  C   UNL     1     -35.472  21.980   4.730  0.00  0.00    +0.140 C 
ATOM      6  C   UNL     1     -35.498  23.139   5.506  0.00  0.00    +0.033 C 
ATOM      7  C   UNL     1     -35.936  25.568   5.803  0.00  0.00    +0.031 C 
ENDROOT
BRANCH   1   8
ATOM      8  C   UNL     1     -36.700  23.279   1.438  0.00  0.00    +0.023 C 
ATOM      9  C   UNL     1     -35.770  23.414   0.408  0.00  0.00    +0.143 C 
ATOM     10  C   UNL     1     -38.060  23.188   1.143  0.00  0.00    +0.002 C 
ATOM     11  C   UNL     1     -36.198  23.457  -0.919  0.00  0.00    +0.024 C 
ATOM     12  C   UNL     1     -38.490  23.231  -0.184  0.00  0.00    +0.000 C 
ATOM     13  C   UNL     1     -37.558  23.365  -1.215  0.00  0.00    +0.002 C 
BRANCH   9  16
ATOM     14  O   UNL     1     -33.641  22.526   0.414  0.00  0.00    -0.126 OA
ATOM     15  O   UNL     1     -33.922  24.572   1.158  0.00  0.00    -0.126 OA
ATOM     16  N   UNL     1     -34.374  23.509   0.674  0.00  0.00    +0.058 N 
ENDBRANCH   9  16
ENDBRANCH   1   8
BRANCH   5  17
ATOM     17  O   UNL     1     -35.055  20.814   5.301  0.00  0.00    -0.505 OA
ATOM     18  H   UNL     1     -34.252  20.418   5.025  0.00  0.00    +0.292 HD
ENDBRANCH   5  17
BRANCH   2  20
ATOM     19  O   UNL     1     -37.926  26.047   3.020  0.00  0.00    -0.245 OA
ATOM     20  C   UNL     1     -36.753  25.663   3.039  0.00  0.00    +0.341 C 
BRANCH  20  21
ATOM     21  O   UNL     1     -35.700  26.369   2.533  0.00  0.00    -0.449 OA
BRANCH  21  22
ATOM     22  C   UNL     1     -36.018  27.539   1.773  0.00  0.00    +0.169 C 
ATOM     23  C   UNL     1     -35.015  28.636   2.096  0.00  0.00    +0.047 C 
ATOM     24  C   UNL     1     -36.019  27.191   0.292  0.00  0.00    +0.047 C 
ENDBRANCH  21  22
ENDBRANCH  20  21
ENDBRANCH   2  20
BRANCH   4  26
ATOM     25  O   UNL     1     -36.824  20.264   2.103  0.00  0.00    -0.245 OA
ATOM     26  C   UNL     1     -35.830  20.798   2.603  0.00  0.00    +0.344 C 
BRANCH  26  27
ATOM     27  O   UNL     1     -34.556  20.321   2.487  0.00  0.00    -0.441 OA
ATOM     28  C   UNL     1     -34.301  19.432   1.394  0.00  0.00    +0.256 C 
ENDBRANCH  26  27
ENDBRANCH   4  26
TORSDOF 8
ENDMDL
MODEL 8
REMARK VINA RESULT:      -5.1      1.353      2.240
REMARK  Name = 195552
REMARK  8 active torsions:
REMARK  status: ('A' for Active; 'I' for Inactive)
REMARK    1  A    between atoms: C_1  and  C_8
REMARK    2  A    between atoms: C_2  and  C_20
REMARK    3  A    between atoms: C_4  and  C_26
REMARK    4  A    between atoms: C_5  and  O_17
REMARK    5  A    between atoms: C_9  and  N_16
REMARK    6  A    between atoms: C_20  and  O_21
REMARK    7  A    between atoms: O_21  and  C_22
REMARK    8  A    between atoms: C_26  and  O_27
REMARK                            x       y       z     vdW  Elec       q    Type
REMARK                         _______ _______ _______ _____ _____    ______ ____
ROOT
ATOM      1  C   UNL     1     -36.873  23.541   2.835  0.00  0.00    +0.017 C 
ATOM      2  C   UNL     1     -36.143  22.535   3.472  0.00  0.00    +0.072 C 
ATOM      3  C   UNL     1     -35.598  22.760   4.735  0.00  0.00    -0.013 C 
ATOM      4  C   UNL     1     -37.056  24.772   3.466  0.00  0.00    +0.109 C 
ATOM      5  C   UNL     1     -36.510  24.997   4.731  0.00  0.00    +0.140 C 
ATOM      6  C   UNL     1     -35.781  23.991   5.365  0.00  0.00    +0.033 C 
ATOM      7  C   UNL     1     -34.812  21.704   5.442  0.00  0.00    +0.031 C 
ENDROOT
BRANCH   1   8
ATOM      8  C   UNL     1     -37.441  23.307   1.519  0.00  0.00    +0.023 C 
ATOM      9  C   UNL     1     -36.785  23.718   0.359  0.00  0.00    +0.143 C 
ATOM     10  C   UNL     1     -38.672  22.657   1.432  0.00  0.00    +0.002 C 
ATOM     11  C   UNL     1     -37.359  23.479  -0.889  0.00  0.00    +0.024 C 
ATOM     12  C   UNL     1     -39.247  22.417   0.183  0.00  0.00    +0.000 C 
ATOM     13  C   UNL     1     -38.590  22.828  -0.978  0.00  0.00    +0.002 C 
BRANCH   9  16
ATOM     14  O   UNL     1     -35.495  25.628   0.261  0.00  0.00    -0.126 OA
ATOM     15  O   UNL     1     -34.492  23.705   0.607  0.00  0.00    -0.126 OA
ATOM     16  N   UNL     1     -35.527  24.384   0.411  0.00  0.00    +0.058 N 
ENDBRANCH   9  16
ENDBRANCH   1   8
BRANCH   5  17
ATOM     17  O   UNL     1     -36.677  26.192   5.367  0.00  0.00    -0.505 OA
ATOM     18  H   UNL     1     -37.436  26.339   5.896  0.00  0.00    +0.292 HD
ENDBRANCH   5  17
BRANCH   2  20
ATOM     19  O   UNL     1     -36.669  20.258   3.000  0.00  0.00    -0.245 OA
ATOM     20  C   UNL     1     -35.940  21.239   2.828  0.00  0.00    +0.341 C 
BRANCH  20  21
ATOM     21  O   UNL     1     -34.843  21.255   2.016  0.00  0.00    -0.449 OA
BRANCH  21  22
ATOM     22  C   UNL     1     -34.671  20.129   1.149  0.00  0.00    +0.169 C 
ATOM     23  C   UNL     1     -35.384  20.396  -0.168  0.00  0.00    +0.047 C 
ATOM     24  C   UNL     1     -33.184  19.875   0.947  0.00  0.00    +0.047 C 
ENDBRANCH  21  22
ENDBRANCH  20  21
ENDBRANCH   2  20
BRANCH   4  26
ATOM     25  O   UNL     1     -37.303  26.808   2.250  0.00  0.00    -0.245 OA
ATOM     26  C   UNL     1     -37.815  25.843   2.824  0.00  0.00    +0.344 C 
BRANCH  26  27
ATOM     27  O   UNL     1     -39.159  25.636   2.939  0.00  0.00    -0.441 OA
ATOM     28  C   UNL     1     -39.975  26.106   1.860  0.00  0.00    +0.256 C 
ENDBRANCH  26  27
ENDBRANCH   4  26
TORSDOF 8
ENDMDL
MODEL 9
REMARK VINA RESULT:      -5.1      2.138      4.192
REMARK  Name = 195552
REMARK  8 active torsions:
REMARK  status: ('A' for Active; 'I' for Inactive)
REMARK    1  A    between atoms: C_1  and  C_8
REMARK    2  A    between atoms: C_2  and  C_20
REMARK    3  A    between atoms: C_4  and  C_26
REMARK    4  A    between atoms: C_5  and  O_17
REMARK    5  A    between atoms: C_9  and  N_16
REMARK    6  A    between atoms: C_20  and  O_21
REMARK    7  A    between atoms: O_21  and  C_22
REMARK    8  A    between atoms: C_26  and  O_27
REMARK                            x       y       z     vdW  Elec       q    Type
REMARK                         _______ _______ _______ _____ _____    ______ ____
ROOT
ATOM      1  C   UNL     1     -36.946  22.483   2.321  0.00  0.00    +0.017 C 
ATOM      2  C   UNL     1     -36.601  21.244   1.776  0.00  0.00    +0.072 C 
ATOM      3  C   UNL     1     -37.519  20.545   0.993  0.00  0.00    -0.013 C 
ATOM      4  C   UNL     1     -38.212  23.020   2.080  0.00  0.00    +0.109 C 
ATOM      5  C   UNL     1     -39.129  22.321   1.296  0.00  0.00    +0.140 C 
ATOM      6  C   UNL     1     -38.783  21.084   0.752  0.00  0.00    +0.033 C 
ATOM      7  C   UNL     1     -37.179  19.218   0.395  0.00  0.00    +0.031 C 
ENDROOT
BRANCH   1   8
ATOM      8  C   UNL     1     -35.991  23.211   3.137  0.00  0.00    +0.023 C 
ATOM      9  C   UNL     1     -35.094  24.119   2.574  0.00  0.00    +0.143 C 
ATOM     10  C   UNL     1     -35.983  22.985   4.514  0.00  0.00    +0.002 C 
ATOM     11  C   UNL     1     -34.190  24.802   3.387  0.00  0.00    +0.024 C 
ATOM     12  C   UNL     1     -35.078  23.668   5.327  0.00  0.00    +0.000 C 
ATOM     13  C   UNL     1     -34.181  24.576   4.763  0.00  0.00    +0.002 C 
BRANCH   9  16
ATOM     14  O   UNL     1     -35.805  25.285   0.715  0.00  0.00    -0.126 OA
ATOM     15  O   UNL     1     -34.330  23.681   0.443  0.00  0.00    -0.126 OA
ATOM     16  N   UNL     1     -35.075  24.375   1.173  0.00  0.00    +0.058 N 
ENDBRANCH   9  16
ENDBRANCH   1   8
BRANCH   5  17
ATOM     17  O   UNL     1     -40.371  22.826   1.046  0.00  0.00    -0.505 OA
ATOM     18  H   UNL     1     -40.540  23.278   0.243  0.00  0.00    +0.292 HD
ENDBRANCH   5  17
BRANCH   2  20
ATOM     19  O   UNL     1     -34.924  20.177   3.093  0.00  0.00    -0.245 OA
ATOM     20  C   UNL     1     -35.282  20.664   2.017  0.00  0.00    +0.341 C 
BRANCH  20  21
ATOM     21  O   UNL     1     -34.500  20.730   0.899  0.00  0.00    -0.449 OA
BRANCH  21  22
ATOM     22  C   UNL     1     -33.294  19.960   0.914  0.00  0.00    +0.169 C 
ATOM     23  C   UNL     1     -33.602  18.536   0.475  0.00  0.00    +0.047 C 
ATOM     24  C   UNL     1     -32.265  20.621   0.010  0.00  0.00    +0.047 C 
ENDBRANCH  21  22
ENDBRANCH  20  21
ENDBRANCH   2  20
BRANCH   4  26
ATOM     25  O   UNL     1     -38.878  24.502   3.825  0.00  0.00    -0.245 OA
ATOM     26  C   UNL     1     -38.599  24.314   2.637  0.00  0.00    +0.344 C 
BRANCH  26  27
ATOM     27  O   UNL     1     -38.612  25.284   1.677  0.00  0.00    -0.441 OA
ATOM     28  C   UNL     1     -39.722  26.188   1.694  0.00  0.00    +0.256 C 
ENDBRANCH  26  27
ENDBRANCH   4  26
TORSDOF 8
ENDMDL
