MODEL 1
REMARK VINA RESULT:      -7.1      0.000      0.000
REMARK  Name = 198218
REMARK  8 active torsions:
REMARK  status: ('A' for Active; 'I' for Inactive)
REMARK    1  A    between atoms: C_1  and  C_7
REMARK    2  A    between atoms: C_1  and  C_21
REMARK    3  A    between atoms: C_1  and  C_30
REMARK    4  A    between atoms: C_1  and  C_33
REMARK    5  A    between atoms: N_4  and  C_10
REMARK    6  A    between atoms: N_18  and  C_24
REMARK    7  A    between atoms: C_30  and  C_31
REMARK    8  A    between atoms: C_33  and  C_34
REMARK                            x       y       z     vdW  Elec       q    Type
REMARK                         _______ _______ _______ _____ _____    ______ ____
ROOT
ATOM      1  C   UNL     1     -35.661  24.389   3.791  0.00  0.00    +0.146 C 
ENDROOT
BRANCH   1   7
ATOM      2  O   UNL     1     -32.825  27.423   2.215  0.00  0.00    -0.252 OA
ATOM      3  O   UNL     1     -34.528  25.265   1.811  0.00  0.00    -0.274 OA
ATOM      4  N   UNL     1     -32.809  28.129   4.429  0.00  0.00    -0.290 N 
ATOM      5  N   UNL     1     -34.141  26.353   3.817  0.00  0.00    -0.239 N 
ATOM      6  C   UNL     1     -33.219  27.315   3.375  0.00  0.00    +0.306 C 
ATOM      7  C   UNL     1     -34.746  25.382   3.018  0.00  0.00    +0.237 C 
ATOM      8  H   UNL     1     -33.184  27.958   5.323  0.00  0.00    +0.151 HD
ATOM      9  H   UNL     1     -34.381  26.365   4.771  0.00  0.00    +0.159 HD
BRANCH   4  10
ATOM     10  C   UNL     1     -31.862  29.211   4.279  0.00  0.00    +0.073 C 
ATOM     11  C   UNL     1     -32.130  30.324   5.297  0.00  0.00    +0.020 C 
ATOM     12  C   UNL     1     -30.420  28.700   4.382  0.00  0.00    +0.020 C 
ATOM     13  C   UNL     1     -31.751  29.918   6.720  0.00  0.00    +0.002 C 
ATOM     14  C   UNL     1     -30.044  28.297   5.808  0.00  0.00    +0.002 C 
ATOM     15  C   UNL     1     -30.310  29.424   6.800  0.00  0.00    +0.000 C 
ENDBRANCH   4  10
ENDBRANCH   1   7
BRANCH   1  21
ATOM     16  O   UNL     1     -36.264  20.818   1.227  0.00  0.00    -0.252 OA
ATOM     17  O   UNL     1     -37.259  22.727   2.978  0.00  0.00    -0.274 OA
ATOM     18  N   UNL     1     -33.995  21.096   0.812  0.00  0.00    -0.290 N 
ATOM     19  N   UNL     1     -35.073  22.551   2.236  0.00  0.00    -0.239 N 
ATOM     20  C   UNL     1     -35.212  21.427   1.406  0.00  0.00    +0.306 C 
ATOM     21  C   UNL     1     -36.100  23.141   2.977  0.00  0.00    +0.237 C 
ATOM     22  H   UNL     1     -33.207  21.648   1.022  0.00  0.00    +0.151 HD
ATOM     23  H   UNL     1     -34.178  22.956   2.301  0.00  0.00    +0.159 HD
BRANCH  18  24
ATOM     24  C   UNL     1     -33.831  19.982  -0.095  0.00  0.00    +0.073 C 
ATOM     25  C   UNL     1     -33.918  18.646   0.651  0.00  0.00    +0.020 C 
ATOM     26  C   UNL     1     -32.516  20.097  -0.875  0.00  0.00    +0.020 C 
ATOM     27  C   UNL     1     -32.691  18.381   1.524  0.00  0.00    +0.002 C 
ATOM     28  C   UNL     1     -31.292  19.829  -0.000  0.00  0.00    +0.002 C 
ATOM     29  C   UNL     1     -31.398  18.489   0.723  0.00  0.00    +0.000 C 
ENDBRANCH  18  24
ENDBRANCH   1  21
BRANCH   1  30
ATOM     30  C   UNL     1     -36.912  25.198   4.278  0.00  0.00    +0.044 C 
BRANCH  30  31
ATOM     31  C   UNL     1     -37.642  25.995   3.231  0.00  0.00    -0.025 C 
ATOM     32  C   UNL     1     -38.928  25.812   2.911  0.00  0.00    -0.005 C 
ENDBRANCH  30  31
ENDBRANCH   1  30
BRANCH   1  33
ATOM     33  C   UNL     1     -34.901  23.915   5.080  0.00  0.00    +0.044 C 
BRANCH  33  34
ATOM     34  C   UNL     1     -35.461  22.807   5.939  0.00  0.00    -0.025 C 
ATOM     35  C   UNL     1     -35.075  21.529   6.024  0.00  0.00    -0.005 C 
ENDBRANCH  33  34
ENDBRANCH   1  33
TORSDOF 8
ENDMDL
MODEL 2
REMARK VINA RESULT:      -7.0      0.205      8.383
REMARK  Name = 198218
REMARK  8 active torsions:
REMARK  status: ('A' for Active; 'I' for Inactive)
REMARK    1  A    between atoms: C_1  and  C_7
REMARK    2  A    between atoms: C_1  and  C_21
REMARK    3  A    between atoms: C_1  and  C_30
REMARK    4  A    between atoms: C_1  and  C_33
REMARK    5  A    between atoms: N_4  and  C_10
REMARK    6  A    between atoms: N_18  and  C_24
REMARK    7  A    between atoms: C_30  and  C_31
REMARK    8  A    between atoms: C_33  and  C_34
REMARK                            x       y       z     vdW  Elec       q    Type
REMARK                         _______ _______ _______ _____ _____    ______ ____
ROOT
ATOM      1  C   UNL     1     -35.494  24.313   3.706  0.00  0.00    +0.146 C 
ENDROOT
BRANCH   1   7
ATOM      2  O   UNL     1     -36.097  20.753   1.118  0.00  0.00    -0.252 OA
ATOM      3  O   UNL     1     -37.102  22.691   2.837  0.00  0.00    -0.274 OA
ATOM      4  N   UNL     1     -33.829  21.040   0.698  0.00  0.00    -0.290 N 
ATOM      5  N   UNL     1     -34.917  22.514   2.094  0.00  0.00    -0.239 N 
ATOM      6  C   UNL     1     -35.048  21.374   1.285  0.00  0.00    +0.306 C 
ATOM      7  C   UNL     1     -35.944  23.112   2.825  0.00  0.00    +0.237 C 
ATOM      8  H   UNL     1     -33.046  21.602   0.898  0.00  0.00    +0.151 HD
ATOM      9  H   UNL     1     -34.025  22.926   2.149  0.00  0.00    +0.159 HD
BRANCH   4  10
ATOM     10  C   UNL     1     -33.653  19.911  -0.188  0.00  0.00    +0.073 C 
ATOM     11  C   UNL     1     -32.294  19.970  -0.893  0.00  0.00    +0.020 C 
ATOM     12  C   UNL     1     -33.832  18.587   0.563  0.00  0.00    +0.020 C 
ATOM     13  C   UNL     1     -31.132  19.669   0.052  0.00  0.00    +0.002 C 
ATOM     14  C   UNL     1     -32.666  18.289   1.506  0.00  0.00    +0.002 C 
ATOM     15  C   UNL     1     -31.327  18.343   0.780  0.00  0.00    +0.000 C 
ENDBRANCH   4  10
ENDBRANCH   1   7
BRANCH   1  21
ATOM     16  O   UNL     1     -33.004  27.664   2.201  0.00  0.00    -0.252 OA
ATOM     17  O   UNL     1     -34.579  25.428   1.731  0.00  0.00    -0.274 OA
ATOM     18  N   UNL     1     -32.779  28.126   4.466  0.00  0.00    -0.290 N 
ATOM     19  N   UNL     1     -34.040  26.318   3.800  0.00  0.00    -0.239 N 
ATOM     20  C   UNL     1     -33.248  27.397   3.376  0.00  0.00    +0.306 C 
ATOM     21  C   UNL     1     -34.661  25.391   2.959  0.00  0.00    +0.237 C 
ATOM     22  H   UNL     1     -33.032  27.830   5.371  0.00  0.00    +0.151 HD
ATOM     23  H   UNL     1     -34.165  26.204   4.770  0.00  0.00    +0.159 HD
BRANCH  18  24
ATOM     24  C   UNL     1     -31.938  29.295   4.338  0.00  0.00    +0.073 C 
ATOM     25  C   UNL     1     -30.458  28.904   4.252  0.00  0.00    +0.020 C 
ATOM     26  C   UNL     1     -32.185  30.280   5.487  0.00  0.00    +0.020 C 
ATOM     27  C   UNL     1     -29.907  28.402   5.586  0.00  0.00    +0.002 C 
ATOM     28  C   UNL     1     -31.630  29.776   6.819  0.00  0.00    +0.002 C 
ATOM     29  C   UNL     1     -30.155  29.403   6.710  0.00  0.00    +0.000 C 
ENDBRANCH  18  24
ENDBRANCH   1  21
BRANCH   1  30
ATOM     30  C   UNL     1     -34.680  23.723   4.909  0.00  0.00    +0.044 C 
BRANCH  30  31
ATOM     31  C   UNL     1     -35.458  22.899   5.901  0.00  0.00    -0.025 C 
ATOM     32  C   UNL     1     -35.217  21.608   6.154  0.00  0.00    -0.005 C 
ENDBRANCH  30  31
ENDBRANCH   1  30
BRANCH   1  33
ATOM     33  C   UNL     1     -36.773  24.989   4.314  0.00  0.00    +0.044 C 
BRANCH  33  34
ATOM     34  C   UNL     1     -37.640  25.892   3.471  0.00  0.00    -0.025 C 
ATOM     35  C   UNL     1     -38.884  25.690   3.023  0.00  0.00    -0.005 C 
ENDBRANCH  33  34
ENDBRANCH   1  33
TORSDOF 8
ENDMDL
MODEL 3
REMARK VINA RESULT:      -6.7      3.045      6.560
REMARK  Name = 198218
REMARK  8 active torsions:
REMARK  status: ('A' for Active; 'I' for Inactive)
REMARK    1  A    between atoms: C_1  and  C_7
REMARK    2  A    between atoms: C_1  and  C_21
REMARK    3  A    between atoms: C_1  and  C_30
REMARK    4  A    between atoms: C_1  and  C_33
REMARK    5  A    between atoms: N_4  and  C_10
REMARK    6  A    between atoms: N_18  and  C_24
REMARK    7  A    between atoms: C_30  and  C_31
REMARK    8  A    between atoms: C_33  and  C_34
REMARK                            x       y       z     vdW  Elec       q    Type
REMARK                         _______ _______ _______ _____ _____    ______ ____
ROOT
ATOM      1  C   UNL     1     -35.961  24.693   3.740  0.00  0.00    +0.146 C 
ENDROOT
BRANCH   1   7
ATOM      2  O   UNL     1     -34.648  28.886   3.080  0.00  0.00    -0.252 OA
ATOM      3  O   UNL     1     -36.489  26.840   2.697  0.00  0.00    -0.274 OA
ATOM      4  N   UNL     1     -32.882  28.236   4.445  0.00  0.00    -0.290 N 
ATOM      5  N   UNL     1     -34.556  26.728   3.964  0.00  0.00    -0.239 N 
ATOM      6  C   UNL     1     -34.082  28.034   3.765  0.00  0.00    +0.306 C 
ATOM      7  C   UNL     1     -35.728  26.199   3.424  0.00  0.00    +0.237 C 
ATOM      8  H   UNL     1     -32.510  27.488   4.965  0.00  0.00    +0.151 HD
ATOM      9  H   UNL     1     -34.014  26.136   4.534  0.00  0.00    +0.159 HD
BRANCH   4  10
ATOM     10  C   UNL     1     -32.155  29.486   4.426  0.00  0.00    +0.073 C 
ATOM     11  C   UNL     1     -32.192  30.165   5.799  0.00  0.00    +0.020 C 
ATOM     12  C   UNL     1     -30.715  29.279   3.947  0.00  0.00    +0.020 C 
ATOM     13  C   UNL     1     -31.328  29.443   6.832  0.00  0.00    +0.002 C 
ATOM     14  C   UNL     1     -29.852  28.558   4.984  0.00  0.00    +0.002 C 
ATOM     15  C   UNL     1     -29.896  29.258   6.338  0.00  0.00    +0.000 C 
ENDBRANCH   4  10
ENDBRANCH   1   7
BRANCH   1  21
ATOM     16  O   UNL     1     -40.162  23.733   2.681  0.00  0.00    -0.252 OA
ATOM     17  O   UNL     1     -37.496  22.991   2.888  0.00  0.00    -0.274 OA
ATOM     18  N   UNL     1     -40.524  25.928   3.350  0.00  0.00    -0.290 N 
ATOM     19  N   UNL     1     -38.392  25.058   3.424  0.00  0.00    -0.239 N 
ATOM     20  C   UNL     1     -39.736  24.803   3.109  0.00  0.00    +0.306 C 
ATOM     21  C   UNL     1     -37.344  24.143   3.296  0.00  0.00    +0.237 C 
ATOM     22  H   UNL     1     -40.086  26.740   3.695  0.00  0.00    +0.151 HD
ATOM     23  H   UNL     1     -38.169  25.956   3.760  0.00  0.00    +0.159 HD
BRANCH  18  24
ATOM     24  C   UNL     1     -41.950  25.963   3.119  0.00  0.00    +0.073 C 
ATOM     25  C   UNL     1     -42.265  26.358   1.672  0.00  0.00    +0.020 C 
ATOM     26  C   UNL     1     -42.646  26.900   4.114  0.00  0.00    +0.020 C 
ATOM     27  C   UNL     1     -41.976  27.833   1.392  0.00  0.00    +0.002 C 
ATOM     28  C   UNL     1     -42.357  28.374   3.829  0.00  0.00    +0.002 C 
ATOM     29  C   UNL     1     -42.688  28.744   2.386  0.00  0.00    +0.000 C 
ENDBRANCH  18  24
ENDBRANCH   1  21
BRANCH   1  30
ATOM     30  C   UNL     1     -35.763  24.510   5.284  0.00  0.00    +0.044 C 
BRANCH  30  31
ATOM     31  C   UNL     1     -34.983  23.298   5.718  0.00  0.00    -0.025 C 
ATOM     32  C   UNL     1     -35.526  22.238   6.330  0.00  0.00    -0.005 C 
ENDBRANCH  30  31
ENDBRANCH   1  30
BRANCH   1  33
ATOM     33  C   UNL     1     -34.832  23.859   3.038  0.00  0.00    +0.044 C 
BRANCH  33  34
ATOM     34  C   UNL     1     -34.557  24.025   1.563  0.00  0.00    -0.025 C 
ATOM     35  C   UNL     1     -33.516  24.608   0.960  0.00  0.00    -0.005 C 
ENDBRANCH  33  34
ENDBRANCH   1  33
TORSDOF 8
ENDMDL
MODEL 4
REMARK VINA RESULT:      -6.6      2.740      8.653
REMARK  Name = 198218
REMARK  8 active torsions:
REMARK  status: ('A' for Active; 'I' for Inactive)
REMARK    1  A    between atoms: C_1  and  C_7
REMARK    2  A    between atoms: C_1  and  C_21
REMARK    3  A    between atoms: C_1  and  C_30
REMARK    4  A    between atoms: C_1  and  C_33
REMARK    5  A    between atoms: N_4  and  C_10
REMARK    6  A    between atoms: N_18  and  C_24
REMARK    7  A    between atoms: C_30  and  C_31
REMARK    8  A    between atoms: C_33  and  C_34
REMARK                            x       y       z     vdW  Elec       q    Type
REMARK                         _______ _______ _______ _____ _____    ______ ____
ROOT
ATOM      1  C   UNL     1     -35.148  25.133   3.865  0.00  0.00    +0.146 C 
ENDROOT
BRANCH   1   7
ATOM      2  O   UNL     1     -35.191  23.008  -0.036  0.00  0.00    -0.252 OA
ATOM      3  O   UNL     1     -35.632  25.298   1.475  0.00  0.00    -0.274 OA
ATOM      4  N   UNL     1     -34.325  21.267   1.237  0.00  0.00    -0.290 N 
ATOM      5  N   UNL     1     -34.783  23.287   2.245  0.00  0.00    -0.239 N 
ATOM      6  C   UNL     1     -34.803  22.562   1.043  0.00  0.00    +0.306 C 
ATOM      7  C   UNL     1     -35.196  24.610   2.400  0.00  0.00    +0.237 C 
ATOM      8  H   UNL     1     -34.040  21.007   2.142  0.00  0.00    +0.151 HD
ATOM      9  H   UNL     1     -34.449  22.822   3.045  0.00  0.00    +0.159 HD
BRANCH   4  10
ATOM     10  C   UNL     1     -34.227  20.286   0.179  0.00  0.00    +0.073 C 
ATOM     11  C   UNL     1     -32.964  20.505  -0.660  0.00  0.00    +0.020 C 
ATOM     12  C   UNL     1     -34.280  18.861   0.742  0.00  0.00    +0.020 C 
ATOM     13  C   UNL     1     -31.690  20.122   0.091  0.00  0.00    +0.002 C 
ATOM     14  C   UNL     1     -33.002  18.482   1.491  0.00  0.00    +0.002 C 
ATOM     15  C   UNL     1     -31.761  18.698   0.632  0.00  0.00    +0.000 C 
ENDBRANCH   4  10
ENDBRANCH   1   7
BRANCH   1  21
ATOM     16  O   UNL     1     -33.632  29.303   3.943  0.00  0.00    -0.252 OA
ATOM     17  O   UNL     1     -33.410  26.640   4.694  0.00  0.00    -0.274 OA
ATOM     18  N   UNL     1     -35.502  29.696   2.622  0.00  0.00    -0.290 N 
ATOM     19  N   UNL     1     -35.082  27.563   3.383  0.00  0.00    -0.239 N 
ATOM     20  C   UNL     1     -34.641  28.896   3.371  0.00  0.00    +0.306 C 
ATOM     21  C   UNL     1     -34.447  26.508   4.042  0.00  0.00    +0.237 C 
ATOM     22  H   UNL     1     -36.286  29.273   2.202  0.00  0.00    +0.151 HD
ATOM     23  H   UNL     1     -35.907  27.356   2.887  0.00  0.00    +0.159 HD
BRANCH  18  24
ATOM     24  C   UNL     1     -35.303  31.115   2.430  0.00  0.00    +0.073 C 
ATOM     25  C   UNL     1     -36.631  31.824   2.142  0.00  0.00    +0.020 C 
ATOM     26  C   UNL     1     -34.279  31.383   1.321  0.00  0.00    +0.020 C 
ATOM     27  C   UNL     1     -37.175  31.505   0.750  0.00  0.00    +0.002 C 
ATOM     28  C   UNL     1     -34.828  31.065  -0.070  0.00  0.00    +0.002 C 
ATOM     29  C   UNL     1     -36.144  31.790  -0.336  0.00  0.00    +0.000 C 
ENDBRANCH  18  24
ENDBRANCH   1  21
BRANCH   1  30
ATOM     30  C   UNL     1     -34.433  24.033   4.723  0.00  0.00    +0.044 C 
BRANCH  30  31
ATOM     31  C   UNL     1     -35.253  23.399   5.814  0.00  0.00    -0.025 C 
ATOM     32  C   UNL     1     -35.191  22.103   6.141  0.00  0.00    -0.005 C 
ENDBRANCH  30  31
ENDBRANCH   1  30
BRANCH   1  33
ATOM     33  C   UNL     1     -36.619  25.239   4.402  0.00  0.00    +0.044 C 
BRANCH  33  34
ATOM     34  C   UNL     1     -37.779  24.755   3.567  0.00  0.00    -0.025 C 
ATOM     35  C   UNL     1     -38.816  25.447   3.082  0.00  0.00    -0.005 C 
ENDBRANCH  33  34
ENDBRANCH   1  33
TORSDOF 8
ENDMDL
MODEL 5
REMARK VINA RESULT:      -6.6      2.742      3.588
REMARK  Name = 198218
REMARK  8 active torsions:
REMARK  status: ('A' for Active; 'I' for Inactive)
REMARK    1  A    between atoms: C_1  and  C_7
REMARK    2  A    between atoms: C_1  and  C_21
REMARK    3  A    between atoms: C_1  and  C_30
REMARK    4  A    between atoms: C_1  and  C_33
REMARK    5  A    between atoms: N_4  and  C_10
REMARK    6  A    between atoms: N_18  and  C_24
REMARK    7  A    between atoms: C_30  and  C_31
REMARK    8  A    between atoms: C_33  and  C_34
REMARK                            x       y       z     vdW  Elec       q    Type
REMARK                         _______ _______ _______ _____ _____    ______ ____
ROOT
ATOM      1  C   UNL     1     -35.244  25.009   3.668  0.00  0.00    +0.146 C 
ENDROOT
BRANCH   1   7
ATOM      2  O   UNL     1     -33.694  29.168   3.845  0.00  0.00    -0.252 OA
ATOM      3  O   UNL     1     -33.475  26.476   4.498  0.00  0.00    -0.274 OA
ATOM      4  N   UNL     1     -35.539  29.600   2.499  0.00  0.00    -0.290 N 
ATOM      5  N   UNL     1     -35.120  27.442   3.187  0.00  0.00    -0.239 N 
ATOM      6  C   UNL     1     -34.688  28.777   3.235  0.00  0.00    +0.306 C 
ATOM      7  C   UNL     1     -34.496  26.365   3.817  0.00  0.00    +0.237 C 
ATOM      8  H   UNL     1     -36.310  29.188   2.048  0.00  0.00    +0.151 HD
ATOM      9  H   UNL     1     -35.931  27.250   2.665  0.00  0.00    +0.159 HD
BRANCH   4  10
ATOM     10  C   UNL     1     -35.348  31.027   2.364  0.00  0.00    +0.073 C 
ATOM     11  C   UNL     1     -34.320  31.345   1.274  0.00  0.00    +0.020 C 
ATOM     12  C   UNL     1     -36.680  31.738   2.097  0.00  0.00    +0.020 C 
ATOM     13  C   UNL     1     -34.857  31.078  -0.132  0.00  0.00    +0.002 C 
ATOM     14  C   UNL     1     -37.212  31.469   0.689  0.00  0.00    +0.002 C 
ATOM     15  C   UNL     1     -36.176  31.804  -0.378  0.00  0.00    +0.000 C 
ENDBRANCH   4  10
ENDBRANCH   1   7
BRANCH   1  21
ATOM     16  O   UNL     1     -35.098  22.833  -0.197  0.00  0.00    -0.252 OA
ATOM     17  O   UNL     1     -35.660  25.126   1.261  0.00  0.00    -0.274 OA
ATOM     18  N   UNL     1     -34.316  21.103   1.142  0.00  0.00    -0.290 N 
ATOM     19  N   UNL     1     -34.858  23.124   2.105  0.00  0.00    -0.239 N 
ATOM     20  C   UNL     1     -34.788  22.394   0.908  0.00  0.00    +0.306 C 
ATOM     21  C   UNL     1     -35.290  24.448   2.220  0.00  0.00    +0.237 C 
ATOM     22  H   UNL     1     -34.094  20.847   2.067  0.00  0.00    +0.151 HD
ATOM     23  H   UNL     1     -34.582  22.665   2.931  0.00  0.00    +0.159 HD
BRANCH  18  24
ATOM     24  C   UNL     1     -34.136  20.121   0.097  0.00  0.00    +0.073 C 
ATOM     25  C   UNL     1     -34.157  18.699   0.667  0.00  0.00    +0.020 C 
ATOM     26  C   UNL     1     -32.847  20.384  -0.691  0.00  0.00    +0.020 C 
ATOM     27  C   UNL     1     -32.899  18.372   1.472  0.00  0.00    +0.002 C 
ATOM     28  C   UNL     1     -31.592  20.054   0.116  0.00  0.00    +0.002 C 
ATOM     29  C   UNL     1     -31.631  18.631   0.664  0.00  0.00    +0.000 C 
ENDBRANCH  18  24
ENDBRANCH   1  21
BRANCH   1  30
ATOM     30  C   UNL     1     -36.694  25.219   4.226  0.00  0.00    +0.044 C 
BRANCH  30  31
ATOM     31  C   UNL     1     -37.802  24.514   3.490  0.00  0.00    -0.025 C 
ATOM     32  C   UNL     1     -39.000  25.055   3.243  0.00  0.00    -0.005 C 
ENDBRANCH  30  31
ENDBRANCH   1  30
BRANCH   1  33
ATOM     33  C   UNL     1     -34.550  23.954   4.600  0.00  0.00    +0.044 C 
BRANCH  33  34
ATOM     34  C   UNL     1     -35.316  23.301   5.725  0.00  0.00    -0.025 C 
ATOM     35  C   UNL     1     -35.208  22.060   6.211  0.00  0.00    -0.005 C 
ENDBRANCH  33  34
ENDBRANCH   1  33
TORSDOF 8
ENDMDL
MODEL 6
REMARK VINA RESULT:      -6.3      3.012      8.410
REMARK  Name = 198218
REMARK  8 active torsions:
REMARK  status: ('A' for Active; 'I' for Inactive)
REMARK    1  A    between atoms: C_1  and  C_7
REMARK    2  A    between atoms: C_1  and  C_21
REMARK    3  A    between atoms: C_1  and  C_30
REMARK    4  A    between atoms: C_1  and  C_33
REMARK    5  A    between atoms: N_4  and  C_10
REMARK    6  A    between atoms: N_18  and  C_24
REMARK    7  A    between atoms: C_30  and  C_31
REMARK    8  A    between atoms: C_33  and  C_34
REMARK                            x       y       z     vdW  Elec       q    Type
REMARK                         _______ _______ _______ _____ _____    ______ ____
ROOT
ATOM      1  C   UNL     1     -35.960  24.660   3.719  0.00  0.00    +0.146 C 
ENDROOT
BRANCH   1   7
ATOM      2  O   UNL     1     -40.093  23.553   2.522  0.00  0.00    -0.252 OA
ATOM      3  O   UNL     1     -37.533  22.831   3.325  0.00  0.00    -0.274 OA
ATOM      4  N   UNL     1     -40.368  25.859   2.428  0.00  0.00    -0.290 N 
ATOM      5  N   UNL     1     -38.335  24.987   3.069  0.00  0.00    -0.239 N 
ATOM      6  C   UNL     1     -39.645  24.691   2.660  0.00  0.00    +0.306 C 
ATOM      7  C   UNL     1     -37.351  24.048   3.380  0.00  0.00    +0.237 C 
ATOM      8  H   UNL     1     -39.915  26.722   2.566  0.00  0.00    +0.151 HD
ATOM      9  H   UNL     1     -38.091  25.937   3.144  0.00  0.00    +0.159 HD
BRANCH   4  10
ATOM     10  C   UNL     1     -41.748  25.871   1.996  0.00  0.00    +0.073 C 
ATOM     11  C   UNL     1     -42.655  26.486   3.066  0.00  0.00    +0.020 C 
ATOM     12  C   UNL     1     -41.899  26.597   0.655  0.00  0.00    +0.020 C 
ATOM     13  C   UNL     1     -42.469  27.998   3.191  0.00  0.00    +0.002 C 
ATOM     14  C   UNL     1     -41.714  28.109   0.785  0.00  0.00    +0.002 C 
ATOM     15  C   UNL     1     -42.635  28.699   1.847  0.00  0.00    +0.000 C 
ENDBRANCH   4  10
ENDBRANCH   1   7
BRANCH   1  21
ATOM     16  O   UNL     1     -34.930  28.922   3.043  0.00  0.00    -0.252 OA
ATOM     17  O   UNL     1     -36.649  26.772   2.698  0.00  0.00    -0.274 OA
ATOM     18  N   UNL     1     -33.039  28.355   4.268  0.00  0.00    -0.290 N 
ATOM     19  N   UNL     1     -34.632  26.749   3.836  0.00  0.00    -0.239 N 
ATOM     20  C   UNL     1     -34.263  28.091   3.656  0.00  0.00    +0.306 C 
ATOM     21  C   UNL     1     -35.802  26.160   3.349  0.00  0.00    +0.237 C 
ATOM     22  H   UNL     1     -32.582  27.618   4.736  0.00  0.00    +0.151 HD
ATOM     23  H   UNL     1     -34.016  26.175   4.347  0.00  0.00    +0.159 HD
BRANCH  18  24
ATOM     24  C   UNL     1     -32.405  29.654   4.250  0.00  0.00    +0.073 C 
ATOM     25  C   UNL     1     -31.029  29.586   3.578  0.00  0.00    +0.020 C 
ATOM     26  C   UNL     1     -32.303  30.237   5.664  0.00  0.00    +0.020 C 
ATOM     27  C   UNL     1     -29.992  28.865   4.438  0.00  0.00    +0.002 C 
ATOM     28  C   UNL     1     -31.263  29.515   6.521  0.00  0.00    +0.002 C 
ATOM     29  C   UNL     1     -29.901  29.470   5.835  0.00  0.00    +0.000 C 
ENDBRANCH  18  24
ENDBRANCH   1  21
BRANCH   1  30
ATOM     30  C   UNL     1     -34.883  23.792   2.980  0.00  0.00    +0.044 C 
BRANCH  30  31
ATOM     31  C   UNL     1     -34.809  23.949   1.485  0.00  0.00    -0.025 C 
ATOM     32  C   UNL     1     -33.723  24.378   0.831  0.00  0.00    -0.005 C 
ENDBRANCH  30  31
ENDBRANCH   1  30
BRANCH   1  33
ATOM     33  C   UNL     1     -35.703  24.485   5.257  0.00  0.00    +0.044 C 
BRANCH  33  34
ATOM     34  C   UNL     1     -34.953  23.283   5.779  0.00  0.00    -0.025 C 
ATOM     35  C   UNL     1     -35.431  22.177   6.360  0.00  0.00    -0.005 C 
ENDBRANCH  33  34
ENDBRANCH   1  33
TORSDOF 8
ENDMDL
MODEL 7
REMARK VINA RESULT:      -6.3      1.677      7.835
REMARK  Name = 198218
REMARK  8 active torsions:
REMARK  status: ('A' for Active; 'I' for Inactive)
REMARK    1  A    between atoms: C_1  and  C_7
REMARK    2  A    between atoms: C_1  and  C_21
REMARK    3  A    between atoms: C_1  and  C_30
REMARK    4  A    between atoms: C_1  and  C_33
REMARK    5  A    between atoms: N_4  and  C_10
REMARK    6  A    between atoms: N_18  and  C_24
REMARK    7  A    between atoms: C_30  and  C_31
REMARK    8  A    between atoms: C_33  and  C_34
REMARK                            x       y       z     vdW  Elec       q    Type
REMARK                         _______ _______ _______ _____ _____    ______ ____
ROOT
ATOM      1  C   UNL     1     -35.317  24.775   3.888  0.00  0.00    +0.146 C 
ENDROOT
BRANCH   1   7
ATOM      2  O   UNL     1     -34.826  22.887  -0.103  0.00  0.00    -0.252 OA
ATOM      3  O   UNL     1     -35.353  25.117   1.468  0.00  0.00    -0.274 OA
ATOM      4  N   UNL     1     -34.335  21.007   1.172  0.00  0.00    -0.290 N 
ATOM      5  N   UNL     1     -34.811  22.999   2.227  0.00  0.00    -0.239 N 
ATOM      6  C   UNL     1     -34.671  22.348   0.992  0.00  0.00    +0.306 C 
ATOM      7  C   UNL     1     -35.143  24.342   2.403  0.00  0.00    +0.237 C 
ATOM      8  H   UNL     1     -34.237  20.672   2.093  0.00  0.00    +0.151 HD
ATOM      9  H   UNL     1     -34.661  22.462   3.038  0.00  0.00    +0.159 HD
BRANCH   4  10
ATOM     10  C   UNL     1     -34.125  20.083   0.081  0.00  0.00    +0.073 C 
ATOM     11  C   UNL     1     -32.822  20.395  -0.662  0.00  0.00    +0.020 C 
ATOM     12  C   UNL     1     -34.150  18.632   0.574  0.00  0.00    +0.020 C 
ATOM     13  C   UNL     1     -31.583  20.031   0.153  0.00  0.00    +0.002 C 
ATOM     14  C   UNL     1     -32.907  18.271   1.388  0.00  0.00    +0.002 C 
ATOM     15  C   UNL     1     -31.624  18.580   0.624  0.00  0.00    +0.000 C 
ENDBRANCH   4  10
ENDBRANCH   1   7
BRANCH   1  21
ATOM     16  O   UNL     1     -33.161  28.604   4.507  0.00  0.00    -0.252 OA
ATOM     17  O   UNL     1     -35.379  26.989   4.923  0.00  0.00    -0.274 OA
ATOM     18  N   UNL     1     -31.554  27.574   3.182  0.00  0.00    -0.290 N 
ATOM     19  N   UNL     1     -33.500  26.448   3.682  0.00  0.00    -0.239 N 
ATOM     20  C   UNL     1     -32.774  27.637   3.853  0.00  0.00    +0.306 C 
ATOM     21  C   UNL     1     -34.761  26.186   4.224  0.00  0.00    +0.237 C 
ATOM     22  H   UNL     1     -31.337  26.752   2.684  0.00  0.00    +0.151 HD
ATOM     23  H   UNL     1     -33.087  25.741   3.136  0.00  0.00    +0.159 HD
BRANCH  18  24
ATOM     24  C   UNL     1     -30.592  28.653   3.178  0.00  0.00    +0.073 C 
ATOM     25  C   UNL     1     -30.273  29.102   1.747  0.00  0.00    +0.020 C 
ATOM     26  C   UNL     1     -29.317  28.258   3.932  0.00  0.00    +0.020 C 
ATOM     27  C   UNL     1     -29.433  28.077   0.986  0.00  0.00    +0.002 C 
ATOM     28  C   UNL     1     -28.479  27.235   3.166  0.00  0.00    +0.002 C 
ATOM     29  C   UNL     1     -28.166  27.709   1.750  0.00  0.00    +0.000 C 
ENDBRANCH  18  24
ENDBRANCH   1  21
BRANCH   1  30
ATOM     30  C   UNL     1     -34.621  23.682   4.771  0.00  0.00    +0.044 C 
BRANCH  30  31
ATOM     31  C   UNL     1     -35.428  23.137   5.918  0.00  0.00    -0.025 C 
ATOM     32  C   UNL     1     -35.417  21.854   6.298  0.00  0.00    -0.005 C 
ENDBRANCH  30  31
ENDBRANCH   1  30
BRANCH   1  33
ATOM     33  C   UNL     1     -36.846  24.733   4.241  0.00  0.00    +0.044 C 
BRANCH  33  34
ATOM     34  C   UNL     1     -37.888  24.773   3.149  0.00  0.00    -0.025 C 
ATOM     35  C   UNL     1     -39.220  24.824   3.256  0.00  0.00    -0.005 C 
ENDBRANCH  33  34
ENDBRANCH   1  33
TORSDOF 8
ENDMDL
MODEL 8
REMARK VINA RESULT:      -6.2      1.765      2.465
REMARK  Name = 198218
REMARK  8 active torsions:
REMARK  status: ('A' for Active; 'I' for Inactive)
REMARK    1  A    between atoms: C_1  and  C_7
REMARK    2  A    between atoms: C_1  and  C_21
REMARK    3  A    between atoms: C_1  and  C_30
REMARK    4  A    between atoms: C_1  and  C_33
REMARK    5  A    between atoms: N_4  and  C_10
REMARK    6  A    between atoms: N_18  and  C_24
REMARK    7  A    between atoms: C_30  and  C_31
REMARK    8  A    between atoms: C_33  and  C_34
REMARK                            x       y       z     vdW  Elec       q    Type
REMARK                         _______ _______ _______ _____ _____    ______ ____
ROOT
ATOM      1  C   UNL     1     -35.296  24.796   3.934  0.00  0.00    +0.146 C 
ENDROOT
BRANCH   1   7
ATOM      2  O   UNL     1     -33.134  28.649   4.398  0.00  0.00    -0.252 OA
ATOM      3  O   UNL     1     -35.316  27.019   4.949  0.00  0.00    -0.274 OA
ATOM      4  N   UNL     1     -31.544  27.578   3.085  0.00  0.00    -0.290 N 
ATOM      5  N   UNL     1     -33.458  26.449   3.693  0.00  0.00    -0.239 N 
ATOM      6  C   UNL     1     -32.747  27.656   3.785  0.00  0.00    +0.306 C 
ATOM      7  C   UNL     1     -34.699  26.192   4.276  0.00  0.00    +0.237 C 
ATOM      8  H   UNL     1     -31.328  26.736   2.625  0.00  0.00    +0.151 HD
ATOM      9  H   UNL     1     -33.046  25.723   3.172  0.00  0.00    +0.159 HD
BRANCH   4  10
ATOM     10  C   UNL     1     -30.599  28.668   3.000  0.00  0.00    +0.073 C 
ATOM     11  C   UNL     1     -29.187  28.203   3.372  0.00  0.00    +0.020 C 
ATOM     12  C   UNL     1     -30.623  29.312   1.610  0.00  0.00    +0.020 C 
ATOM     13  C   UNL     1     -28.564  27.310   2.300  0.00  0.00    +0.002 C 
ATOM     14  C   UNL     1     -29.998  28.416   0.540  0.00  0.00    +0.002 C 
ATOM     15  C   UNL     1     -28.590  27.976   0.928  0.00  0.00    +0.000 C 
ENDBRANCH   4  10
ENDBRANCH   1   7
BRANCH   1  21
ATOM     16  O   UNL     1     -34.727  22.951  -0.061  0.00  0.00    -0.252 OA
ATOM     17  O   UNL     1     -35.232  25.175   1.520  0.00  0.00    -0.274 OA
ATOM     18  N   UNL     1     -34.457  21.016   1.196  0.00  0.00    -0.290 N 
ATOM     19  N   UNL     1     -34.887  23.010   2.266  0.00  0.00    -0.239 N 
ATOM     20  C   UNL     1     -34.694  22.379   1.027  0.00  0.00    +0.306 C 
ATOM     21  C   UNL     1     -35.147  24.371   2.448  0.00  0.00    +0.237 C 
ATOM     22  H   UNL     1     -34.451  20.653   2.112  0.00  0.00    +0.151 HD
ATOM     23  H   UNL     1     -34.837  22.448   3.072  0.00  0.00    +0.159 HD
BRANCH  18  24
ATOM     24  C   UNL     1     -34.221  20.108   0.097  0.00  0.00    +0.073 C 
ATOM     25  C   UNL     1     -34.210  18.652   0.577  0.00  0.00    +0.020 C 
ATOM     26  C   UNL     1     -32.923  20.459  -0.640  0.00  0.00    +0.020 C 
ATOM     27  C   UNL     1     -32.962  18.314   1.392  0.00  0.00    +0.002 C 
ATOM     28  C   UNL     1     -31.677  20.117   0.177  0.00  0.00    +0.002 C 
ATOM     29  C   UNL     1     -31.684  18.661   0.635  0.00  0.00    +0.000 C 
ENDBRANCH  18  24
ENDBRANCH   1  21
BRANCH   1  30
ATOM     30  C   UNL     1     -36.808  24.827   4.351  0.00  0.00    +0.044 C 
BRANCH  30  31
ATOM     31  C   UNL     1     -37.782  25.276   3.296  0.00  0.00    -0.025 C 
ATOM     32  C   UNL     1     -38.961  24.687   3.066  0.00  0.00    -0.005 C 
ENDBRANCH  30  31
ENDBRANCH   1  30
BRANCH   1  33
ATOM     33  C   UNL     1     -34.600  23.723   4.844  0.00  0.00    +0.044 C 
BRANCH  33  34
ATOM     34  C   UNL     1     -35.398  22.942   5.860  0.00  0.00    -0.025 C 
ATOM     35  C   UNL     1     -35.287  21.657   6.212  0.00  0.00    -0.005 C 
ENDBRANCH  33  34
ENDBRANCH   1  33
TORSDOF 8
ENDMDL
MODEL 9
REMARK VINA RESULT:      -6.2      2.714      6.638
REMARK  Name = 198218
REMARK  8 active torsions:
REMARK  status: ('A' for Active; 'I' for Inactive)
REMARK    1  A    between atoms: C_1  and  C_7
REMARK    2  A    between atoms: C_1  and  C_21
REMARK    3  A    between atoms: C_1  and  C_30
REMARK    4  A    between atoms: C_1  and  C_33
REMARK    5  A    between atoms: N_4  and  C_10
REMARK    6  A    between atoms: N_18  and  C_24
REMARK    7  A    between atoms: C_30  and  C_31
REMARK    8  A    between atoms: C_33  and  C_34
REMARK                            x       y       z     vdW  Elec       q    Type
REMARK                         _______ _______ _______ _____ _____    ______ ____
ROOT
ATOM      1  C   UNL     1     -35.908  24.053   3.566  0.00  0.00    +0.146 C 
ENDROOT
BRANCH   1   7
ATOM      2  O   UNL     1     -39.305  26.723   2.533  0.00  0.00    -0.252 OA
ATOM      3  O   UNL     1     -37.054  26.155   4.059  0.00  0.00    -0.274 OA
ATOM      4  N   UNL     1     -39.709  25.098   0.922  0.00  0.00    -0.290 N 
ATOM      5  N   UNL     1     -37.898  24.874   2.326  0.00  0.00    -0.239 N 
ATOM      6  C   UNL     1     -39.002  25.668   1.978  0.00  0.00    +0.306 C 
ATOM      7  C   UNL     1     -36.984  25.155   3.342  0.00  0.00    +0.237 C 
ATOM      8  H   UNL     1     -39.384  24.248   0.548  0.00  0.00    +0.151 HD
ATOM      9  H   UNL     1     -37.756  24.049   1.809  0.00  0.00    +0.159 HD
BRANCH   4  10
ATOM     10  C   UNL     1     -40.896  25.690   0.345  0.00  0.00    +0.073 C 
ATOM     11  C   UNL     1     -40.648  26.121  -1.104  0.00  0.00    +0.020 C 
ATOM     12  C   UNL     1     -42.091  24.735   0.444  0.00  0.00    +0.020 C 
ATOM     13  C   UNL     1     -40.531  24.932  -2.056  0.00  0.00    +0.002 C 
ATOM     14  C   UNL     1     -41.971  23.548  -0.512  0.00  0.00    +0.002 C 
ATOM     15  C   UNL     1     -41.736  24.003  -1.948  0.00  0.00    +0.000 C 
ENDBRANCH   4  10
ENDBRANCH   1   7
BRANCH   1  21
ATOM     16  O   UNL     1     -36.453  19.934   2.009  0.00  0.00    -0.252 OA
ATOM     17  O   UNL     1     -37.481  22.216   3.207  0.00  0.00    -0.274 OA
ATOM     18  N   UNL     1     -34.185  20.127   1.540  0.00  0.00    -0.290 N 
ATOM     19  N   UNL     1     -35.289  21.885   2.539  0.00  0.00    -0.239 N 
ATOM     20  C   UNL     1     -35.409  20.584   2.027  0.00  0.00    +0.306 C 
ATOM     21  C   UNL     1     -36.327  22.632   3.101  0.00  0.00    +0.237 C 
ATOM     22  H   UNL     1     -33.406  20.726   1.601  0.00  0.00    +0.151 HD
ATOM     23  H   UNL     1     -34.400  22.306   2.498  0.00  0.00    +0.159 HD
BRANCH  18  24
ATOM     24  C   UNL     1     -34.002  18.820   0.951  0.00  0.00    +0.073 C 
ATOM     25  C   UNL     1     -32.618  18.253   1.286  0.00  0.00    +0.020 C 
ATOM     26  C   UNL     1     -34.232  18.860  -0.564  0.00  0.00    +0.020 C 
ATOM     27  C   UNL     1     -31.494  18.972   0.540  0.00  0.00    +0.002 C 
ATOM     28  C   UNL     1     -33.106  19.578  -1.307  0.00  0.00    +0.002 C 
ATOM     29  C   UNL     1     -31.740  18.990  -0.965  0.00  0.00    +0.000 C 
ENDBRANCH  18  24
ENDBRANCH   1  21
BRANCH   1  30
ATOM     30  C   UNL     1     -35.559  24.054   5.095  0.00  0.00    +0.044 C 
BRANCH  30  31
ATOM     31  C   UNL     1     -34.907  22.809   5.632  0.00  0.00    -0.025 C 
ATOM     32  C   UNL     1     -35.483  21.982   6.512  0.00  0.00    -0.005 C 
ENDBRANCH  30  31
ENDBRANCH   1  30
BRANCH   1  33
ATOM     33  C   UNL     1     -34.602  24.474   2.805  0.00  0.00    +0.044 C 
BRANCH  33  34
ATOM     34  C   UNL     1     -33.626  25.442   3.430  0.00  0.00    -0.025 C 
ATOM     35  C   UNL     1     -33.576  26.774   3.327  0.00  0.00    -0.005 C 
ENDBRANCH  33  34
ENDBRANCH   1  33
TORSDOF 8
ENDMDL
