MODEL 1
REMARK VINA RESULT:      -5.3      0.000      0.000
REMARK  Name = 5748361
REMARK  9 active torsions:
REMARK  status: ('A' for Active; 'I' for Inactive)
REMARK    1  A    between atoms: N_2  and  C_4
REMARK    2  A    between atoms: N_2  and  C_17
REMARK    3  A    between atoms: C_5  and  S_7
REMARK    4  A    between atoms: C_5  and  C_11
REMARK    5  A    between atoms: S_7  and  C_9
REMARK    6  A    between atoms: C_11  and  C_12
REMARK    7  A    between atoms: C_12  and  O_13
REMARK    8  A    between atoms: O_13  and  C_15
REMARK    9  A    between atoms: C_17  and  C_21
REMARK                            x       y       z     vdW  Elec       q    Type
REMARK                         _______ _______ _______ _____ _____    ______ ____
ROOT
ATOM      1  O   UNL     1     -35.793  22.568   6.088  0.00  0.00    -0.265 OA
ATOM      2  N   UNL     1     -36.135  23.559   3.991  0.00  0.00    -0.250 N 
ATOM      3  C   UNL     1     -35.803  22.531   4.863  0.00  0.00    +0.307 C 
ENDROOT
BRANCH   2   4
ATOM      4  C   UNL     1     -36.102  23.374   2.630  0.00  0.00    +0.034 C 
ATOM      5  C   UNL     1     -37.177  22.911   1.947  0.00  0.00    +0.023 C 
ATOM      6  C   UNL     1     -34.772  23.716   2.015  0.00  0.00    +0.048 C 
BRANCH   5   7
ATOM      7  S   UNL     1     -37.074  22.613   0.214  0.00  0.00    -0.054 S 
BRANCH   7   9
ATOM      8  O   UNL     1     -37.003  19.995   0.640  0.00  0.00    -0.284 OA
ATOM      9  C   UNL     1     -37.579  20.936   0.109  0.00  0.00    +0.203 C 
ATOM     10  C   UNL     1     -38.830  20.771  -0.706  0.00  0.00    +0.085 C 
ENDBRANCH   7   9
ENDBRANCH   5   7
BRANCH   5  11
ATOM     11  C   UNL     1     -38.507  22.575   2.602  0.00  0.00    +0.081 C 
BRANCH  11  12
ATOM     12  C   UNL     1     -39.620  23.553   2.225  0.00  0.00    +0.214 C 
BRANCH  12  13
ATOM     13  O   UNL     1     -39.785  24.547   3.227  0.00  0.00    -0.448 OA
BRANCH  13  15
ATOM     14  O   UNL     1     -39.007  26.621   2.570  0.00  0.00    -0.250 OA
ATOM     15  C   UNL     1     -39.918  25.831   2.774  0.00  0.00    +0.318 C 
ATOM     16  C   UNL     1     -41.368  26.148   2.557  0.00  0.00    +0.121 C 
ENDBRANCH  13  15
ENDBRANCH  12  13
ENDBRANCH  11  12
ENDBRANCH   5  11
ENDBRANCH   2   4
BRANCH   2  17
ATOM     17  C   UNL     1     -36.529  24.866   4.496  0.00  0.00    +0.130 C 
BRANCH  17  21
ATOM     18  N   UNL     1     -34.133  27.741   3.880  0.00  0.00    -0.340 NA
ATOM     19  N   UNL     1     -33.313  26.409   5.715  0.00  0.00    -0.186 NA
ATOM     20  N   UNL     1     -36.150  27.149   2.782  0.00  0.00    -0.332 N 
ATOM     21  C   UNL     1     -35.362  25.802   4.606  0.00  0.00    +0.062 C 
ATOM     22  C   UNL     1     -35.181  26.896   3.785  0.00  0.00    +0.187 C 
ATOM     23  C   UNL     1     -34.387  25.606   5.562  0.00  0.00    +0.111 C 
ATOM     24  C   UNL     1     -33.250  27.443   4.853  0.00  0.00    +0.066 C 
ATOM     25  C   UNL     1     -32.078  28.353   4.990  0.00  0.00    +0.129 C 
ATOM     26  H   UNL     1     -36.047  27.922   2.182  0.00  0.00    +0.145 HD
ATOM     27  H   UNL     1     -36.926  26.552   2.687  0.00  0.00    +0.145 HD
ENDBRANCH  17  21
ENDBRANCH   2  17
TORSDOF 9
ENDMDL
MODEL 2
REMARK VINA RESULT:      -5.3      3.965      6.887
REMARK  Name = 5748361
REMARK  9 active torsions:
REMARK  status: ('A' for Active; 'I' for Inactive)
REMARK    1  A    between atoms: N_2  and  C_4
REMARK    2  A    between atoms: N_2  and  C_17
REMARK    3  A    between atoms: C_5  and  S_7
REMARK    4  A    between atoms: C_5  and  C_11
REMARK    5  A    between atoms: S_7  and  C_9
REMARK    6  A    between atoms: C_11  and  C_12
REMARK    7  A    between atoms: C_12  and  O_13
REMARK    8  A    between atoms: O_13  and  C_15
REMARK    9  A    between atoms: C_17  and  C_21
REMARK                            x       y       z     vdW  Elec       q    Type
REMARK                         _______ _______ _______ _____ _____    ______ ____
ROOT
ATOM      1  O   UNL     1     -37.452  27.399   1.686  0.00  0.00    -0.265 OA
ATOM      2  N   UNL     1     -35.167  27.167   2.153  0.00  0.00    -0.250 N 
ATOM      3  C   UNL     1     -36.285  27.263   1.337  0.00  0.00    +0.307 C 
ENDROOT
BRANCH   2   4
ATOM      4  C   UNL     1     -33.909  27.015   1.620  0.00  0.00    +0.034 C 
ATOM      5  C   UNL     1     -32.988  28.006   1.671  0.00  0.00    +0.023 C 
ATOM      6  C   UNL     1     -33.695  25.670   0.979  0.00  0.00    +0.048 C 
BRANCH   5   7
ATOM      7  S   UNL     1     -31.413  27.802   0.910  0.00  0.00    -0.054 S 
BRANCH   7   9
ATOM      8  O   UNL     1     -30.781  25.981   2.734  0.00  0.00    -0.284 OA
ATOM      9  C   UNL     1     -30.490  27.041   2.194  0.00  0.00    +0.203 C 
ATOM     10  C   UNL     1     -29.268  27.835   2.561  0.00  0.00    +0.085 C 
ENDBRANCH   7   9
ENDBRANCH   5   7
BRANCH   5  11
ATOM     11  C   UNL     1     -33.240  29.354   2.328  0.00  0.00    +0.081 C 
BRANCH  11  12
ATOM     12  C   UNL     1     -32.302  29.627   3.504  0.00  0.00    +0.214 C 
BRANCH  12  13
ATOM     13  O   UNL     1     -32.749  28.960   4.677  0.00  0.00    -0.448 OA
BRANCH  13  15
ATOM     14  O   UNL     1     -31.105  27.678   5.672  0.00  0.00    -0.250 OA
ATOM     15  C   UNL     1     -31.787  28.691   5.611  0.00  0.00    +0.318 C 
ATOM     16  C   UNL     1     -31.680  29.834   6.576  0.00  0.00    +0.121 C 
ENDBRANCH  13  15
ENDBRANCH  12  13
ENDBRANCH  11  12
ENDBRANCH   5  11
ENDBRANCH   2   4
BRANCH   2  17
ATOM     17  C   UNL     1     -35.294  27.228   3.602  0.00  0.00    +0.130 C 
BRANCH  17  21
ATOM     18  N   UNL     1     -36.528  23.944   5.047  0.00  0.00    -0.340 NA
ATOM     19  N   UNL     1     -34.118  23.983   5.119  0.00  0.00    -0.186 NA
ATOM     20  N   UNL     1     -37.726  25.791   4.164  0.00  0.00    -0.332 N 
ATOM     21  C   UNL     1     -35.328  25.861   4.222  0.00  0.00    +0.062 C 
ATOM     22  C   UNL     1     -36.493  25.173   4.490  0.00  0.00    +0.187 C 
ATOM     23  C   UNL     1     -34.159  25.211   4.561  0.00  0.00    +0.111 C 
ATOM     24  C   UNL     1     -35.322  23.416   5.331  0.00  0.00    +0.066 C 
ATOM     25  C   UNL     1     -35.319  22.058   5.947  0.00  0.00    +0.129 C 
ATOM     26  H   UNL     1     -38.574  25.323   4.344  0.00  0.00    +0.145 HD
ATOM     27  H   UNL     1     -37.735  26.687   3.757  0.00  0.00    +0.145 HD
ENDBRANCH  17  21
ENDBRANCH   2  17
TORSDOF 9
ENDMDL
MODEL 3
REMARK VINA RESULT:      -5.3      2.206      3.776
REMARK  Name = 5748361
REMARK  9 active torsions:
REMARK  status: ('A' for Active; 'I' for Inactive)
REMARK    1  A    between atoms: N_2  and  C_4
REMARK    2  A    between atoms: N_2  and  C_17
REMARK    3  A    between atoms: C_5  and  S_7
REMARK    4  A    between atoms: C_5  and  C_11
REMARK    5  A    between atoms: S_7  and  C_9
REMARK    6  A    between atoms: C_11  and  C_12
REMARK    7  A    between atoms: C_12  and  O_13
REMARK    8  A    between atoms: O_13  and  C_15
REMARK    9  A    between atoms: C_17  and  C_21
REMARK                            x       y       z     vdW  Elec       q    Type
REMARK                         _______ _______ _______ _____ _____    ______ ____
ROOT
ATOM      1  O   UNL     1     -39.052  25.645   1.303  0.00  0.00    -0.265 OA
ATOM      2  N   UNL     1     -37.453  23.987   1.737  0.00  0.00    -0.250 N 
ATOM      3  C   UNL     1     -38.162  24.881   0.947  0.00  0.00    +0.307 C 
ENDROOT
BRANCH   2   4
ATOM      4  C   UNL     1     -36.474  23.186   1.199  0.00  0.00    +0.034 C 
ATOM      5  C   UNL     1     -36.671  21.862   0.996  0.00  0.00    +0.023 C 
ATOM      6  C   UNL     1     -35.201  23.926   0.894  0.00  0.00    +0.048 C 
BRANCH   5   7
ATOM      7  S   UNL     1     -35.369  20.850   0.376  0.00  0.00    -0.054 S 
BRANCH   7   9
ATOM      8  O   UNL     1     -35.181  20.337   2.974  0.00  0.00    -0.284 OA
ATOM      9  C   UNL     1     -34.763  20.107   1.846  0.00  0.00    +0.203 C 
ATOM     10  C   UNL     1     -33.661  19.122   1.571  0.00  0.00    +0.085 C 
ENDBRANCH   7   9
ENDBRANCH   5   7
BRANCH   5  11
ATOM     11  C   UNL     1     -37.973  21.146   1.317  0.00  0.00    +0.081 C 
BRANCH  11  12
ATOM     12  C   UNL     1     -38.688  20.621   0.071  0.00  0.00    +0.214 C 
BRANCH  12  13
ATOM     13  O   UNL     1     -40.098  20.653   0.243  0.00  0.00    -0.448 OA
BRANCH  13  15
ATOM     14  O   UNL     1     -40.923  22.773   0.642  0.00  0.00    -0.250 OA
ATOM     15  C   UNL     1     -40.714  21.824  -0.101  0.00  0.00    +0.318 C 
ATOM     16  C   UNL     1     -41.107  21.788  -1.548  0.00  0.00    +0.121 C 
ENDBRANCH  13  15
ENDBRANCH  12  13
ENDBRANCH  11  12
ENDBRANCH   5  11
ENDBRANCH   2   4
BRANCH   2  17
ATOM     17  C   UNL     1     -37.725  23.874   3.163  0.00  0.00    +0.130 C 
BRANCH  17  21
ATOM     18  N   UNL     1     -34.869  24.373   5.610  0.00  0.00    -0.340 NA
ATOM     19  N   UNL     1     -35.461  26.501   4.641  0.00  0.00    -0.186 NA
ATOM     20  N   UNL     1     -36.035  22.408   4.976  0.00  0.00    -0.332 N 
ATOM     21  C   UNL     1     -36.648  24.510   3.993  0.00  0.00    +0.062 C 
ATOM     22  C   UNL     1     -35.839  23.806   4.862  0.00  0.00    +0.187 C 
ATOM     23  C   UNL     1     -36.412  25.867   3.924  0.00  0.00    +0.111 C 
ATOM     24  C   UNL     1     -34.736  25.705   5.452  0.00  0.00    +0.066 C 
ATOM     25  C   UNL     1     -33.675  26.368   6.263  0.00  0.00    +0.129 C 
ATOM     26  H   UNL     1     -35.472  21.880   5.588  0.00  0.00    +0.145 HD
ATOM     27  H   UNL     1     -36.734  21.964   4.444  0.00  0.00    +0.145 HD
ENDBRANCH  17  21
ENDBRANCH   2  17
TORSDOF 9
ENDMDL
MODEL 4
REMARK VINA RESULT:      -5.2      1.546      1.606
REMARK  Name = 5748361
REMARK  9 active torsions:
REMARK  status: ('A' for Active; 'I' for Inactive)
REMARK    1  A    between atoms: N_2  and  C_4
REMARK    2  A    between atoms: N_2  and  C_17
REMARK    3  A    between atoms: C_5  and  S_7
REMARK    4  A    between atoms: C_5  and  C_11
REMARK    5  A    between atoms: S_7  and  C_9
REMARK    6  A    between atoms: C_11  and  C_12
REMARK    7  A    between atoms: C_12  and  O_13
REMARK    8  A    between atoms: O_13  and  C_15
REMARK    9  A    between atoms: C_17  and  C_21
REMARK                            x       y       z     vdW  Elec       q    Type
REMARK                         _______ _______ _______ _____ _____    ______ ____
ROOT
ATOM      1  O   UNL     1     -35.785  22.376   6.169  0.00  0.00    -0.265 OA
ATOM      2  N   UNL     1     -36.076  23.485   4.124  0.00  0.00    -0.250 N 
ATOM      3  C   UNL     1     -35.769  22.408   4.944  0.00  0.00    +0.307 C 
ENDROOT
BRANCH   2   4
ATOM      4  C   UNL     1     -36.014  23.377   2.756  0.00  0.00    +0.034 C 
ATOM      5  C   UNL     1     -37.105  23.066   2.016  0.00  0.00    +0.023 C 
ATOM      6  C   UNL     1     -34.636  23.618   2.202  0.00  0.00    +0.048 C 
BRANCH   5   7
ATOM      7  S   UNL     1     -36.972  22.860   0.271  0.00  0.00    -0.054 S 
BRANCH   7   9
ATOM      8  O   UNL     1     -36.498  25.461   0.042  0.00  0.00    -0.284 OA
ATOM      9  C   UNL     1     -37.183  24.505  -0.300  0.00  0.00    +0.203 C 
ATOM     10  C   UNL     1     -38.309  24.622  -1.288  0.00  0.00    +0.085 C 
ENDBRANCH   7   9
ENDBRANCH   5   7
BRANCH   5  11
ATOM     11  C   UNL     1     -38.484  22.828   2.610  0.00  0.00    +0.081 C 
BRANCH  11  12
ATOM     12  C   UNL     1     -39.501  23.893   2.199  0.00  0.00    +0.214 C 
BRANCH  12  13
ATOM     13  O   UNL     1     -39.043  25.193   2.543  0.00  0.00    -0.448 OA
BRANCH  13  15
ATOM     14  O   UNL     1     -39.103  27.179   1.363  0.00  0.00    -0.250 OA
ATOM     15  C   UNL     1     -39.660  26.231   1.899  0.00  0.00    +0.318 C 
ATOM     16  C   UNL     1     -41.147  26.045   1.941  0.00  0.00    +0.121 C 
ENDBRANCH  13  15
ENDBRANCH  12  13
ENDBRANCH  11  12
ENDBRANCH   5  11
ENDBRANCH   2   4
BRANCH   2  17
ATOM     17  C   UNL     1     -36.474  24.765   4.694  0.00  0.00    +0.130 C 
BRANCH  17  21
ATOM     18  N   UNL     1     -34.276  27.716   3.770  0.00  0.00    -0.340 NA
ATOM     19  N   UNL     1     -33.270  26.527   5.610  0.00  0.00    -0.186 NA
ATOM     20  N   UNL     1     -36.327  26.967   2.844  0.00  0.00    -0.332 N 
ATOM     21  C   UNL     1     -35.352  25.762   4.676  0.00  0.00    +0.062 C 
ATOM     22  C   UNL     1     -35.283  26.817   3.789  0.00  0.00    +0.187 C 
ATOM     23  C   UNL     1     -34.308  25.666   5.572  0.00  0.00    +0.111 C 
ATOM     24  C   UNL     1     -33.318  27.515   4.695  0.00  0.00    +0.066 C 
ATOM     25  C   UNL     1     -32.188  28.487   4.705  0.00  0.00    +0.129 C 
ATOM     26  H   UNL     1     -36.304  27.711   2.199  0.00  0.00    +0.145 HD
ATOM     27  H   UNL     1     -37.076  26.328   2.832  0.00  0.00    +0.145 HD
ENDBRANCH  17  21
ENDBRANCH   2  17
TORSDOF 9
ENDMDL
MODEL 5
REMARK VINA RESULT:      -5.2      2.685      5.995
REMARK  Name = 5748361
REMARK  9 active torsions:
REMARK  status: ('A' for Active; 'I' for Inactive)
REMARK    1  A    between atoms: N_2  and  C_4
REMARK    2  A    between atoms: N_2  and  C_17
REMARK    3  A    between atoms: C_5  and  S_7
REMARK    4  A    between atoms: C_5  and  C_11
REMARK    5  A    between atoms: S_7  and  C_9
REMARK    6  A    between atoms: C_11  and  C_12
REMARK    7  A    between atoms: C_12  and  O_13
REMARK    8  A    between atoms: O_13  and  C_15
REMARK    9  A    between atoms: C_17  and  C_21
REMARK                            x       y       z     vdW  Elec       q    Type
REMARK                         _______ _______ _______ _____ _____    ______ ____
ROOT
ATOM      1  O   UNL     1     -37.813  24.224  -1.689  0.00  0.00    -0.265 OA
ATOM      2  N   UNL     1     -37.422  24.034   0.614  0.00  0.00    -0.250 N 
ATOM      3  C   UNL     1     -37.563  23.567  -0.685  0.00  0.00    +0.307 C 
ENDROOT
BRANCH   2   4
ATOM      4  C   UNL     1     -37.140  23.177   1.650  0.00  0.00    +0.034 C 
ATOM      5  C   UNL     1     -35.892  23.068   2.166  0.00  0.00    +0.023 C 
ATOM      6  C   UNL     1     -38.336  22.389   2.112  0.00  0.00    +0.048 C 
BRANCH   5   7
ATOM      7  S   UNL     1     -35.551  21.903   3.442  0.00  0.00    -0.054 S 
BRANCH   7   9
ATOM      8  O   UNL     1     -36.722  23.762   4.931  0.00  0.00    -0.284 OA
ATOM      9  C   UNL     1     -35.928  22.830   4.883  0.00  0.00    +0.203 C 
ATOM     10  C   UNL     1     -35.172  22.342   6.086  0.00  0.00    +0.085 C 
ENDBRANCH   7   9
ENDBRANCH   5   7
BRANCH   5  11
ATOM     11  C   UNL     1     -34.706  23.881   1.673  0.00  0.00    +0.081 C 
BRANCH  11  12
ATOM     12  C   UNL     1     -34.124  24.798   2.749  0.00  0.00    +0.214 C 
BRANCH  12  13
ATOM     13  O   UNL     1     -35.060  25.800   3.124  0.00  0.00    -0.448 OA
BRANCH  13  15
ATOM     14  O   UNL     1     -34.658  27.947   3.877  0.00  0.00    -0.250 OA
ATOM     15  C   UNL     1     -34.608  26.733   4.016  0.00  0.00    +0.318 C 
ATOM     16  C   UNL     1     -34.027  26.050   5.218  0.00  0.00    +0.121 C 
ENDBRANCH  13  15
ENDBRANCH  12  13
ENDBRANCH  11  12
ENDBRANCH   5  11
ENDBRANCH   2   4
BRANCH   2  17
ATOM     17  C   UNL     1     -37.568  25.451   0.917  0.00  0.00    +0.130 C 
BRANCH  17  21
ATOM     18  N   UNL     1     -40.420  26.363   3.247  0.00  0.00    -0.340 NA
ATOM     19  N   UNL     1     -41.285  26.076   1.015  0.00  0.00    -0.186 NA
ATOM     20  N   UNL     1     -38.106  26.068   3.678  0.00  0.00    -0.332 N 
ATOM     21  C   UNL     1     -38.935  25.775   1.445  0.00  0.00    +0.062 C 
ATOM     22  C   UNL     1     -39.193  26.071   2.768  0.00  0.00    +0.187 C 
ATOM     23  C   UNL     1     -40.031  25.793   0.606  0.00  0.00    +0.111 C 
ATOM     24  C   UNL     1     -41.406  26.349   2.329  0.00  0.00    +0.066 C 
ATOM     25  C   UNL     1     -42.777  26.666   2.820  0.00  0.00    +0.129 C 
ATOM     26  H   UNL     1     -38.260  26.275   4.628  0.00  0.00    +0.145 HD
ATOM     27  H   UNL     1     -37.199  25.858   3.360  0.00  0.00    +0.145 HD
ENDBRANCH  17  21
ENDBRANCH   2  17
TORSDOF 9
ENDMDL
MODEL 6
REMARK VINA RESULT:      -5.2      3.214      6.965
REMARK  Name = 5748361
REMARK  9 active torsions:
REMARK  status: ('A' for Active; 'I' for Inactive)
REMARK    1  A    between atoms: N_2  and  C_4
REMARK    2  A    between atoms: N_2  and  C_17
REMARK    3  A    between atoms: C_5  and  S_7
REMARK    4  A    between atoms: C_5  and  C_11
REMARK    5  A    between atoms: S_7  and  C_9
REMARK    6  A    between atoms: C_11  and  C_12
REMARK    7  A    between atoms: C_12  and  O_13
REMARK    8  A    between atoms: O_13  and  C_15
REMARK    9  A    between atoms: C_17  and  C_21
REMARK                            x       y       z     vdW  Elec       q    Type
REMARK                         _______ _______ _______ _____ _____    ______ ____
ROOT
ATOM      1  O   UNL     1     -38.033  24.369   4.115  0.00  0.00    -0.265 OA
ATOM      2  N   UNL     1     -36.215  25.369   3.024  0.00  0.00    -0.250 N 
ATOM      3  C   UNL     1     -37.553  25.201   3.354  0.00  0.00    +0.307 C 
ENDROOT
BRANCH   2   4
ATOM      4  C   UNL     1     -35.818  26.351   2.148  0.00  0.00    +0.034 C 
ATOM      5  C   UNL     1     -35.048  27.391   2.546  0.00  0.00    +0.023 C 
ATOM      6  C   UNL     1     -36.338  26.147   0.751  0.00  0.00    +0.048 C 
BRANCH   5   7
ATOM      7  S   UNL     1     -34.622  28.672   1.414  0.00  0.00    -0.054 S 
BRANCH   7   9
ATOM      8  O   UNL     1     -37.028  29.753   1.118  0.00  0.00    -0.284 OA
ATOM      9  C   UNL     1     -35.930  29.816   1.658  0.00  0.00    +0.203 C 
ATOM     10  C   UNL     1     -35.563  30.897   2.634  0.00  0.00    +0.085 C 
ENDBRANCH   7   9
ENDBRANCH   5   7
BRANCH   5  11
ATOM     11  C   UNL     1     -34.540  27.565   3.968  0.00  0.00    +0.081 C 
BRANCH  11  12
ATOM     12  C   UNL     1     -33.015  27.619   4.053  0.00  0.00    +0.214 C 
BRANCH  12  13
ATOM     13  O   UNL     1     -32.590  28.669   4.911  0.00  0.00    -0.448 OA
BRANCH  13  15
ATOM     14  O   UNL     1     -32.091  27.141   6.570  0.00  0.00    -0.250 OA
ATOM     15  C   UNL     1     -32.106  28.282   6.131  0.00  0.00    +0.318 C 
ATOM     16  C   UNL     1     -31.586  29.475   6.876  0.00  0.00    +0.121 C 
ENDBRANCH  13  15
ENDBRANCH  12  13
ENDBRANCH  11  12
ENDBRANCH   5  11
ENDBRANCH   2   4
BRANCH   2  17
ATOM     17  C   UNL     1     -35.192  24.508   3.598  0.00  0.00    +0.130 C 
BRANCH  17  21
ATOM     18  N   UNL     1     -35.572  20.784   2.979  0.00  0.00    -0.340 NA
ATOM     19  N   UNL     1     -34.633  21.820   1.015  0.00  0.00    -0.186 NA
ATOM     20  N   UNL     1     -36.096  22.094   4.885  0.00  0.00    -0.332 N 
ATOM     21  C   UNL     1     -35.163  23.157   2.945  0.00  0.00    +0.062 C 
ATOM     22  C   UNL     1     -35.596  22.001   3.562  0.00  0.00    +0.187 C 
ATOM     23  C   UNL     1     -34.686  23.004   1.660  0.00  0.00    +0.111 C 
ATOM     24  C   UNL     1     -35.085  20.767   1.722  0.00  0.00    +0.066 C 
ATOM     25  C   UNL     1     -35.042  19.440   1.044  0.00  0.00    +0.129 C 
ATOM     26  H   UNL     1     -36.413  21.286   5.350  0.00  0.00    +0.145 HD
ATOM     27  H   UNL     1     -36.127  22.967   5.338  0.00  0.00    +0.145 HD
ENDBRANCH  17  21
ENDBRANCH   2  17
TORSDOF 9
ENDMDL
MODEL 7
REMARK VINA RESULT:      -5.2      2.217      4.594
REMARK  Name = 5748361
REMARK  9 active torsions:
REMARK  status: ('A' for Active; 'I' for Inactive)
REMARK    1  A    between atoms: N_2  and  C_4
REMARK    2  A    between atoms: N_2  and  C_17
REMARK    3  A    between atoms: C_5  and  S_7
REMARK    4  A    between atoms: C_5  and  C_11
REMARK    5  A    between atoms: S_7  and  C_9
REMARK    6  A    between atoms: C_11  and  C_12
REMARK    7  A    between atoms: C_12  and  O_13
REMARK    8  A    between atoms: O_13  and  C_15
REMARK    9  A    between atoms: C_17  and  C_21
REMARK                            x       y       z     vdW  Elec       q    Type
REMARK                         _______ _______ _______ _____ _____    ______ ____
ROOT
ATOM      1  O   UNL     1     -35.024  20.989   4.894  0.00  0.00    -0.265 OA
ATOM      2  N   UNL     1     -36.247  22.614   3.729  0.00  0.00    -0.250 N 
ATOM      3  C   UNL     1     -35.587  21.403   3.888  0.00  0.00    +0.307 C 
ENDROOT
BRANCH   2   4
ATOM      4  C   UNL     1     -36.837  22.949   2.534  0.00  0.00    +0.034 C 
ATOM      5  C   UNL     1     -36.103  23.243   1.434  0.00  0.00    +0.023 C 
ATOM      6  C   UNL     1     -38.341  22.968   2.598  0.00  0.00    +0.048 C 
BRANCH   5   7
ATOM      7  S   UNL     1     -36.892  23.743  -0.059  0.00  0.00    -0.054 S 
BRANCH   7   9
ATOM      8  O   UNL     1     -37.401  26.108   1.033  0.00  0.00    -0.284 OA
ATOM      9  C   UNL     1     -36.893  25.490   0.105  0.00  0.00    +0.203 C 
ATOM     10  C   UNL     1     -36.176  26.167  -1.029  0.00  0.00    +0.085 C 
ENDBRANCH   7   9
ENDBRANCH   5   7
BRANCH   5  11
ATOM     11  C   UNL     1     -34.583  23.213   1.405  0.00  0.00    +0.081 C 
BRANCH  11  12
ATOM     12  C   UNL     1     -34.026  22.216   0.389  0.00  0.00    +0.214 C 
BRANCH  12  13
ATOM     13  O   UNL     1     -34.474  20.897   0.673  0.00  0.00    -0.448 OA
BRANCH  13  15
ATOM     14  O   UNL     1     -33.596  19.013   1.680  0.00  0.00    -0.250 OA
ATOM     15  C   UNL     1     -33.495  19.981   0.939  0.00  0.00    +0.318 C 
ATOM     16  C   UNL     1     -32.249  20.331   0.182  0.00  0.00    +0.121 C 
ENDBRANCH  13  15
ENDBRANCH  12  13
ENDBRANCH  11  12
ENDBRANCH   5  11
ENDBRANCH   2   4
BRANCH   2  17
ATOM     17  C   UNL     1     -36.333  23.565   4.827  0.00  0.00    +0.130 C 
BRANCH  17  21
ATOM     18  N   UNL     1     -35.110  27.080   4.094  0.00  0.00    -0.340 NA
ATOM     19  N   UNL     1     -33.215  25.666   4.563  0.00  0.00    -0.186 NA
ATOM     20  N   UNL     1     -37.307  26.188   4.143  0.00  0.00    -0.332 N 
ATOM     21  C   UNL     1     -35.441  24.753   4.614  0.00  0.00    +0.062 C 
ATOM     22  C   UNL     1     -35.908  26.009   4.286  0.00  0.00    +0.187 C 
ATOM     23  C   UNL     1     -34.072  24.640   4.740  0.00  0.00    +0.111 C 
ATOM     24  C   UNL     1     -33.793  26.841   4.246  0.00  0.00    +0.066 C 
ATOM     25  C   UNL     1     -32.879  28.000   4.042  0.00  0.00    +0.129 C 
ATOM     26  H   UNL     1     -37.669  27.073   3.910  0.00  0.00    +0.145 HD
ATOM     27  H   UNL     1     -37.916  25.426   4.276  0.00  0.00    +0.145 HD
ENDBRANCH  17  21
ENDBRANCH   2  17
TORSDOF 9
ENDMDL
MODEL 8
REMARK VINA RESULT:      -5.1      3.710      7.208
REMARK  Name = 5748361
REMARK  9 active torsions:
REMARK  status: ('A' for Active; 'I' for Inactive)
REMARK    1  A    between atoms: N_2  and  C_4
REMARK    2  A    between atoms: N_2  and  C_17
REMARK    3  A    between atoms: C_5  and  S_7
REMARK    4  A    between atoms: C_5  and  C_11
REMARK    5  A    between atoms: S_7  and  C_9
REMARK    6  A    between atoms: C_11  and  C_12
REMARK    7  A    between atoms: C_12  and  O_13
REMARK    8  A    between atoms: O_13  and  C_15
REMARK    9  A    between atoms: C_17  and  C_21
REMARK                            x       y       z     vdW  Elec       q    Type
REMARK                         _______ _______ _______ _____ _____    ______ ____
ROOT
ATOM      1  O   UNL     1     -35.857  24.796  -0.098  0.00  0.00    -0.265 OA
ATOM      2  N   UNL     1     -35.630  26.386   1.609  0.00  0.00    -0.250 N 
ATOM      3  C   UNL     1     -35.300  25.760   0.416  0.00  0.00    +0.307 C 
ENDROOT
BRANCH   2   4
ATOM      4  C   UNL     1     -34.911  27.465   2.067  0.00  0.00    +0.034 C 
ATOM      5  C   UNL     1     -33.621  27.347   2.459  0.00  0.00    +0.023 C 
ATOM      6  C   UNL     1     -35.709  28.741   2.097  0.00  0.00    +0.048 C 
BRANCH   5   7
ATOM      7  S   UNL     1     -32.755  28.735   3.112  0.00  0.00    -0.054 S 
BRANCH   7   9
ATOM      8  O   UNL     1     -33.285  27.457   5.377  0.00  0.00    -0.284 OA
ATOM      9  C   UNL     1     -32.601  28.296   4.805  0.00  0.00    +0.203 C 
ATOM     10  C   UNL     1     -31.507  29.064   5.492  0.00  0.00    +0.085 C 
ENDBRANCH   7   9
ENDBRANCH   5   7
BRANCH   5  11
ATOM     11  C   UNL     1     -32.845  26.040   2.415  0.00  0.00    +0.081 C 
BRANCH  11  12
ATOM     12  C   UNL     1     -31.505  26.167   1.691  0.00  0.00    +0.214 C 
BRANCH  12  13
ATOM     13  O   UNL     1     -30.423  25.913   2.576  0.00  0.00    -0.448 OA
BRANCH  13  15
ATOM     14  O   UNL     1     -28.945  27.225   3.773  0.00  0.00    -0.250 OA
ATOM     15  C   UNL     1     -29.535  26.941   2.740  0.00  0.00    +0.318 C 
ATOM     16  C   UNL     1     -29.378  27.690   1.451  0.00  0.00    +0.121 C 
ENDBRANCH  13  15
ENDBRANCH  12  13
ENDBRANCH  11  12
ENDBRANCH   5  11
ENDBRANCH   2   4
BRANCH   2  17
ATOM     17  C   UNL     1     -36.750  25.918   2.413  0.00  0.00    +0.130 C 
BRANCH  17  21
ATOM     18  N   UNL     1     -35.706  24.304   5.683  0.00  0.00    -0.340 NA
ATOM     19  N   UNL     1     -35.762  22.623   3.956  0.00  0.00    -0.186 NA
ATOM     20  N   UNL     1     -36.259  26.554   5.179  0.00  0.00    -0.332 N 
ATOM     21  C   UNL     1     -36.324  24.905   3.435  0.00  0.00    +0.062 C 
ATOM     22  C   UNL     1     -36.089  25.211   4.760  0.00  0.00    +0.187 C 
ATOM     23  C   UNL     1     -36.142  23.583   3.087  0.00  0.00    +0.111 C 
ATOM     24  C   UNL     1     -35.564  23.047   5.219  0.00  0.00    +0.066 C 
ATOM     25  C   UNL     1     -35.142  22.016   6.209  0.00  0.00    +0.129 C 
ATOM     26  H   UNL     1     -36.099  26.801   6.118  0.00  0.00    +0.145 HD
ATOM     27  H   UNL     1     -36.537  27.240   4.530  0.00  0.00    +0.145 HD
ENDBRANCH  17  21
ENDBRANCH   2  17
TORSDOF 9
ENDMDL
MODEL 9
REMARK VINA RESULT:      -5.1      1.958      3.663
REMARK  Name = 5748361
REMARK  9 active torsions:
REMARK  status: ('A' for Active; 'I' for Inactive)
REMARK    1  A    between atoms: N_2  and  C_4
REMARK    2  A    between atoms: N_2  and  C_17
REMARK    3  A    between atoms: C_5  and  S_7
REMARK    4  A    between atoms: C_5  and  C_11
REMARK    5  A    between atoms: S_7  and  C_9
REMARK    6  A    between atoms: C_11  and  C_12
REMARK    7  A    between atoms: C_12  and  O_13
REMARK    8  A    between atoms: O_13  and  C_15
REMARK    9  A    between atoms: C_17  and  C_21
REMARK                            x       y       z     vdW  Elec       q    Type
REMARK                         _______ _______ _______ _____ _____    ______ ____
ROOT
ATOM      1  O   UNL     1     -35.191  20.987   2.788  0.00  0.00    -0.265 OA
ATOM      2  N   UNL     1     -36.448  22.939   2.466  0.00  0.00    -0.250 N 
ATOM      3  C   UNL     1     -35.766  21.797   2.071  0.00  0.00    +0.307 C 
ENDROOT
BRANCH   2   4
ATOM      4  C   UNL     1     -37.050  23.762   1.544  0.00  0.00    +0.034 C 
ATOM      5  C   UNL     1     -38.397  23.816   1.410  0.00  0.00    +0.023 C 
ATOM      6  C   UNL     1     -36.068  24.551   0.721  0.00  0.00    +0.048 C 
BRANCH   5   7
ATOM      7  S   UNL     1     -39.130  24.825   0.166  0.00  0.00    -0.054 S 
BRANCH   7   9
ATOM      8  O   UNL     1     -38.798  27.020   1.620  0.00  0.00    -0.284 OA
ATOM      9  C   UNL     1     -39.585  26.250   1.083  0.00  0.00    +0.203 C 
ATOM     10  C   UNL     1     -41.074  26.443   1.130  0.00  0.00    +0.085 C 
ENDBRANCH   7   9
ENDBRANCH   5   7
BRANCH   5  11
ATOM     11  C   UNL     1     -39.360  23.004   2.260  0.00  0.00    +0.081 C 
BRANCH  11  12
ATOM     12  C   UNL     1     -39.435  21.536   1.838  0.00  0.00    +0.214 C 
BRANCH  12  13
ATOM     13  O   UNL     1     -40.665  21.257   1.184  0.00  0.00    -0.448 OA
BRANCH  13  15
ATOM     14  O   UNL     1     -39.956  19.947  -0.582  0.00  0.00    -0.250 OA
ATOM     15  C   UNL     1     -40.570  20.906  -0.135  0.00  0.00    +0.318 C 
ATOM     16  C   UNL     1     -41.339  21.877  -0.979  0.00  0.00    +0.121 C 
ENDBRANCH  13  15
ENDBRANCH  12  13
ENDBRANCH  11  12
ENDBRANCH   5  11
ENDBRANCH   2   4
BRANCH   2  17
ATOM     17  C   UNL     1     -36.547  23.298   3.874  0.00  0.00    +0.130 C 
BRANCH  17  21
ATOM     18  N   UNL     1     -35.225  26.740   4.768  0.00  0.00    -0.340 NA
ATOM     19  N   UNL     1     -33.386  25.184   4.689  0.00  0.00    -0.186 NA
ATOM     20  N   UNL     1     -37.434  26.002   4.319  0.00  0.00    -0.332 N 
ATOM     21  C   UNL     1     -35.625  24.427   4.232  0.00  0.00    +0.062 C 
ATOM     22  C   UNL     1     -36.051  25.722   4.445  0.00  0.00    +0.187 C 
ATOM     23  C   UNL     1     -34.268  24.215   4.368  0.00  0.00    +0.111 C 
ATOM     24  C   UNL     1     -33.925  26.405   4.872  0.00  0.00    +0.066 C 
ATOM     25  C   UNL     1     -32.981  27.503   5.227  0.00  0.00    +0.129 C 
ATOM     26  H   UNL     1     -37.767  26.917   4.465  0.00  0.00    +0.145 HD
ATOM     27  H   UNL     1     -38.062  25.281   4.084  0.00  0.00    +0.145 HD
ENDBRANCH  17  21
ENDBRANCH   2  17
TORSDOF 9
ENDMDL
