MODEL 1
REMARK VINA RESULT:      -6.5      0.000      0.000
REMARK  Name = 53356806
REMARK  7 active torsions:
REMARK  status: ('A' for Active; 'I' for Inactive)
REMARK    1  A    between atoms: N_1  and  C_28
REMARK    2  A    between atoms: C_3  and  C_8
REMARK    3  A    between atoms: C_4  and  C_19
REMARK    4  A    between atoms: N_17  and  C_24
REMARK    5  A    between atoms: C_24  and  C_25
REMARK    6  A    between atoms: C_25  and  C_27
REMARK    7  A    between atoms: C_28  and  C_31
REMARK                            x       y       z     vdW  Elec       q    Type
REMARK                         _______ _______ _______ _____ _____    ______ ____
ROOT
ATOM      1  N   UNL     1     -36.473  23.809   4.313  0.00  0.00    -0.204 N 
ATOM      2  N   UNL     1     -36.932  22.755   3.618  0.00  0.00    -0.178 NA
ATOM      3  C   UNL     1     -37.687  23.321   2.672  0.00  0.00    +0.104 C 
ATOM      4  C   UNL     1     -37.709  24.726   2.763  0.00  0.00    +0.066 C 
ATOM      5  C   UNL     1     -36.909  25.013   3.842  0.00  0.00    +0.088 C 
ENDROOT
BRANCH   3   8
ATOM      6  N   UNL     1     -40.263  20.203  -1.035  0.00  0.00    -0.297 N 
ATOM      7  N   UNL     1     -40.318  21.133   1.187  0.00  0.00    -0.229 NA
ATOM      8  C   UNL     1     -38.366  22.504   1.709  0.00  0.00    +0.039 C 
ATOM      9  C   UNL     1     -38.525  21.476  -0.450  0.00  0.00    +0.033 C 
ATOM     10  C   UNL     1     -37.811  22.285   0.449  0.00  0.00    +0.006 C 
ATOM     11  C   UNL     1     -39.739  20.953  -0.016  0.00  0.00    +0.132 C 
ATOM     12  C   UNL     1     -39.587  21.918   2.011  0.00  0.00    +0.102 C 
ATOM     13  C   UNL     1     -38.330  21.016  -1.780  0.00  0.00    +0.019 C 
ATOM     14  C   UNL     1     -39.416  20.235  -2.113  0.00  0.00    +0.063 C 
ATOM     15  H   UNL     1     -41.118  19.715  -1.000  0.00  0.00    +0.154 HD
ENDBRANCH   3   8
BRANCH   4  19
ATOM     16  N   UNL     1     -39.707  25.804   2.131  0.00  0.00    -0.338 NA
ATOM     17  N   UNL     1     -41.710  26.860   1.518  0.00  0.00    -0.267 N 
ATOM     18  N   UNL     1     -39.718  27.602   0.526  0.00  0.00    -0.170 NA
ATOM     19  C   UNL     1     -38.368  25.726   1.979  0.00  0.00    +0.148 C 
ATOM     20  C   UNL     1     -37.644  26.540   1.131  0.00  0.00    +0.055 C 
ATOM     21  C   UNL     1     -40.309  26.750   1.386  0.00  0.00    +0.145 C 
ATOM     22  C   UNL     1     -38.379  27.469   0.423  0.00  0.00    +0.114 C 
ATOM     23  H   UNL     1     -42.182  27.542   0.987  0.00  0.00    +0.159 HD
BRANCH  17  24
ATOM     24  C   UNL     1     -42.473  26.024   2.392  0.00  0.00    +0.114 C 
BRANCH  24  25
ATOM     25  C   UNL     1     -43.379  26.861   3.291  0.00  0.00    +0.127 C 
BRANCH  25  27
ATOM     26  N   UNL     1     -42.061  28.803   4.480  0.00  0.00    -0.196 NA
ATOM     27  C   UNL     1     -42.641  27.946   3.956  0.00  0.00    +0.075 C 
ENDBRANCH  25  27
ENDBRANCH  24  25
ENDBRANCH  17  24
ENDBRANCH   4  19
BRANCH   1  28
ATOM     28  C   UNL     1     -35.598  23.596   5.442  0.00  0.00    +0.188 C 
BRANCH  28  31
ATOM     29  F   UNL     1     -36.119  21.870   6.971  0.00  0.00    -0.196 F 
ATOM     30  F   UNL     1     -34.173  21.792   5.991  0.00  0.00    -0.196 F 
ATOM     31  C   UNL     1     -35.473  22.127   5.807  0.00  0.00    +0.340 C 
ENDBRANCH  28  31
ENDBRANCH   1  28
TORSDOF 7
ENDMDL
MODEL 2
REMARK VINA RESULT:      -6.5      4.079      5.760
REMARK  Name = 53356806
REMARK  7 active torsions:
REMARK  status: ('A' for Active; 'I' for Inactive)
REMARK    1  A    between atoms: N_1  and  C_28
REMARK    2  A    between atoms: C_3  and  C_8
REMARK    3  A    between atoms: C_4  and  C_19
REMARK    4  A    between atoms: N_17  and  C_24
REMARK    5  A    between atoms: C_24  and  C_25
REMARK    6  A    between atoms: C_25  and  C_27
REMARK    7  A    between atoms: C_28  and  C_31
REMARK                            x       y       z     vdW  Elec       q    Type
REMARK                         _______ _______ _______ _____ _____    ______ ____
ROOT
ATOM      1  N   UNL     1     -32.315  28.325   4.677  0.00  0.00    -0.204 N 
ATOM      2  N   UNL     1     -32.722  27.065   4.906  0.00  0.00    -0.178 NA
ATOM      3  C   UNL     1     -33.815  26.956   4.145  0.00  0.00    +0.104 C 
ATOM      4  C   UNL     1     -34.103  28.138   3.436  0.00  0.00    +0.066 C 
ATOM      5  C   UNL     1     -33.108  29.011   3.804  0.00  0.00    +0.088 C 
ENDROOT
BRANCH   3   8
ATOM      6  N   UNL     1     -36.625  22.246   4.012  0.00  0.00    -0.297 N 
ATOM      7  N   UNL     1     -36.261  24.330   5.164  0.00  0.00    -0.229 NA
ATOM      8  C   UNL     1     -34.553  25.727   4.118  0.00  0.00    +0.039 C 
ATOM      9  C   UNL     1     -35.082  23.603   3.140  0.00  0.00    +0.033 C 
ATOM     10  C   UNL     1     -34.327  24.787   3.113  0.00  0.00    +0.006 C 
ATOM     11  C   UNL     1     -36.004  23.456   4.172  0.00  0.00    +0.132 C 
ATOM     12  C   UNL     1     -35.506  25.450   5.088  0.00  0.00    +0.102 C 
ATOM     13  C   UNL     1     -35.166  22.432   2.342  0.00  0.00    +0.019 C 
ATOM     14  C   UNL     1     -36.125  21.615   2.902  0.00  0.00    +0.063 C 
ATOM     15  H   UNL     1     -37.324  21.884   4.603  0.00  0.00    +0.154 HD
ENDBRANCH   3   8
BRANCH   4  19
ATOM     16  N   UNL     1     -35.983  27.466   2.184  0.00  0.00    -0.338 NA
ATOM     17  N   UNL     1     -37.852  26.772   0.948  0.00  0.00    -0.267 N 
ATOM     18  N   UNL     1     -37.183  29.014   0.780  0.00  0.00    -0.170 NA
ATOM     19  C   UNL     1     -35.151  28.474   2.521  0.00  0.00    +0.148 C 
ATOM     20  C   UNL     1     -35.270  29.760   2.035  0.00  0.00    +0.055 C 
ATOM     21  C   UNL     1     -36.962  27.801   1.323  0.00  0.00    +0.145 C 
ATOM     22  C   UNL     1     -36.315  29.974   1.159  0.00  0.00    +0.114 C 
ATOM     23  H   UNL     1     -38.580  26.982   0.319  0.00  0.00    +0.159 HD
BRANCH  17  24
ATOM     24  C   UNL     1     -37.742  25.434   1.442  0.00  0.00    +0.114 C 
BRANCH  24  25
ATOM     25  C   UNL     1     -38.778  25.170   2.530  0.00  0.00    +0.127 C 
BRANCH  25  27
ATOM     26  N   UNL     1     -40.012  22.875   2.173  0.00  0.00    -0.196 NA
ATOM     27  C   UNL     1     -39.469  23.887   2.331  0.00  0.00    +0.075 C 
ENDBRANCH  25  27
ENDBRANCH  24  25
ENDBRANCH  17  24
ENDBRANCH   4  19
BRANCH   1  28
ATOM     28  C   UNL     1     -31.132  28.826   5.335  0.00  0.00    +0.188 C 
BRANCH  28  31
ATOM     29  F   UNL     1     -32.191  28.771   7.448  0.00  0.00    -0.196 F 
ATOM     30  F   UNL     1     -32.190  30.668   6.373  0.00  0.00    -0.196 F 
ATOM     31  C   UNL     1     -31.455  29.558   6.627  0.00  0.00    +0.340 C 
ENDBRANCH  28  31
ENDBRANCH   1  28
TORSDOF 7
ENDMDL
MODEL 3
REMARK VINA RESULT:      -6.3      3.294      5.451
REMARK  Name = 53356806
REMARK  7 active torsions:
REMARK  status: ('A' for Active; 'I' for Inactive)
REMARK    1  A    between atoms: N_1  and  C_28
REMARK    2  A    between atoms: C_3  and  C_8
REMARK    3  A    between atoms: C_4  and  C_19
REMARK    4  A    between atoms: N_17  and  C_24
REMARK    5  A    between atoms: C_24  and  C_25
REMARK    6  A    between atoms: C_25  and  C_27
REMARK    7  A    between atoms: C_28  and  C_31
REMARK                            x       y       z     vdW  Elec       q    Type
REMARK                         _______ _______ _______ _____ _____    ______ ____
ROOT
ATOM      1  N   UNL     1     -35.032  19.705   1.103  0.00  0.00    -0.204 N 
ATOM      2  N   UNL     1     -36.196  20.133   0.586  0.00  0.00    -0.178 NA
ATOM      3  C   UNL     1     -36.607  21.041   1.475  0.00  0.00    +0.104 C 
ATOM      4  C   UNL     1     -35.713  21.191   2.553  0.00  0.00    +0.066 C 
ATOM      5  C   UNL     1     -34.697  20.307   2.281  0.00  0.00    +0.088 C 
ENDROOT
BRANCH   3   8
ATOM      6  N   UNL     1     -41.321  23.734   0.681  0.00  0.00    -0.297 N 
ATOM      7  N   UNL     1     -40.248  21.825   1.686  0.00  0.00    -0.229 NA
ATOM      8  C   UNL     1     -37.844  21.739   1.271  0.00  0.00    +0.039 C 
ATOM      9  C   UNL     1     -39.118  23.554   0.364  0.00  0.00    +0.033 C 
ATOM     10  C   UNL     1     -37.877  22.917   0.528  0.00  0.00    +0.006 C 
ATOM     11  C   UNL     1     -40.226  22.960   0.960  0.00  0.00    +0.132 C 
ATOM     12  C   UNL     1     -39.028  21.255   1.810  0.00  0.00    +0.102 C 
ATOM     13  C   UNL     1     -39.582  24.726  -0.290  0.00  0.00    +0.019 C 
ATOM     14  C   UNL     1     -40.941  24.811  -0.078  0.00  0.00    +0.063 C 
ATOM     15  H   UNL     1     -42.240  23.546   0.978  0.00  0.00    +0.154 HD
ENDBRANCH   3   8
BRANCH   4  19
ATOM     16  N   UNL     1     -36.243  23.269   3.528  0.00  0.00    -0.338 NA
ATOM     17  N   UNL     1     -36.779  25.347   4.476  0.00  0.00    -0.267 N 
ATOM     18  N   UNL     1     -35.843  23.704   5.865  0.00  0.00    -0.170 NA
ATOM     19  C   UNL     1     -35.743  22.029   3.712  0.00  0.00    +0.148 C 
ATOM     20  C   UNL     1     -35.281  21.561   4.925  0.00  0.00    +0.055 C 
ATOM     21  C   UNL     1     -36.263  24.042   4.630  0.00  0.00    +0.145 C 
ATOM     22  C   UNL     1     -35.356  22.451   5.977  0.00  0.00    +0.114 C 
ATOM     23  H   UNL     1     -36.808  25.939   5.262  0.00  0.00    +0.159 HD
BRANCH  17  24
ATOM     24  C   UNL     1     -37.261  25.846   3.226  0.00  0.00    +0.114 C 
BRANCH  24  25
ATOM     25  C   UNL     1     -36.186  26.663   2.516  0.00  0.00    +0.127 C 
BRANCH  25  27
ATOM     26  N   UNL     1     -34.335  27.512   4.182  0.00  0.00    -0.196 NA
ATOM     27  C   UNL     1     -35.151  27.137   3.448  0.00  0.00    +0.075 C 
ENDBRANCH  25  27
ENDBRANCH  24  25
ENDBRANCH  17  24
ENDBRANCH   4  19
BRANCH   1  28
ATOM     28  C   UNL     1     -34.267  18.698   0.407  0.00  0.00    +0.188 C 
BRANCH  28  31
ATOM     29  F   UNL     1     -31.997  19.023   0.982  0.00  0.00    -0.196 F 
ATOM     30  F   UNL     1     -32.715  16.969   0.842  0.00  0.00    -0.196 F 
ATOM     31  C   UNL     1     -33.067  18.224   1.211  0.00  0.00    +0.340 C 
ENDBRANCH  28  31
ENDBRANCH   1  28
TORSDOF 7
ENDMDL
MODEL 4
REMARK VINA RESULT:      -6.2      2.874      5.664
REMARK  Name = 53356806
REMARK  7 active torsions:
REMARK  status: ('A' for Active; 'I' for Inactive)
REMARK    1  A    between atoms: N_1  and  C_28
REMARK    2  A    between atoms: C_3  and  C_8
REMARK    3  A    between atoms: C_4  and  C_19
REMARK    4  A    between atoms: N_17  and  C_24
REMARK    5  A    between atoms: C_24  and  C_25
REMARK    6  A    between atoms: C_25  and  C_27
REMARK    7  A    between atoms: C_28  and  C_31
REMARK                            x       y       z     vdW  Elec       q    Type
REMARK                         _______ _______ _______ _____ _____    ______ ____
ROOT
ATOM      1  N   UNL     1     -36.836  21.407   2.266  0.00  0.00    -0.204 N 
ATOM      2  N   UNL     1     -37.931  22.064   1.850  0.00  0.00    -0.178 NA
ATOM      3  C   UNL     1     -37.794  23.268   2.412  0.00  0.00    +0.104 C 
ATOM      4  C   UNL     1     -36.619  23.378   3.181  0.00  0.00    +0.066 C 
ATOM      5  C   UNL     1     -36.017  22.149   3.066  0.00  0.00    +0.088 C 
ENDROOT
BRANCH   3   8
ATOM      6  N   UNL     1     -41.610  27.131   1.630  0.00  0.00    -0.297 N 
ATOM      7  N   UNL     1     -39.858  25.815   0.631  0.00  0.00    -0.229 NA
ATOM      8  C   UNL     1     -38.789  24.279   2.200  0.00  0.00    +0.039 C 
ATOM      9  C   UNL     1     -40.562  25.692   2.976  0.00  0.00    +0.033 C 
ATOM     10  C   UNL     1     -39.607  24.699   3.247  0.00  0.00    +0.006 C 
ATOM     11  C   UNL     1     -40.623  26.184   1.676  0.00  0.00    +0.132 C 
ATOM     12  C   UNL     1     -38.957  24.858   0.949  0.00  0.00    +0.102 C 
ATOM     13  C   UNL     1     -41.557  26.378   3.723  0.00  0.00    +0.019 C 
ATOM     14  C   UNL     1     -42.186  27.257   2.868  0.00  0.00    +0.063 C 
ATOM     15  H   UNL     1     -41.868  27.645   0.830  0.00  0.00    +0.154 HD
ENDBRANCH   3   8
BRANCH   4  19
ATOM     16  N   UNL     1     -35.943  25.632   3.295  0.00  0.00    -0.338 NA
ATOM     17  N   UNL     1     -35.276  27.880   3.382  0.00  0.00    -0.267 N 
ATOM     18  N   UNL     1     -35.042  26.579   5.320  0.00  0.00    -0.170 NA
ATOM     19  C   UNL     1     -36.074  24.458   3.946  0.00  0.00    +0.148 C 
ATOM     20  C   UNL     1     -35.716  24.269   5.266  0.00  0.00    +0.055 C 
ATOM     21  C   UNL     1     -35.428  26.636   4.031  0.00  0.00    +0.145 C 
ATOM     22  C   UNL     1     -35.200  25.376   5.909  0.00  0.00    +0.114 C 
ATOM     23  H   UNL     1     -34.902  28.635   3.892  0.00  0.00    +0.159 HD
BRANCH  17  24
ATOM     24  C   UNL     1     -35.641  28.091   2.016  0.00  0.00    +0.114 C 
BRANCH  24  25
ATOM     25  C   UNL     1     -35.693  29.581   1.692  0.00  0.00    +0.127 C 
BRANCH  25  27
ATOM     26  N   UNL     1     -34.743  31.047   3.658  0.00  0.00    -0.196 NA
ATOM     27  C   UNL     1     -35.163  30.401   2.791  0.00  0.00    +0.075 C 
ENDBRANCH  25  27
ENDBRANCH  24  25
ENDBRANCH  17  24
ENDBRANCH   4  19
BRANCH   1  28
ATOM     28  C   UNL     1     -36.621  20.041   1.852  0.00  0.00    +0.188 C 
BRANCH  28  31
ATOM     29  F   UNL     1     -34.314  19.671   2.214  0.00  0.00    -0.196 F 
ATOM     30  F   UNL     1     -34.879  20.911   0.512  0.00  0.00    -0.196 F 
ATOM     31  C   UNL     1     -35.246  19.830   1.242  0.00  0.00    +0.340 C 
ENDBRANCH  28  31
ENDBRANCH   1  28
TORSDOF 7
ENDMDL
MODEL 5
REMARK VINA RESULT:      -6.2      3.486      7.100
REMARK  Name = 53356806
REMARK  7 active torsions:
REMARK  status: ('A' for Active; 'I' for Inactive)
REMARK    1  A    between atoms: N_1  and  C_28
REMARK    2  A    between atoms: C_3  and  C_8
REMARK    3  A    between atoms: C_4  and  C_19
REMARK    4  A    between atoms: N_17  and  C_24
REMARK    5  A    between atoms: C_24  and  C_25
REMARK    6  A    between atoms: C_25  and  C_27
REMARK    7  A    between atoms: C_28  and  C_31
REMARK                            x       y       z     vdW  Elec       q    Type
REMARK                         _______ _______ _______ _____ _____    ______ ____
ROOT
ATOM      1  N   UNL     1     -33.858  26.972   4.415  0.00  0.00    -0.204 N 
ATOM      2  N   UNL     1     -35.050  27.191   3.835  0.00  0.00    -0.178 NA
ATOM      3  C   UNL     1     -35.622  25.984   3.849  0.00  0.00    +0.104 C 
ATOM      4  C   UNL     1     -34.800  25.001   4.434  0.00  0.00    +0.066 C 
ATOM      5  C   UNL     1     -33.659  25.676   4.792  0.00  0.00    +0.088 C 
ENDROOT
BRANCH   3   8
ATOM      6  N   UNL     1     -40.640  25.315   1.737  0.00  0.00    -0.297 N 
ATOM      7  N   UNL     1     -39.108  24.705   3.493  0.00  0.00    -0.229 NA
ATOM      8  C   UNL     1     -36.935  25.803   3.303  0.00  0.00    +0.039 C 
ATOM      9  C   UNL     1     -38.620  26.261   1.661  0.00  0.00    +0.033 C 
ATOM     10  C   UNL     1     -37.321  26.479   2.147  0.00  0.00    +0.006 C 
ATOM     11  C   UNL     1     -39.430  25.383   2.374  0.00  0.00    +0.132 C 
ATOM     12  C   UNL     1     -37.847  24.953   3.914  0.00  0.00    +0.102 C 
ATOM     13  C   UNL     1     -39.387  26.728   0.561  0.00  0.00    +0.019 C 
ATOM     14  C   UNL     1     -40.626  26.129   0.634  0.00  0.00    +0.063 C 
ATOM     15  H   UNL     1     -41.405  24.765   2.026  0.00  0.00    +0.154 HD
ENDBRANCH   3   8
BRANCH   4  19
ATOM     16  N   UNL     1     -35.076  22.833   3.552  0.00  0.00    -0.338 NA
ATOM     17  N   UNL     1     -35.350  20.685   2.648  0.00  0.00    -0.267 N 
ATOM     18  N   UNL     1     -35.366  20.916   4.983  0.00  0.00    -0.170 NA
ATOM     19  C   UNL     1     -34.995  23.600   4.659  0.00  0.00    +0.148 C 
ATOM     20  C   UNL     1     -35.089  23.105   5.944  0.00  0.00    +0.055 C 
ATOM     21  C   UNL     1     -35.259  21.520   3.783  0.00  0.00    +0.145 C 
ATOM     22  C   UNL     1     -35.277  21.742   6.046  0.00  0.00    +0.114 C 
ATOM     23  H   UNL     1     -35.484  19.719   2.782  0.00  0.00    +0.159 HD
BRANCH  17  24
ATOM     24  C   UNL     1     -35.254  21.184   1.311  0.00  0.00    +0.114 C 
BRANCH  24  25
ATOM     25  C   UNL     1     -33.917  20.802   0.684  0.00  0.00    +0.127 C 
BRANCH  25  27
ATOM     26  N   UNL     1     -33.061  18.465   1.535  0.00  0.00    -0.196 NA
ATOM     27  C   UNL     1     -33.439  19.496   1.161  0.00  0.00    +0.075 C 
ENDBRANCH  25  27
ENDBRANCH  24  25
ENDBRANCH  17  24
ENDBRANCH   4  19
BRANCH   1  28
ATOM     28  C   UNL     1     -32.934  28.067   4.588  0.00  0.00    +0.188 C 
BRANCH  28  31
ATOM     29  F   UNL     1     -32.617  28.027   6.930  0.00  0.00    -0.196 F 
ATOM     30  F   UNL     1     -30.958  28.730   5.703  0.00  0.00    -0.196 F 
ATOM     31  C   UNL     1     -31.980  27.841   5.749  0.00  0.00    +0.340 C 
ENDBRANCH  28  31
ENDBRANCH   1  28
TORSDOF 7
ENDMDL
MODEL 6
REMARK VINA RESULT:      -6.2      4.334      6.909
REMARK  Name = 53356806
REMARK  7 active torsions:
REMARK  status: ('A' for Active; 'I' for Inactive)
REMARK    1  A    between atoms: N_1  and  C_28
REMARK    2  A    between atoms: C_3  and  C_8
REMARK    3  A    between atoms: C_4  and  C_19
REMARK    4  A    between atoms: N_17  and  C_24
REMARK    5  A    between atoms: C_24  and  C_25
REMARK    6  A    between atoms: C_25  and  C_27
REMARK    7  A    between atoms: C_28  and  C_31
REMARK                            x       y       z     vdW  Elec       q    Type
REMARK                         _______ _______ _______ _____ _____    ______ ____
ROOT
ATOM      1  N   UNL     1     -38.349  21.321   1.054  0.00  0.00    -0.204 N 
ATOM      2  N   UNL     1     -37.265  20.805   0.451  0.00  0.00    -0.178 NA
ATOM      3  C   UNL     1     -36.276  21.106   1.298  0.00  0.00    +0.104 C 
ATOM      4  C   UNL     1     -36.726  21.809   2.432  0.00  0.00    +0.066 C 
ATOM      5  C   UNL     1     -38.081  21.933   2.243  0.00  0.00    +0.088 C 
ENDROOT
BRANCH   3   8
ATOM      6  N   UNL     1     -31.127  19.582   0.173  0.00  0.00    -0.297 N 
ATOM      7  N   UNL     1     -32.807  21.293  -0.061  0.00  0.00    -0.229 NA
ATOM      8  C   UNL     1     -34.929  20.715   0.999  0.00  0.00    +0.039 C 
ATOM      9  C   UNL     1     -33.110  19.157   1.106  0.00  0.00    +0.033 C 
ATOM     10  C   UNL     1     -34.437  19.483   1.429  0.00  0.00    +0.006 C 
ATOM     11  C   UNL     1     -32.381  20.093   0.378  0.00  0.00    +0.132 C 
ATOM     12  C   UNL     1     -34.090  21.553   0.278  0.00  0.00    +0.102 C 
ATOM     13  C   UNL     1     -32.248  18.053   1.338  0.00  0.00    +0.019 C 
ATOM     14  C   UNL     1     -31.034  18.343   0.753  0.00  0.00    +0.063 C 
ATOM     15  H   UNL     1     -30.403  20.035  -0.317  0.00  0.00    +0.154 HD
ENDBRANCH   3   8
BRANCH   4  19
ATOM     16  N   UNL     1     -35.898  23.665   3.623  0.00  0.00    -0.338 NA
ATOM     17  N   UNL     1     -35.082  25.530   4.790  0.00  0.00    -0.267 N 
ATOM     18  N   UNL     1     -34.733  23.404   5.717  0.00  0.00    -0.170 NA
ATOM     19  C   UNL     1     -36.036  22.324   3.576  0.00  0.00    +0.148 C 
ATOM     20  C   UNL     1     -35.556  21.468   4.546  0.00  0.00    +0.055 C 
ATOM     21  C   UNL     1     -35.246  24.131   4.706  0.00  0.00    +0.145 C 
ATOM     22  C   UNL     1     -34.907  22.071   5.605  0.00  0.00    +0.114 C 
ATOM     23  H   UNL     1     -34.610  25.904   5.569  0.00  0.00    +0.159 HD
BRANCH  17  24
ATOM     24  C   UNL     1     -35.573  26.429   3.792  0.00  0.00    +0.114 C 
BRANCH  24  25
ATOM     25  C   UNL     1     -34.463  27.352   3.299  0.00  0.00    +0.127 C 
BRANCH  25  27
ATOM     26  N   UNL     1     -32.430  27.422   4.967  0.00  0.00    -0.196 NA
ATOM     27  C   UNL     1     -33.326  27.390   4.231  0.00  0.00    +0.075 C 
ENDBRANCH  25  27
ENDBRANCH  24  25
ENDBRANCH  17  24
ENDBRANCH   4  19
BRANCH   1  28
ATOM     28  C   UNL     1     -39.644  21.191   0.430  0.00  0.00    +0.188 C 
BRANCH  28  31
ATOM     29  F   UNL     1     -39.122  23.253  -0.601  0.00  0.00    -0.196 F 
ATOM     30  F   UNL     1     -40.760  23.234   0.838  0.00  0.00    -0.196 F 
ATOM     31  C   UNL     1     -40.152  22.508  -0.131  0.00  0.00    +0.340 C 
ENDBRANCH  28  31
ENDBRANCH   1  28
TORSDOF 7
ENDMDL
MODEL 7
REMARK VINA RESULT:      -6.2      3.886      8.638
REMARK  Name = 53356806
REMARK  7 active torsions:
REMARK  status: ('A' for Active; 'I' for Inactive)
REMARK    1  A    between atoms: N_1  and  C_28
REMARK    2  A    between atoms: C_3  and  C_8
REMARK    3  A    between atoms: C_4  and  C_19
REMARK    4  A    between atoms: N_17  and  C_24
REMARK    5  A    between atoms: C_24  and  C_25
REMARK    6  A    between atoms: C_25  and  C_27
REMARK    7  A    between atoms: C_28  and  C_31
REMARK                            x       y       z     vdW  Elec       q    Type
REMARK                         _______ _______ _______ _____ _____    ______ ____
ROOT
ATOM      1  N   UNL     1     -38.669  25.205   2.495  0.00  0.00    -0.204 N 
ATOM      2  N   UNL     1     -37.740  26.139   2.763  0.00  0.00    -0.178 NA
ATOM      3  C   UNL     1     -36.754  25.433   3.323  0.00  0.00    +0.104 C 
ATOM      4  C   UNL     1     -37.051  24.059   3.411  0.00  0.00    +0.066 C 
ATOM      5  C   UNL     1     -38.305  23.943   2.864  0.00  0.00    +0.088 C 
ENDROOT
BRANCH   3   8
ATOM      6  N   UNL     1     -32.178  27.939   5.020  0.00  0.00    -0.297 N 
ATOM      7  N   UNL     1     -33.660  27.513   3.170  0.00  0.00    -0.229 NA
ATOM      8  C   UNL     1     -35.556  26.090   3.759  0.00  0.00    +0.039 C 
ATOM      9  C   UNL     1     -33.948  26.647   5.446  0.00  0.00    +0.033 C 
ATOM     10  C   UNL     1     -35.128  25.980   5.080  0.00  0.00    +0.006 C 
ATOM     11  C   UNL     1     -33.291  27.374   4.458  0.00  0.00    +0.132 C 
ATOM     12  C   UNL     1     -34.801  26.849   2.874  0.00  0.00    +0.102 C 
ATOM     13  C   UNL     1     -33.189  26.793   6.638  0.00  0.00    +0.019 C 
ATOM     14  C   UNL     1     -32.106  27.594   6.345  0.00  0.00    +0.063 C 
ATOM     15  H   UNL     1     -31.528  28.506   4.546  0.00  0.00    +0.154 HD
ENDBRANCH   3   8
BRANCH   4  19
ATOM     16  N   UNL     1     -35.935  22.020   3.022  0.00  0.00    -0.338 NA
ATOM     17  N   UNL     1     -34.831  19.992   2.608  0.00  0.00    -0.267 N 
ATOM     18  N   UNL     1     -34.883  20.796   4.812  0.00  0.00    -0.170 NA
ATOM     19  C   UNL     1     -36.306  22.950   3.926  0.00  0.00    +0.148 C 
ATOM     20  C   UNL     1     -36.008  22.873   5.272  0.00  0.00    +0.055 C 
ATOM     21  C   UNL     1     -35.236  20.985   3.526  0.00  0.00    +0.145 C 
ATOM     22  C   UNL     1     -35.287  21.763   5.661  0.00  0.00    +0.114 C 
ATOM     23  H   UNL     1     -34.318  19.221   2.943  0.00  0.00    +0.159 HD
BRANCH  17  24
ATOM     24  C   UNL     1     -35.133  20.058   1.212  0.00  0.00    +0.114 C 
BRANCH  24  25
ATOM     25  C   UNL     1     -33.912  19.690   0.374  0.00  0.00    +0.127 C 
BRANCH  25  27
ATOM     26  N   UNL     1     -32.338  17.992   1.624  0.00  0.00    -0.196 NA
ATOM     27  C   UNL     1     -33.031  18.742   1.074  0.00  0.00    +0.075 C 
ENDBRANCH  25  27
ENDBRANCH  24  25
ENDBRANCH  17  24
ENDBRANCH   4  19
BRANCH   1  28
ATOM     28  C   UNL     1     -39.911  25.591   1.868  0.00  0.00    +0.188 C 
BRANCH  28  31
ATOM     29  F   UNL     1     -40.771  25.598   4.070  0.00  0.00    -0.196 F 
ATOM     30  F   UNL     1     -42.170  25.980   2.442  0.00  0.00    -0.196 F 
ATOM     31  C   UNL     1     -40.897  26.189   2.857  0.00  0.00    +0.340 C 
ENDBRANCH  28  31
ENDBRANCH   1  28
TORSDOF 7
ENDMDL
MODEL 8
REMARK VINA RESULT:      -6.1      3.073      5.908
REMARK  Name = 53356806
REMARK  7 active torsions:
REMARK  status: ('A' for Active; 'I' for Inactive)
REMARK    1  A    between atoms: N_1  and  C_28
REMARK    2  A    between atoms: C_3  and  C_8
REMARK    3  A    between atoms: C_4  and  C_19
REMARK    4  A    between atoms: N_17  and  C_24
REMARK    5  A    between atoms: C_24  and  C_25
REMARK    6  A    between atoms: C_25  and  C_27
REMARK    7  A    between atoms: C_28  and  C_31
REMARK                            x       y       z     vdW  Elec       q    Type
REMARK                         _______ _______ _______ _____ _____    ______ ____
ROOT
ATOM      1  N   UNL     1     -34.968  19.472   0.996  0.00  0.00    -0.204 N 
ATOM      2  N   UNL     1     -34.532  20.353   1.913  0.00  0.00    -0.178 NA
ATOM      3  C   UNL     1     -35.594  21.141   2.104  0.00  0.00    +0.104 C 
ATOM      4  C   UNL     1     -36.699  20.766   1.315  0.00  0.00    +0.066 C 
ATOM      5  C   UNL     1     -36.259  19.676   0.605  0.00  0.00    +0.088 C 
ENDROOT
BRANCH   3   8
ATOM      6  N   UNL     1     -35.306  25.328   5.637  0.00  0.00    -0.297 N 
ATOM      7  N   UNL     1     -35.944  23.030   5.302  0.00  0.00    -0.229 NA
ATOM      8  C   UNL     1     -35.523  22.231   3.033  0.00  0.00    +0.039 C 
ATOM      9  C   UNL     1     -34.964  24.493   3.596  0.00  0.00    +0.033 C 
ATOM     10  C   UNL     1     -35.008  23.465   2.640  0.00  0.00    +0.006 C 
ATOM     11  C   UNL     1     -35.439  24.201   4.871  0.00  0.00    +0.132 C 
ATOM     12  C   UNL     1     -35.963  22.078   4.341  0.00  0.00    +0.102 C 
ATOM     13  C   UNL     1     -34.535  25.847   3.615  0.00  0.00    +0.019 C 
ATOM     14  C   UNL     1     -34.757  26.335   4.885  0.00  0.00    +0.063 C 
ATOM     15  H   UNL     1     -35.566  25.405   6.584  0.00  0.00    +0.154 HD
ENDBRANCH   3   8
BRANCH   4  19
ATOM     16  N   UNL     1     -38.265  22.419   1.922  0.00  0.00    -0.338 NA
ATOM     17  N   UNL     1     -39.805  24.075   2.543  0.00  0.00    -0.267 N 
ATOM     18  N   UNL     1     -40.503  22.424   1.029  0.00  0.00    -0.170 NA
ATOM     19  C   UNL     1     -38.017  21.311   1.193  0.00  0.00    +0.148 C 
ATOM     20  C   UNL     1     -38.948  20.709   0.371  0.00  0.00    +0.055 C 
ATOM     21  C   UNL     1     -39.509  22.916   1.794  0.00  0.00    +0.145 C 
ATOM     22  C   UNL     1     -40.187  21.316   0.328  0.00  0.00    +0.114 C 
ATOM     23  H   UNL     1     -40.707  24.465   2.473  0.00  0.00    +0.159 HD
BRANCH  17  24
ATOM     24  C   UNL     1     -38.851  24.709   3.399  0.00  0.00    +0.114 C 
BRANCH  24  25
ATOM     25  C   UNL     1     -38.234  25.926   2.716  0.00  0.00    +0.127 C 
BRANCH  25  27
ATOM     26  N   UNL     1     -39.864  26.993   0.949  0.00  0.00    -0.196 NA
ATOM     27  C   UNL     1     -39.145  26.524   1.729  0.00  0.00    +0.075 C 
ENDBRANCH  25  27
ENDBRANCH  24  25
ENDBRANCH  17  24
ENDBRANCH   4  19
BRANCH   1  28
ATOM     28  C   UNL     1     -34.083  18.433   0.526  0.00  0.00    +0.188 C 
BRANCH  28  31
ATOM     29  F   UNL     1     -31.917  19.314   0.872  0.00  0.00    -0.196 F 
ATOM     30  F   UNL     1     -32.188  17.169   1.157  0.00  0.00    -0.196 F 
ATOM     31  C   UNL     1     -32.787  18.375   1.316  0.00  0.00    +0.340 C 
ENDBRANCH  28  31
ENDBRANCH   1  28
TORSDOF 7
ENDMDL
MODEL 9
REMARK VINA RESULT:      -6.1      3.601      4.866
REMARK  Name = 53356806
REMARK  7 active torsions:
REMARK  status: ('A' for Active; 'I' for Inactive)
REMARK    1  A    between atoms: N_1  and  C_28
REMARK    2  A    between atoms: C_3  and  C_8
REMARK    3  A    between atoms: C_4  and  C_19
REMARK    4  A    between atoms: N_17  and  C_24
REMARK    5  A    between atoms: C_24  and  C_25
REMARK    6  A    between atoms: C_25  and  C_27
REMARK    7  A    between atoms: C_28  and  C_31
REMARK                            x       y       z     vdW  Elec       q    Type
REMARK                         _______ _______ _______ _____ _____    ______ ____
ROOT
ATOM      1  N   UNL     1     -32.912  27.922   4.203  0.00  0.00    -0.204 N 
ATOM      2  N   UNL     1     -33.123  26.609   4.398  0.00  0.00    -0.178 NA
ATOM      3  C   UNL     1     -34.214  26.366   3.667  0.00  0.00    +0.104 C 
ATOM      4  C   UNL     1     -34.697  27.515   3.011  0.00  0.00    +0.066 C 
ATOM      5  C   UNL     1     -33.827  28.511   3.381  0.00  0.00    +0.088 C 
ENDROOT
BRANCH   3   8
ATOM      6  N   UNL     1     -36.314  21.302   3.444  0.00  0.00    -0.297 N 
ATOM      7  N   UNL     1     -36.144  23.347   4.706  0.00  0.00    -0.229 NA
ATOM      8  C   UNL     1     -34.766  25.043   3.616  0.00  0.00    +0.039 C 
ATOM      9  C   UNL     1     -35.075  22.924   2.540  0.00  0.00    +0.033 C 
ATOM     10  C   UNL     1     -34.506  24.208   2.531  0.00  0.00    +0.006 C 
ATOM     11  C   UNL     1     -35.862  22.580   3.635  0.00  0.00    +0.132 C 
ATOM     12  C   UNL     1     -35.570  24.570   4.645  0.00  0.00    +0.102 C 
ATOM     13  C   UNL     1     -35.067  21.801   1.670  0.00  0.00    +0.019 C 
ATOM     14  C   UNL     1     -35.838  20.818   2.252  0.00  0.00    +0.063 C 
ATOM     15  H   UNL     1     -36.892  20.805   4.067  0.00  0.00    +0.154 HD
ENDBRANCH   3   8
BRANCH   4  19
ATOM     16  N   UNL     1     -36.752  26.752   2.147  0.00  0.00    -0.338 NA
ATOM     17  N   UNL     1     -38.796  25.970   1.303  0.00  0.00    -0.267 N 
ATOM     18  N   UNL     1     -37.986  28.026   0.517  0.00  0.00    -0.170 NA
ATOM     19  C   UNL     1     -35.815  27.722   2.142  0.00  0.00    +0.148 C 
ATOM     20  C   UNL     1     -35.892  28.858   1.361  0.00  0.00    +0.055 C 
ATOM     21  C   UNL     1     -37.795  26.965   1.324  0.00  0.00    +0.145 C 
ATOM     22  C   UNL     1     -37.012  28.958   0.560  0.00  0.00    +0.114 C 
ATOM     23  H   UNL     1     -39.573  26.094   0.711  0.00  0.00    +0.159 HD
BRANCH  17  24
ATOM     24  C   UNL     1     -38.730  24.788   2.105  0.00  0.00    +0.114 C 
BRANCH  24  25
ATOM     25  C   UNL     1     -39.935  24.695   3.036  0.00  0.00    +0.127 C 
BRANCH  25  27
ATOM     26  N   UNL     1     -41.143  27.015   3.316  0.00  0.00    -0.196 NA
ATOM     27  C   UNL     1     -40.610  25.992   3.193  0.00  0.00    +0.075 C 
ENDBRANCH  25  27
ENDBRANCH  24  25
ENDBRANCH  17  24
ENDBRANCH   4  19
BRANCH   1  28
ATOM     28  C   UNL     1     -31.792  28.569   4.843  0.00  0.00    +0.188 C 
BRANCH  28  31
ATOM     29  F   UNL     1     -32.008  29.321   7.074  0.00  0.00    -0.196 F 
ATOM     30  F   UNL     1     -30.435  27.872   6.649  0.00  0.00    -0.196 F 
ATOM     31  C   UNL     1     -31.699  28.236   6.323  0.00  0.00    +0.340 C 
ENDBRANCH  28  31
ENDBRANCH   1  28
TORSDOF 7
ENDMDL
