MODEL 1
REMARK VINA RESULT:      -7.3      0.000      0.000
REMARK  Name = 511807
REMARK  3 active torsions:
REMARK  status: ('A' for Active; 'I' for Inactive)
REMARK    1  A    between atoms: C_5  and  C_17
REMARK    2  A    between atoms: C_17  and  N_18
REMARK    3  A    between atoms: N_18  and  C_23
REMARK                            x       y       z     vdW  Elec       q    Type
REMARK                         _______ _______ _______ _____ _____    ______ ____
ROOT
ATOM      1  N   UNL     1     -36.237  23.200   1.518  0.00  0.00    -0.182 NA
ATOM      2  N   UNL     1     -36.425  24.536   3.399  0.00  0.00    -0.273 NA
ATOM      3  N   UNL     1     -35.955  23.682   5.602  0.00  0.00    -0.312 NA
ATOM      4  N   UNL     1     -36.620  25.906   5.294  0.00  0.00    -0.283 N 
ATOM      5  C   UNL     1     -35.561  20.888   1.693  0.00  0.00    +0.018 C 
ATOM      6  C   UNL     1     -35.754  22.275   3.652  0.00  0.00    +0.119 C 
ATOM      7  C   UNL     1     -35.461  21.034   3.066  0.00  0.00    +0.014 C 
ATOM      8  C   UNL     1     -36.143  23.351   2.845  0.00  0.00    +0.105 C 
ATOM      9  C   UNL     1     -35.949  21.994   0.969  0.00  0.00    +0.108 C 
ATOM     10  C   UNL     1     -35.678  22.501   5.024  0.00  0.00    +0.201 C 
ATOM     11  C   UNL     1     -36.317  24.643   4.740  0.00  0.00    +0.206 C 
ATOM     12  H   UNL     1     -36.892  26.648   4.709  0.00  0.00    +0.156 HD
ATOM     13  H   UNL     1     -36.559  26.044   6.267  0.00  0.00    +0.156 HD
ATOM     14  N   UNL     1     -35.288  21.445   5.884  0.00  0.00    -0.332 N 
ATOM     15  H   UNL     1     -35.231  21.595   6.855  0.00  0.00    +0.145 HD
ATOM     16  H   UNL     1     -35.074  20.559   5.510  0.00  0.00    +0.145 HD
ENDROOT
BRANCH   5  17
ATOM     17  C   UNL     1     -35.260  19.593   1.028  0.00  0.00    +0.116 C 
BRANCH  17  18
ATOM     18  N   UNL     1     -34.061  18.989   1.575  0.00  0.00    -0.329 N 
ATOM     19  H   UNL     1     -34.141  18.462   2.403  0.00  0.00    +0.147 HD
BRANCH  18  23
ATOM     20 CL   UNL     1     -30.860  21.861  -1.166  0.00  0.00    -0.081 Cl
ATOM     21 CL   UNL     1     -29.490  16.893   0.723  0.00  0.00    -0.081 Cl
ATOM     22 CL   UNL     1     -28.693  19.526  -0.906  0.00  0.00    -0.080 Cl
ATOM     23  C   UNL     1     -32.811  19.114   0.997  0.00  0.00    +0.047 C 
ATOM     24  C   UNL     1     -31.854  18.085   1.110  0.00  0.00    +0.027 C 
ATOM     25  C   UNL     1     -32.457  20.273   0.279  0.00  0.00    +0.027 C 
ATOM     26  C   UNL     1     -31.196  20.399  -0.304  0.00  0.00    +0.070 C 
ATOM     27  C   UNL     1     -30.593  18.213   0.527  0.00  0.00    +0.070 C 
ATOM     28  C   UNL     1     -30.264  19.369  -0.179  0.00  0.00    +0.079 C 
ENDBRANCH  18  23
ENDBRANCH  17  18
ENDBRANCH   5  17
TORSDOF 3
ENDMDL
MODEL 2
REMARK VINA RESULT:      -7.3      0.043      1.907
REMARK  Name = 511807
REMARK  3 active torsions:
REMARK  status: ('A' for Active; 'I' for Inactive)
REMARK    1  A    between atoms: C_5  and  C_17
REMARK    2  A    between atoms: C_17  and  N_18
REMARK    3  A    between atoms: N_18  and  C_23
REMARK                            x       y       z     vdW  Elec       q    Type
REMARK                         _______ _______ _______ _____ _____    ______ ____
ROOT
ATOM      1  N   UNL     1     -36.256  23.225   1.526  0.00  0.00    -0.182 NA
ATOM      2  N   UNL     1     -36.420  24.553   3.416  0.00  0.00    -0.273 NA
ATOM      3  N   UNL     1     -35.938  23.684   5.610  0.00  0.00    -0.312 NA
ATOM      4  N   UNL     1     -36.591  25.914   5.319  0.00  0.00    -0.283 N 
ATOM      5  C   UNL     1     -35.593  20.907   1.685  0.00  0.00    +0.018 C 
ATOM      6  C   UNL     1     -35.762  22.286   3.652  0.00  0.00    +0.119 C 
ATOM      7  C   UNL     1     -35.482  21.046   3.057  0.00  0.00    +0.014 C 
ATOM      8  C   UNL     1     -36.150  23.368   2.854  0.00  0.00    +0.105 C 
ATOM      9  C   UNL     1     -35.980  22.020   0.970  0.00  0.00    +0.108 C 
ATOM     10  C   UNL     1     -35.673  22.504   5.024  0.00  0.00    +0.201 C 
ATOM     11  C   UNL     1     -36.301  24.652   4.757  0.00  0.00    +0.206 C 
ATOM     12  H   UNL     1     -36.863  26.661   4.740  0.00  0.00    +0.156 HD
ATOM     13  H   UNL     1     -36.521  26.046   6.292  0.00  0.00    +0.156 HD
ATOM     14  N   UNL     1     -35.284  21.441   5.876  0.00  0.00    -0.332 N 
ATOM     15  H   UNL     1     -35.218  21.587   6.847  0.00  0.00    +0.145 HD
ATOM     16  H   UNL     1     -35.078  20.556   5.496  0.00  0.00    +0.145 HD
ENDROOT
BRANCH   5  17
ATOM     17  C   UNL     1     -35.306  19.614   1.011  0.00  0.00    +0.116 C 
BRANCH  17  18
ATOM     18  N   UNL     1     -34.113  18.994   1.553  0.00  0.00    -0.329 N 
ATOM     19  H   UNL     1     -34.201  18.448   2.367  0.00  0.00    +0.147 HD
BRANCH  18  23
ATOM     20 CL   UNL     1     -29.523  16.930   0.732  0.00  0.00    -0.081 Cl
ATOM     21 CL   UNL     1     -30.905  21.900  -1.144  0.00  0.00    -0.081 Cl
ATOM     22 CL   UNL     1     -28.727  19.575  -0.878  0.00  0.00    -0.080 Cl
ATOM     23  C   UNL     1     -32.859  19.130   0.987  0.00  0.00    +0.047 C 
ATOM     24  C   UNL     1     -32.506  20.295   0.277  0.00  0.00    +0.027 C 
ATOM     25  C   UNL     1     -31.898  18.106   1.103  0.00  0.00    +0.027 C 
ATOM     26  C   UNL     1     -30.632  18.243   0.531  0.00  0.00    +0.070 C 
ATOM     27  C   UNL     1     -31.240  20.430  -0.294  0.00  0.00    +0.070 C 
ATOM     28  C   UNL     1     -30.304  19.404  -0.167  0.00  0.00    +0.079 C 
ENDBRANCH  18  23
ENDBRANCH  17  18
ENDBRANCH   5  17
TORSDOF 3
ENDMDL
MODEL 3
REMARK VINA RESULT:      -7.1      1.048      1.148
REMARK  Name = 511807
REMARK  3 active torsions:
REMARK  status: ('A' for Active; 'I' for Inactive)
REMARK    1  A    between atoms: C_5  and  C_17
REMARK    2  A    between atoms: C_17  and  N_18
REMARK    3  A    between atoms: N_18  and  C_23
REMARK                            x       y       z     vdW  Elec       q    Type
REMARK                         _______ _______ _______ _____ _____    ______ ____
ROOT
ATOM      1  N   UNL     1     -35.644  23.639   1.563  0.00  0.00    -0.182 NA
ATOM      2  N   UNL     1     -35.968  25.054   3.366  0.00  0.00    -0.273 NA
ATOM      3  N   UNL     1     -36.090  24.213   5.620  0.00  0.00    -0.312 NA
ATOM      4  N   UNL     1     -36.297  26.504   5.182  0.00  0.00    -0.283 N 
ATOM      5  C   UNL     1     -35.416  21.255   1.874  0.00  0.00    +0.018 C 
ATOM      6  C   UNL     1     -35.752  22.724   3.752  0.00  0.00    +0.119 C 
ATOM      7  C   UNL     1     -35.564  21.432   3.239  0.00  0.00    +0.014 C 
ATOM      8  C   UNL     1     -35.788  23.820   2.882  0.00  0.00    +0.105 C 
ATOM      9  C   UNL     1     -35.462  22.384   1.085  0.00  0.00    +0.108 C 
ATOM     10  C   UNL     1     -35.909  22.982   5.112  0.00  0.00    +0.201 C 
ATOM     11  C   UNL     1     -36.109  25.189   4.702  0.00  0.00    +0.206 C 
ATOM     12  H   UNL     1     -36.319  27.260   4.553  0.00  0.00    +0.156 HD
ATOM     13  H   UNL     1     -36.405  26.664   6.147  0.00  0.00    +0.156 HD
ATOM     14  N   UNL     1     -35.879  21.908   6.034  0.00  0.00    -0.332 N 
ATOM     15  H   UNL     1     -35.989  22.081   6.997  0.00  0.00    +0.145 HD
ATOM     16  H   UNL     1     -35.748  20.986   5.712  0.00  0.00    +0.145 HD
ENDROOT
BRANCH   5  17
ATOM     17  C   UNL     1     -35.213  19.905   1.285  0.00  0.00    +0.116 C 
BRANCH  17  18
ATOM     18  N   UNL     1     -34.052  19.252   1.857  0.00  0.00    -0.329 N 
ATOM     19  H   UNL     1     -34.027  19.119   2.832  0.00  0.00    +0.147 HD
BRANCH  18  23
ATOM     20 CL   UNL     1     -29.829  20.456  -0.735  0.00  0.00    -0.081 Cl
ATOM     21 CL   UNL     1     -31.601  15.288  -0.212  0.00  0.00    -0.081 Cl
ATOM     22 CL   UNL     1     -29.441  17.345  -1.362  0.00  0.00    -0.080 Cl
ATOM     23  C   UNL     1     -32.979  18.808   1.107  0.00  0.00    +0.047 C 
ATOM     24  C   UNL     1     -32.806  17.438   0.829  0.00  0.00    +0.027 C 
ATOM     25  C   UNL     1     -32.026  19.713   0.600  0.00  0.00    +0.027 C 
ATOM     26  C   UNL     1     -30.942  19.265  -0.156  0.00  0.00    +0.070 C 
ATOM     27  C   UNL     1     -31.722  16.990   0.073  0.00  0.00    +0.070 C 
ATOM     28  C   UNL     1     -30.791  17.904  -0.419  0.00  0.00    +0.079 C 
ENDBRANCH  18  23
ENDBRANCH  17  18
ENDBRANCH   5  17
TORSDOF 3
ENDMDL
MODEL 4
REMARK VINA RESULT:      -7.0      1.091      2.100
REMARK  Name = 511807
REMARK  3 active torsions:
REMARK  status: ('A' for Active; 'I' for Inactive)
REMARK    1  A    between atoms: C_5  and  C_17
REMARK    2  A    between atoms: C_17  and  N_18
REMARK    3  A    between atoms: N_18  and  C_23
REMARK                            x       y       z     vdW  Elec       q    Type
REMARK                         _______ _______ _______ _____ _____    ______ ____
ROOT
ATOM      1  N   UNL     1     -35.619  23.632   1.564  0.00  0.00    -0.182 NA
ATOM      2  N   UNL     1     -35.971  25.041   3.368  0.00  0.00    -0.273 NA
ATOM      3  N   UNL     1     -36.114  24.192   5.618  0.00  0.00    -0.312 NA
ATOM      4  N   UNL     1     -36.328  26.483   5.184  0.00  0.00    -0.283 N 
ATOM      5  C   UNL     1     -35.382  21.248   1.871  0.00  0.00    +0.018 C 
ATOM      6  C   UNL     1     -35.747  22.710   3.750  0.00  0.00    +0.119 C 
ATOM      7  C   UNL     1     -35.546  21.421   3.234  0.00  0.00    +0.014 C 
ATOM      8  C   UNL     1     -35.779  23.808   2.882  0.00  0.00    +0.105 C 
ATOM      9  C   UNL     1     -35.426  22.379   1.085  0.00  0.00    +0.108 C 
ATOM     10  C   UNL     1     -35.921  22.964   5.108  0.00  0.00    +0.201 C 
ATOM     11  C   UNL     1     -36.128  25.171   4.702  0.00  0.00    +0.206 C 
ATOM     12  H   UNL     1     -36.347  27.241   4.556  0.00  0.00    +0.156 HD
ATOM     13  H   UNL     1     -36.448  26.640   6.148  0.00  0.00    +0.156 HD
ATOM     14  N   UNL     1     -35.895  21.887   6.027  0.00  0.00    -0.332 N 
ATOM     15  H   UNL     1     -36.017  22.057   6.989  0.00  0.00    +0.145 HD
ATOM     16  H   UNL     1     -35.756  20.967   5.704  0.00  0.00    +0.145 HD
ENDROOT
BRANCH   5  17
ATOM     17  C   UNL     1     -35.166  19.901   1.281  0.00  0.00    +0.116 C 
BRANCH  17  18
ATOM     18  N   UNL     1     -33.999  19.260   1.852  0.00  0.00    -0.329 N 
ATOM     19  H   UNL     1     -33.939  19.190   2.832  0.00  0.00    +0.147 HD
BRANCH  18  23
ATOM     20 CL   UNL     1     -31.845  15.133  -0.231  0.00  0.00    -0.081 Cl
ATOM     21 CL   UNL     1     -29.725  20.167  -0.778  0.00  0.00    -0.081 Cl
ATOM     22 CL   UNL     1     -29.559  17.036  -1.404  0.00  0.00    -0.080 Cl
ATOM     23  C   UNL     1     -32.965  18.742   1.094  0.00  0.00    +0.047 C 
ATOM     24  C   UNL     1     -31.956  19.579   0.576  0.00  0.00    +0.027 C 
ATOM     25  C   UNL     1     -32.890  17.363   0.816  0.00  0.00    +0.027 C 
ATOM     26  C   UNL     1     -31.847  16.840   0.051  0.00  0.00    +0.070 C 
ATOM     27  C   UNL     1     -30.914  19.055  -0.190  0.00  0.00    +0.070 C 
ATOM     28  C   UNL     1     -30.860  17.687  -0.452  0.00  0.00    +0.079 C 
ENDBRANCH  18  23
ENDBRANCH  17  18
ENDBRANCH   5  17
TORSDOF 3
ENDMDL
MODEL 5
REMARK VINA RESULT:      -6.6      4.106      6.052
REMARK  Name = 511807
REMARK  3 active torsions:
REMARK  status: ('A' for Active; 'I' for Inactive)
REMARK    1  A    between atoms: C_5  and  C_17
REMARK    2  A    between atoms: C_17  and  N_18
REMARK    3  A    between atoms: N_18  and  C_23
REMARK                            x       y       z     vdW  Elec       q    Type
REMARK                         _______ _______ _______ _____ _____    ______ ____
ROOT
ATOM      1  N   UNL     1     -34.568  26.746   3.145  0.00  0.00    -0.182 NA
ATOM      2  N   UNL     1     -33.224  28.563   3.648  0.00  0.00    -0.273 NA
ATOM      3  N   UNL     1     -32.130  28.766   5.785  0.00  0.00    -0.312 NA
ATOM      4  N   UNL     1     -31.864  30.411   4.140  0.00  0.00    -0.283 N 
ATOM      5  C   UNL     1     -34.928  24.979   4.752  0.00  0.00    +0.018 C 
ATOM      6  C   UNL     1     -33.528  26.866   5.278  0.00  0.00    +0.119 C 
ATOM      7  C   UNL     1     -34.111  25.645   5.649  0.00  0.00    +0.014 C 
ATOM      8  C   UNL     1     -33.776  27.398   4.007  0.00  0.00    +0.105 C 
ATOM      9  C   UNL     1     -35.122  25.568   3.521  0.00  0.00    +0.108 C 
ATOM     10  C   UNL     1     -32.697  27.596   6.124  0.00  0.00    +0.201 C 
ATOM     11  C   UNL     1     -32.433  29.185   4.548  0.00  0.00    +0.206 C 
ATOM     12  H   UNL     1     -32.052  30.767   3.242  0.00  0.00    +0.156 HD
ATOM     13  H   UNL     1     -31.278  30.910   4.754  0.00  0.00    +0.156 HD
ATOM     14  N   UNL     1     -32.413  27.100   7.420  0.00  0.00    -0.332 N 
ATOM     15  H   UNL     1     -31.826  27.609   8.025  0.00  0.00    +0.145 HD
ATOM     16  H   UNL     1     -32.804  26.246   7.717  0.00  0.00    +0.145 HD
ENDROOT
BRANCH   5  17
ATOM     17  C   UNL     1     -35.567  23.683   5.101  0.00  0.00    +0.116 C 
BRANCH  17  18
ATOM     18  N   UNL     1     -36.714  23.420   4.254  0.00  0.00    -0.329 N 
ATOM     19  H   UNL     1     -37.519  23.974   4.375  0.00  0.00    +0.147 HD
BRANCH  18  23
ATOM     20 CL   UNL     1     -39.360  21.056   0.591  0.00  0.00    -0.081 Cl
ATOM     21 CL   UNL     1     -34.219  19.646   1.899  0.00  0.00    -0.081 Cl
ATOM     22 CL   UNL     1     -36.818  19.181   0.096  0.00  0.00    -0.080 Cl
ATOM     23  C   UNL     1     -36.738  22.432   3.287  0.00  0.00    +0.047 C 
ATOM     24  C   UNL     1     -35.619  21.605   3.067  0.00  0.00    +0.027 C 
ATOM     25  C   UNL     1     -37.882  22.226   2.491  0.00  0.00    +0.027 C 
ATOM     26  C   UNL     1     -37.906  21.230   1.513  0.00  0.00    +0.070 C 
ATOM     27  C   UNL     1     -35.644  20.610   2.089  0.00  0.00    +0.070 C 
ATOM     28  C   UNL     1     -36.787  20.423   1.313  0.00  0.00    +0.079 C 
ENDBRANCH  18  23
ENDBRANCH  17  18
ENDBRANCH   5  17
TORSDOF 3
ENDMDL
MODEL 6
REMARK VINA RESULT:      -6.6      6.573      9.567
REMARK  Name = 511807
REMARK  3 active torsions:
REMARK  status: ('A' for Active; 'I' for Inactive)
REMARK    1  A    between atoms: C_5  and  C_17
REMARK    2  A    between atoms: C_17  and  N_18
REMARK    3  A    between atoms: N_18  and  C_23
REMARK                            x       y       z     vdW  Elec       q    Type
REMARK                         _______ _______ _______ _____ _____    ______ ____
ROOT
ATOM      1  N   UNL     1     -33.264  25.826   4.308  0.00  0.00    -0.182 NA
ATOM      2  N   UNL     1     -34.038  23.837   5.207  0.00  0.00    -0.273 NA
ATOM      3  N   UNL     1     -36.371  23.246   5.131  0.00  0.00    -0.312 NA
ATOM      4  N   UNL     1     -34.804  21.817   6.123  0.00  0.00    -0.283 N 
ATOM      5  C   UNL     1     -34.774  27.390   3.257  0.00  0.00    +0.018 C 
ATOM      6  C   UNL     1     -35.582  25.322   4.190  0.00  0.00    +0.119 C 
ATOM      7  C   UNL     1     -35.828  26.534   3.526  0.00  0.00    +0.014 C 
ATOM      8  C   UNL     1     -34.277  24.991   4.572  0.00  0.00    +0.105 C 
ATOM      9  C   UNL     1     -33.520  26.991   3.665  0.00  0.00    +0.108 C 
ATOM     10  C   UNL     1     -36.589  24.410   4.496  0.00  0.00    +0.201 C 
ATOM     11  C   UNL     1     -35.089  23.027   5.453  0.00  0.00    +0.206 C 
ATOM     12  H   UNL     1     -33.879  21.604   6.383  0.00  0.00    +0.156 HD
ATOM     13  H   UNL     1     -35.531  21.186   6.329  0.00  0.00    +0.156 HD
ATOM     14  N   UNL     1     -37.926  24.698   4.129  0.00  0.00    -0.332 N 
ATOM     15  H   UNL     1     -38.644  24.059   4.342  0.00  0.00    +0.145 HD
ATOM     16  H   UNL     1     -38.139  25.539   3.661  0.00  0.00    +0.145 HD
ENDROOT
BRANCH   5  17
ATOM     17  C   UNL     1     -34.986  28.683   2.556  0.00  0.00    +0.116 C 
BRANCH  17  18
ATOM     18  N   UNL     1     -34.862  29.802   3.470  0.00  0.00    -0.329 N 
ATOM     19  H   UNL     1     -35.536  29.897   4.182  0.00  0.00    +0.147 HD
BRANCH  18  23
ATOM     20 CL   UNL     1     -30.247  31.283   5.052  0.00  0.00    -0.081 Cl
ATOM     21 CL   UNL     1     -33.190  34.161   1.421  0.00  0.00    -0.081 Cl
ATOM     22 CL   UNL     1     -30.518  33.836   3.146  0.00  0.00    -0.080 Cl
ATOM     23  C   UNL     1     -33.851  30.741   3.395  0.00  0.00    +0.047 C 
ATOM     24  C   UNL     1     -33.969  31.867   2.556  0.00  0.00    +0.027 C 
ATOM     25  C   UNL     1     -32.673  30.600   4.154  0.00  0.00    +0.027 C 
ATOM     26  C   UNL     1     -31.652  31.548   4.077  0.00  0.00    +0.070 C 
ATOM     27  C   UNL     1     -32.947  32.814   2.480  0.00  0.00    +0.070 C 
ATOM     28  C   UNL     1     -31.789  32.654   3.241  0.00  0.00    +0.079 C 
ENDBRANCH  18  23
ENDBRANCH  17  18
ENDBRANCH   5  17
TORSDOF 3
ENDMDL
MODEL 7
REMARK VINA RESULT:      -6.5      7.309     10.256
REMARK  Name = 511807
REMARK  3 active torsions:
REMARK  status: ('A' for Active; 'I' for Inactive)
REMARK    1  A    between atoms: C_5  and  C_17
REMARK    2  A    between atoms: C_17  and  N_18
REMARK    3  A    between atoms: N_18  and  C_23
REMARK                            x       y       z     vdW  Elec       q    Type
REMARK                         _______ _______ _______ _____ _____    ______ ____
ROOT
ATOM      1  N   UNL     1     -33.085  25.641   4.123  0.00  0.00    -0.182 NA
ATOM      2  N   UNL     1     -34.550  23.967   4.767  0.00  0.00    -0.273 NA
ATOM      3  N   UNL     1     -36.935  24.233   4.558  0.00  0.00    -0.312 NA
ATOM      4  N   UNL     1     -36.019  22.259   5.424  0.00  0.00    -0.283 N 
ATOM      5  C   UNL     1     -33.898  27.727   3.215  0.00  0.00    +0.018 C 
ATOM      6  C   UNL     1     -35.423  25.988   3.883  0.00  0.00    +0.119 C 
ATOM      7  C   UNL     1     -35.195  27.267   3.355  0.00  0.00    +0.014 C 
ATOM      8  C   UNL     1     -34.339  25.188   4.262  0.00  0.00    +0.105 C 
ATOM      9  C   UNL     1     -32.885  26.879   3.611  0.00  0.00    +0.108 C 
ATOM     10  C   UNL     1     -36.699  25.456   4.055  0.00  0.00    +0.201 C 
ATOM     11  C   UNL     1     -35.829  23.552   4.889  0.00  0.00    +0.206 C 
ATOM     12  H   UNL     1     -35.242  21.715   5.684  0.00  0.00    +0.156 HD
ATOM     13  H   UNL     1     -36.930  21.903   5.536  0.00  0.00    +0.156 HD
ATOM     14  N   UNL     1     -37.830  26.224   3.685  0.00  0.00    -0.332 N 
ATOM     15  H   UNL     1     -38.735  25.857   3.803  0.00  0.00    +0.145 HD
ATOM     16  H   UNL     1     -37.711  27.128   3.311  0.00  0.00    +0.145 HD
ENDROOT
BRANCH   5  17
ATOM     17  C   UNL     1     -33.608  29.075   2.661  0.00  0.00    +0.116 C 
BRANCH  17  18
ATOM     18  N   UNL     1     -34.457  30.083   3.264  0.00  0.00    -0.329 N 
ATOM     19  H   UNL     1     -34.693  29.985   4.215  0.00  0.00    +0.147 HD
BRANCH  18  23
ATOM     20 CL   UNL     1     -38.516  32.380   1.201  0.00  0.00    -0.081 Cl
ATOM     21 CL   UNL     1     -33.486  34.574   1.050  0.00  0.00    -0.081 Cl
ATOM     22 CL   UNL     1     -36.590  34.772   0.311  0.00  0.00    -0.080 Cl
ATOM     23  C   UNL     1     -34.954  31.175   2.576  0.00  0.00    +0.047 C 
ATOM     24  C   UNL     1     -34.107  32.230   2.182  0.00  0.00    +0.027 C 
ATOM     25  C   UNL     1     -36.321  31.265   2.249  0.00  0.00    +0.027 C 
ATOM     26  C   UNL     1     -36.822  32.367   1.556  0.00  0.00    +0.070 C 
ATOM     27  C   UNL     1     -34.609  33.332   1.489  0.00  0.00    +0.070 C 
ATOM     28  C   UNL     1     -35.966  33.400   1.176  0.00  0.00    +0.079 C 
ENDBRANCH  18  23
ENDBRANCH  17  18
ENDBRANCH   5  17
TORSDOF 3
ENDMDL
MODEL 8
REMARK VINA RESULT:      -6.4      4.903      7.938
REMARK  Name = 511807
REMARK  3 active torsions:
REMARK  status: ('A' for Active; 'I' for Inactive)
REMARK    1  A    between atoms: C_5  and  C_17
REMARK    2  A    between atoms: C_17  and  N_18
REMARK    3  A    between atoms: N_18  and  C_23
REMARK                            x       y       z     vdW  Elec       q    Type
REMARK                         _______ _______ _______ _____ _____    ______ ____
ROOT
ATOM      1  N   UNL     1     -39.318  18.972  -1.013  0.00  0.00    -0.182 NA
ATOM      2  N   UNL     1     -39.920  16.740  -1.147  0.00  0.00    -0.273 NA
ATOM      3  N   UNL     1     -38.416  14.989  -0.461  0.00  0.00    -0.312 NA
ATOM      4  N   UNL     1     -40.547  14.484  -1.289  0.00  0.00    -0.283 N 
ATOM      5  C   UNL     1     -37.149  19.631  -0.179  0.00  0.00    +0.018 C 
ATOM      6  C   UNL     1     -37.772  17.309  -0.315  0.00  0.00    +0.119 C 
ATOM      7  C   UNL     1     -36.832  18.298   0.012  0.00  0.00    +0.014 C 
ATOM      8  C   UNL     1     -39.020  17.679  -0.831  0.00  0.00    +0.105 C 
ATOM      9  C   UNL     1     -38.398  19.913  -0.690  0.00  0.00    +0.108 C 
ATOM     10  C   UNL     1     -37.527  15.948  -0.152  0.00  0.00    +0.201 C 
ATOM     11  C   UNL     1     -39.576  15.450  -0.947  0.00  0.00    +0.206 C 
ATOM     12  H   UNL     1     -41.417  14.766  -1.650  0.00  0.00    +0.156 HD
ATOM     13  H   UNL     1     -40.353  13.527  -1.165  0.00  0.00    +0.156 HD
ATOM     14  N   UNL     1     -36.280  15.522   0.368  0.00  0.00    -0.332 N 
ATOM     15  H   UNL     1     -36.098  14.562   0.487  0.00  0.00    +0.145 HD
ATOM     16  H   UNL     1     -35.594  16.186   0.610  0.00  0.00    +0.145 HD
ENDROOT
BRANCH   5  17
ATOM     17  C   UNL     1     -36.186  20.713   0.154  0.00  0.00    +0.116 C 
BRANCH  17  18
ATOM     18  N   UNL     1     -35.722  20.599   1.523  0.00  0.00    -0.329 N 
ATOM     19  H   UNL     1     -35.344  19.738   1.815  0.00  0.00    +0.147 HD
BRANCH  18  23
ATOM     20 CL   UNL     1     -35.195  22.078   6.374  0.00  0.00    -0.081 Cl
ATOM     21 CL   UNL     1     -36.629  25.545   2.368  0.00  0.00    -0.081 Cl
ATOM     22 CL   UNL     1     -35.983  25.037   5.458  0.00  0.00    -0.080 Cl
ATOM     23  C   UNL     1     -35.784  21.632   2.439  0.00  0.00    +0.047 C 
ATOM     24  C   UNL     1     -36.131  22.937   2.038  0.00  0.00    +0.027 C 
ATOM     25  C   UNL     1     -35.499  21.411   3.801  0.00  0.00    +0.027 C 
ATOM     26  C   UNL     1     -35.560  22.454   4.726  0.00  0.00    +0.070 C 
ATOM     27  C   UNL     1     -36.191  23.980   2.963  0.00  0.00    +0.070 C 
ATOM     28  C   UNL     1     -35.906  23.738   4.306  0.00  0.00    +0.079 C 
ENDBRANCH  18  23
ENDBRANCH  17  18
ENDBRANCH   5  17
TORSDOF 3
ENDMDL
MODEL 9
REMARK VINA RESULT:      -6.4      3.724      5.722
REMARK  Name = 511807
REMARK  3 active torsions:
REMARK  status: ('A' for Active; 'I' for Inactive)
REMARK    1  A    between atoms: C_5  and  C_17
REMARK    2  A    between atoms: C_17  and  N_18
REMARK    3  A    between atoms: N_18  and  C_23
REMARK                            x       y       z     vdW  Elec       q    Type
REMARK                         _______ _______ _______ _____ _____    ______ ____
ROOT
ATOM      1  N   UNL     1     -34.450  26.214   5.978  0.00  0.00    -0.182 NA
ATOM      2  N   UNL     1     -33.155  27.799   4.897  0.00  0.00    -0.273 NA
ATOM      3  N   UNL     1     -32.322  27.436   2.666  0.00  0.00    -0.312 NA
ATOM      4  N   UNL     1     -31.844  29.418   3.817  0.00  0.00    -0.283 N 
ATOM      5  C   UNL     1     -35.017  24.124   4.906  0.00  0.00    +0.018 C 
ATOM      6  C   UNL     1     -33.670  25.772   3.778  0.00  0.00    +0.119 C 
ATOM      7  C   UNL     1     -34.306  24.521   3.786  0.00  0.00    +0.014 C 
ATOM      8  C   UNL     1     -33.760  26.606   4.899  0.00  0.00    +0.105 C 
ATOM      9  C   UNL     1     -35.058  25.002   5.968  0.00  0.00    +0.108 C 
ATOM     10  C   UNL     1     -32.937  26.241   2.691  0.00  0.00    +0.201 C 
ATOM     11  C   UNL     1     -32.471  28.153   3.788  0.00  0.00    +0.206 C 
ATOM     12  H   UNL     1     -31.920  29.988   4.615  0.00  0.00    +0.156 HD
ATOM     13  H   UNL     1     -31.332  29.731   3.037  0.00  0.00    +0.156 HD
ATOM     14  N   UNL     1     -32.817  25.436   1.532  0.00  0.00    -0.332 N 
ATOM     15  H   UNL     1     -32.301  25.760   0.758  0.00  0.00    +0.145 HD
ATOM     16  H   UNL     1     -33.249  24.551   1.499  0.00  0.00    +0.145 HD
ENDROOT
BRANCH   5  17
ATOM     17  C   UNL     1     -35.706  22.809   4.960  0.00  0.00    +0.116 C 
BRANCH  17  18
ATOM     18  N   UNL     1     -36.648  22.666   3.867  0.00  0.00    -0.329 N 
ATOM     19  H   UNL     1     -37.426  23.269   3.841  0.00  0.00    +0.147 HD
BRANCH  18  23
ATOM     20 CL   UNL     1     -33.693  19.170   1.619  0.00  0.00    -0.081 Cl
ATOM     21 CL   UNL     1     -38.761  20.327  -0.142  0.00  0.00    -0.081 Cl
ATOM     22 CL   UNL     1     -36.067  18.635  -0.454  0.00  0.00    -0.080 Cl
ATOM     23  C   UNL     1     -36.512  21.728   2.861  0.00  0.00    +0.047 C 
ATOM     24  C   UNL     1     -37.558  21.490   1.946  0.00  0.00    +0.027 C 
ATOM     25  C   UNL     1     -35.327  20.980   2.721  0.00  0.00    +0.027 C 
ATOM     26  C   UNL     1     -35.190  20.033   1.706  0.00  0.00    +0.070 C 
ATOM     27  C   UNL     1     -37.420  20.542   0.931  0.00  0.00    +0.070 C 
ATOM     28  C   UNL     1     -36.237  19.814   0.812  0.00  0.00    +0.079 C 
ENDBRANCH  18  23
ENDBRANCH  17  18
ENDBRANCH   5  17
TORSDOF 3
ENDMDL
