MODEL 1
REMARK VINA RESULT:      -6.1      0.000      0.000
REMARK  Name = 196503
REMARK  7 active torsions:
REMARK  status: ('A' for Active; 'I' for Inactive)
REMARK    1  A    between atoms: C_1  and  N_13
REMARK    2  A    between atoms: C_2  and  N_9
REMARK    3  A    between atoms: C_5  and  N_12
REMARK    4  A    between atoms: N_13  and  C_15
REMARK    5  A    between atoms: C_15  and  C_16
REMARK    6  A    between atoms: C_16  and  C_19
REMARK    7  A    between atoms: N_18  and  N_21
REMARK                            x       y       z     vdW  Elec       q    Type
REMARK                         _______ _______ _______ _____ _____    ______ ____
ROOT
ATOM      1  C   UNL     1     -36.620  24.495   4.182  0.00  0.00    +0.067 C 
ATOM      2  C   UNL     1     -35.598  23.897   4.945  0.00  0.00    +0.157 C 
ATOM      3  C   UNL     1     -36.502  25.864   3.873  0.00  0.00    +0.018 C 
ATOM      4  C   UNL     1     -34.502  24.639   5.383  0.00  0.00    +0.049 C 
ATOM      5  C   UNL     1     -34.406  25.994   5.067  0.00  0.00    +0.145 C 
ATOM      6  C   UNL     1     -35.406  26.607   4.312  0.00  0.00    +0.025 C 
ENDROOT
BRANCH   2   9
ATOM      7  O   UNL     1     -35.971  22.193   6.454  0.00  0.00    -0.126 OA
ATOM      8  O   UNL     1     -35.432  21.664   4.393  0.00  0.00    -0.126 OA
ATOM      9  N   UNL     1     -35.671  22.516   5.281  0.00  0.00    +0.059 N 
ENDBRANCH   2   9
BRANCH   5  12
ATOM     10  O   UNL     1     -33.171  26.998   6.737  0.00  0.00    -0.126 OA
ATOM     11  O   UNL     1     -32.452  27.153   4.668  0.00  0.00    -0.126 OA
ATOM     12  N   UNL     1     -33.290  26.751   5.512  0.00  0.00    +0.058 N 
ENDBRANCH   5  12
BRANCH   1  13
ATOM     13  N   UNL     1     -37.719  23.779   3.734  0.00  0.00    -0.331 N 
ATOM     14  H   UNL     1     -38.037  23.025   4.282  0.00  0.00    +0.147 HD
BRANCH  13  15
ATOM     15  C   UNL     1     -38.425  24.075   2.511  0.00  0.00    +0.097 C 
BRANCH  15  16
ATOM     16  C   UNL     1     -38.660  22.791   1.729  0.00  0.00    +0.107 C 
BRANCH  16  19
ATOM     17  O   UNL     1     -36.366  22.223   1.208  0.00  0.00    -0.274 OA
ATOM     18  N   UNL     1     -37.697  20.673   2.320  0.00  0.00    -0.253 N 
ATOM     19  C   UNL     1     -37.438  21.889   1.709  0.00  0.00    +0.237 C 
ATOM     20  H   UNL     1     -38.586  20.484   2.698  0.00  0.00    +0.169 HD
BRANCH  18  21
ATOM     21  N   UNL     1     -36.692  19.731   2.391  0.00  0.00    -0.254 NA
ATOM     22  H   UNL     1     -36.269  19.615   1.469  0.00  0.00    +0.140 HD
ATOM     23  H   UNL     1     -37.082  18.840   2.700  0.00  0.00    +0.140 HD
ENDBRANCH  18  21
ENDBRANCH  16  19
ENDBRANCH  15  16
ENDBRANCH  13  15
ENDBRANCH   1  13
TORSDOF 7
ENDMDL
MODEL 2
REMARK VINA RESULT:      -5.8      2.107      3.246
REMARK  Name = 196503
REMARK  7 active torsions:
REMARK  status: ('A' for Active; 'I' for Inactive)
REMARK    1  A    between atoms: C_1  and  N_13
REMARK    2  A    between atoms: C_2  and  N_9
REMARK    3  A    between atoms: C_5  and  N_12
REMARK    4  A    between atoms: N_13  and  C_15
REMARK    5  A    between atoms: C_15  and  C_16
REMARK    6  A    between atoms: C_16  and  C_19
REMARK    7  A    between atoms: N_18  and  N_21
REMARK                            x       y       z     vdW  Elec       q    Type
REMARK                         _______ _______ _______ _____ _____    ______ ____
ROOT
ATOM      1  C   UNL     1     -36.523  24.375   4.062  0.00  0.00    +0.067 C 
ATOM      2  C   UNL     1     -35.575  23.848   4.961  0.00  0.00    +0.157 C 
ATOM      3  C   UNL     1     -36.421  25.735   3.713  0.00  0.00    +0.018 C 
ATOM      4  C   UNL     1     -34.564  24.651   5.489  0.00  0.00    +0.049 C 
ATOM      5  C   UNL     1     -34.482  25.996   5.130  0.00  0.00    +0.145 C 
ATOM      6  C   UNL     1     -35.411  26.538   4.242  0.00  0.00    +0.025 C 
ENDROOT
BRANCH   2   9
ATOM      7  O   UNL     1     -35.365  21.600   4.492  0.00  0.00    -0.126 OA
ATOM      8  O   UNL     1     -35.954  22.193   6.521  0.00  0.00    -0.126 OA
ATOM      9  N   UNL     1     -35.634  22.479   5.344  0.00  0.00    +0.059 N 
ENDBRANCH   2   9
BRANCH   5  12
ATOM     10  O   UNL     1     -32.960  26.518   6.782  0.00  0.00    -0.126 OA
ATOM     11  O   UNL     1     -33.065  27.812   5.012  0.00  0.00    -0.126 OA
ATOM     12  N   UNL     1     -33.453  26.814   5.667  0.00  0.00    +0.058 N 
ENDBRANCH   5  12
BRANCH   1  13
ATOM     13  N   UNL     1     -37.537  23.598   3.523  0.00  0.00    -0.331 N 
ATOM     14  H   UNL     1     -37.680  22.698   3.897  0.00  0.00    +0.147 HD
BRANCH  13  15
ATOM     15  C   UNL     1     -38.392  24.032   2.445  0.00  0.00    +0.097 C 
BRANCH  15  16
ATOM     16  C   UNL     1     -39.779  24.349   2.986  0.00  0.00    +0.107 C 
BRANCH  16  19
ATOM     17  O   UNL     1     -39.520  26.636   2.240  0.00  0.00    -0.274 OA
ATOM     18  N   UNL     1     -41.030  26.160   3.943  0.00  0.00    -0.253 N 
ATOM     19  C   UNL     1     -40.074  25.839   2.994  0.00  0.00    +0.237 C 
ATOM     20  H   UNL     1     -41.427  25.458   4.509  0.00  0.00    +0.169 HD
BRANCH  18  21
ATOM     21  N   UNL     1     -41.418  27.476   4.086  0.00  0.00    -0.254 NA
ATOM     22  H   UNL     1     -40.605  28.084   3.979  0.00  0.00    +0.140 HD
ATOM     23  H   UNL     1     -41.825  27.612   5.011  0.00  0.00    +0.140 HD
ENDBRANCH  18  21
ENDBRANCH  16  19
ENDBRANCH  15  16
ENDBRANCH  13  15
ENDBRANCH   1  13
TORSDOF 7
ENDMDL
MODEL 3
REMARK VINA RESULT:      -5.7      1.526      1.944
REMARK  Name = 196503
REMARK  7 active torsions:
REMARK  status: ('A' for Active; 'I' for Inactive)
REMARK    1  A    between atoms: C_1  and  N_13
REMARK    2  A    between atoms: C_2  and  N_9
REMARK    3  A    between atoms: C_5  and  N_12
REMARK    4  A    between atoms: N_13  and  C_15
REMARK    5  A    between atoms: C_15  and  C_16
REMARK    6  A    between atoms: C_16  and  C_19
REMARK    7  A    between atoms: N_18  and  N_21
REMARK                            x       y       z     vdW  Elec       q    Type
REMARK                         _______ _______ _______ _____ _____    ______ ____
ROOT
ATOM      1  C   UNL     1     -36.374  23.385   3.792  0.00  0.00    +0.067 C 
ATOM      2  C   UNL     1     -35.549  23.243   4.925  0.00  0.00    +0.157 C 
ATOM      3  C   UNL     1     -36.344  24.611   3.100  0.00  0.00    +0.018 C 
ATOM      4  C   UNL     1     -34.728  24.287   5.350  0.00  0.00    +0.049 C 
ATOM      5  C   UNL     1     -34.716  25.494   4.651  0.00  0.00    +0.145 C 
ATOM      6  C   UNL     1     -35.524  25.655   3.526  0.00  0.00    +0.025 C 
ENDROOT
BRANCH   2   9
ATOM      7  O   UNL     1     -35.007  21.012   5.142  0.00  0.00    -0.126 OA
ATOM      8  O   UNL     1     -36.069  21.994   6.793  0.00  0.00    -0.126 OA
ATOM      9  N   UNL     1     -35.541  22.022   5.657  0.00  0.00    +0.059 N 
ENDBRANCH   2   9
BRANCH   5  12
ATOM     10  O   UNL     1     -33.196  26.409   6.124  0.00  0.00    -0.126 OA
ATOM     11  O   UNL     1     -33.850  27.618   4.412  0.00  0.00    -0.126 OA
ATOM     12  N   UNL     1     -33.881  26.558   5.083  0.00  0.00    +0.058 N 
ENDBRANCH   5  12
BRANCH   1  13
ATOM     13  N   UNL     1     -37.197  22.361   3.348  0.00  0.00    -0.331 N 
ATOM     14  H   UNL     1     -37.907  22.043   3.952  0.00  0.00    +0.147 HD
BRANCH  13  15
ATOM     15  C   UNL     1     -37.075  21.738   2.053  0.00  0.00    +0.097 C 
BRANCH  15  16
ATOM     16  C   UNL     1     -35.656  21.220   1.864  0.00  0.00    +0.107 C 
BRANCH  16  19
ATOM     17  O   UNL     1     -34.580  19.258   0.945  0.00  0.00    -0.274 OA
ATOM     18  N   UNL     1     -36.894  19.286   1.167  0.00  0.00    -0.253 N 
ATOM     19  C   UNL     1     -35.621  19.821   1.275  0.00  0.00    +0.237 C 
ATOM     20  H   UNL     1     -37.680  19.805   1.456  0.00  0.00    +0.169 HD
BRANCH  18  21
ATOM     21  N   UNL     1     -37.046  18.016   0.649  0.00  0.00    -0.254 NA
ATOM     22  H   UNL     1     -37.985  17.916   0.263  0.00  0.00    +0.140 HD
ATOM     23  H   UNL     1     -36.907  17.328   1.390  0.00  0.00    +0.140 HD
ENDBRANCH  18  21
ENDBRANCH  16  19
ENDBRANCH  15  16
ENDBRANCH  13  15
ENDBRANCH   1  13
TORSDOF 7
ENDMDL
MODEL 4
REMARK VINA RESULT:      -5.6      1.544      1.784
REMARK  Name = 196503
REMARK  7 active torsions:
REMARK  status: ('A' for Active; 'I' for Inactive)
REMARK    1  A    between atoms: C_1  and  N_13
REMARK    2  A    between atoms: C_2  and  N_9
REMARK    3  A    between atoms: C_5  and  N_12
REMARK    4  A    between atoms: N_13  and  C_15
REMARK    5  A    between atoms: C_15  and  C_16
REMARK    6  A    between atoms: C_16  and  C_19
REMARK    7  A    between atoms: N_18  and  N_21
REMARK                            x       y       z     vdW  Elec       q    Type
REMARK                         _______ _______ _______ _____ _____    ______ ____
ROOT
ATOM      1  C   UNL     1     -36.546  23.757   3.917  0.00  0.00    +0.067 C 
ATOM      2  C   UNL     1     -35.604  23.448   4.917  0.00  0.00    +0.157 C 
ATOM      3  C   UNL     1     -36.540  25.060   3.381  0.00  0.00    +0.018 C 
ATOM      4  C   UNL     1     -34.692  24.404   5.364  0.00  0.00    +0.049 C 
ATOM      5  C   UNL     1     -34.704  25.688   4.820  0.00  0.00    +0.145 C 
ATOM      6  C   UNL     1     -35.629  26.016   3.828  0.00  0.00    +0.025 C 
ENDROOT
BRANCH   2   9
ATOM      7  O   UNL     1     -35.146  21.191   4.794  0.00  0.00    -0.126 OA
ATOM      8  O   UNL     1     -35.961  21.991   6.669  0.00  0.00    -0.126 OA
ATOM      9  N   UNL     1     -35.569  22.145   5.489  0.00  0.00    +0.059 N 
ENDBRANCH   2   9
BRANCH   5  12
ATOM     10  O   UNL     1     -33.167  26.464   6.353  0.00  0.00    -0.126 OA
ATOM     11  O   UNL     1     -33.590  27.693   4.584  0.00  0.00    -0.126 OA
ATOM     12  N   UNL     1     -33.776  26.662   5.274  0.00  0.00    +0.058 N 
ENDBRANCH   5  12
BRANCH   1  13
ATOM     13  N   UNL     1     -37.462  22.825   3.455  0.00  0.00    -0.331 N 
ATOM     14  H   UNL     1     -37.871  22.213   4.109  0.00  0.00    +0.147 HD
BRANCH  13  15
ATOM     15  C   UNL     1     -37.851  22.701   2.071  0.00  0.00    +0.097 C 
BRANCH  15  16
ATOM     16  C   UNL     1     -39.352  22.468   1.977  0.00  0.00    +0.107 C 
BRANCH  16  19
ATOM     17  O   UNL     1     -40.853  21.020   0.751  0.00  0.00    -0.274 OA
ATOM     18  N   UNL     1     -38.573  20.566   0.737  0.00  0.00    -0.253 N 
ATOM     19  C   UNL     1     -39.703  21.284   1.093  0.00  0.00    +0.237 C 
ATOM     20  H   UNL     1     -37.684  20.846   1.054  0.00  0.00    +0.169 HD
BRANCH  18  21
ATOM     21  N   UNL     1     -38.711  19.454  -0.068  0.00  0.00    -0.254 NA
ATOM     22  H   UNL     1     -39.026  18.664   0.495  0.00  0.00    +0.140 HD
ATOM     23  H   UNL     1     -37.812  19.231  -0.496  0.00  0.00    +0.140 HD
ENDBRANCH  18  21
ENDBRANCH  16  19
ENDBRANCH  15  16
ENDBRANCH  13  15
ENDBRANCH   1  13
TORSDOF 7
ENDMDL
MODEL 5
REMARK VINA RESULT:      -5.5      2.188      6.243
REMARK  Name = 196503
REMARK  7 active torsions:
REMARK  status: ('A' for Active; 'I' for Inactive)
REMARK    1  A    between atoms: C_1  and  N_13
REMARK    2  A    between atoms: C_2  and  N_9
REMARK    3  A    between atoms: C_5  and  N_12
REMARK    4  A    between atoms: N_13  and  C_15
REMARK    5  A    between atoms: C_15  and  C_16
REMARK    6  A    between atoms: C_16  and  C_19
REMARK    7  A    between atoms: N_18  and  N_21
REMARK                            x       y       z     vdW  Elec       q    Type
REMARK                         _______ _______ _______ _____ _____    ______ ____
ROOT
ATOM      1  C   UNL     1     -35.457  26.417   4.074  0.00  0.00    +0.067 C 
ATOM      2  C   UNL     1     -34.476  25.885   4.933  0.00  0.00    +0.157 C 
ATOM      3  C   UNL     1     -36.499  25.569   3.653  0.00  0.00    +0.018 C 
ATOM      4  C   UNL     1     -34.533  24.557   5.353  0.00  0.00    +0.049 C 
ATOM      5  C   UNL     1     -35.574  23.734   4.923  0.00  0.00    +0.145 C 
ATOM      6  C   UNL     1     -36.557  24.240   4.072  0.00  0.00    +0.025 C 
ENDROOT
BRANCH   2   9
ATOM      7  O   UNL     1     -33.327  26.975   6.610  0.00  0.00    -0.126 OA
ATOM      8  O   UNL     1     -32.570  27.127   4.555  0.00  0.00    -0.126 OA
ATOM      9  N   UNL     1     -33.404  26.704   5.389  0.00  0.00    +0.059 N 
ENDBRANCH   2   9
BRANCH   5  12
ATOM     10  O   UNL     1     -35.345  21.472   4.535  0.00  0.00    -0.126 OA
ATOM     11  O   UNL     1     -35.974  22.131   6.532  0.00  0.00    -0.126 OA
ATOM     12  N   UNL     1     -35.634  22.381   5.350  0.00  0.00    +0.058 N 
ENDBRANCH   5  12
BRANCH   1  13
ATOM     13  N   UNL     1     -35.423  27.734   3.643  0.00  0.00    -0.331 N 
ATOM     14  H   UNL     1     -35.472  28.446   4.321  0.00  0.00    +0.147 HD
BRANCH  13  15
ATOM     15  C   UNL     1     -35.318  28.121   2.257  0.00  0.00    +0.097 C 
BRANCH  15  16
ATOM     16  C   UNL     1     -34.329  29.269   2.117  0.00  0.00    +0.107 C 
BRANCH  16  19
ATOM     17  O   UNL     1     -35.059  30.814   3.830  0.00  0.00    -0.274 OA
ATOM     18  N   UNL     1     -32.950  29.846   3.995  0.00  0.00    -0.253 N 
ATOM     19  C   UNL     1     -34.181  30.070   3.399  0.00  0.00    +0.237 C 
ATOM     20  H   UNL     1     -32.300  29.232   3.583  0.00  0.00    +0.169 HD
BRANCH  18  21
ATOM     21  N   UNL     1     -32.648  30.497   5.173  0.00  0.00    -0.254 NA
ATOM     22  H   UNL     1     -31.809  31.063   5.044  0.00  0.00    +0.140 HD
ATOM     23  H   UNL     1     -32.486  29.810   5.909  0.00  0.00    +0.140 HD
ENDBRANCH  18  21
ENDBRANCH  16  19
ENDBRANCH  15  16
ENDBRANCH  13  15
ENDBRANCH   1  13
TORSDOF 7
ENDMDL
MODEL 6
REMARK VINA RESULT:      -5.5      2.272      3.170
REMARK  Name = 196503
REMARK  7 active torsions:
REMARK  status: ('A' for Active; 'I' for Inactive)
REMARK    1  A    between atoms: C_1  and  N_13
REMARK    2  A    between atoms: C_2  and  N_9
REMARK    3  A    between atoms: C_5  and  N_12
REMARK    4  A    between atoms: N_13  and  C_15
REMARK    5  A    between atoms: C_15  and  C_16
REMARK    6  A    between atoms: C_16  and  C_19
REMARK    7  A    between atoms: N_18  and  N_21
REMARK                            x       y       z     vdW  Elec       q    Type
REMARK                         _______ _______ _______ _____ _____    ______ ____
ROOT
ATOM      1  C   UNL     1     -36.561  23.465   3.830  0.00  0.00    +0.067 C 
ATOM      2  C   UNL     1     -36.986  24.807   3.792  0.00  0.00    +0.157 C 
ATOM      3  C   UNL     1     -35.289  23.187   4.367  0.00  0.00    +0.018 C 
ATOM      4  C   UNL     1     -36.171  25.832   4.273  0.00  0.00    +0.049 C 
ATOM      5  C   UNL     1     -34.914  25.534   4.799  0.00  0.00    +0.145 C 
ATOM      6  C   UNL     1     -34.474  24.211   4.846  0.00  0.00    +0.025 C 
ENDROOT
BRANCH   2   9
ATOM      7  O   UNL     1     -38.330  25.937   2.297  0.00  0.00    -0.126 OA
ATOM      8  O   UNL     1     -39.285  24.623   3.774  0.00  0.00    -0.126 OA
ATOM      9  N   UNL     1     -38.264  25.139   3.261  0.00  0.00    +0.059 N 
ENDBRANCH   2   9
BRANCH   5  12
ATOM     10  O   UNL     1     -33.673  26.521   6.474  0.00  0.00    -0.126 OA
ATOM     11  O   UNL     1     -33.782  27.524   4.524  0.00  0.00    -0.126 OA
ATOM     12  N   UNL     1     -34.083  26.576   5.289  0.00  0.00    +0.058 N 
ENDBRANCH   5  12
BRANCH   1  13
ATOM     13  N   UNL     1     -37.353  22.429   3.359  0.00  0.00    -0.331 N 
ATOM     14  H   UNL     1     -38.186  22.225   3.843  0.00  0.00    +0.147 HD
BRANCH  13  15
ATOM     15  C   UNL     1     -37.026  21.632   2.202  0.00  0.00    +0.097 C 
BRANCH  15  16
ATOM     16  C   UNL     1     -37.910  22.039   1.031  0.00  0.00    +0.107 C 
BRANCH  16  19
ATOM     17  O   UNL     1     -39.989  21.445   2.116  0.00  0.00    -0.274 OA
ATOM     18  N   UNL     1     -39.845  23.456   0.958  0.00  0.00    -0.253 N 
ATOM     19  C   UNL     1     -39.356  22.253   1.441  0.00  0.00    +0.237 C 
ATOM     20  H   UNL     1     -39.271  24.050   0.423  0.00  0.00    +0.169 HD
BRANCH  18  21
ATOM     21  N   UNL     1     -41.149  23.811   1.239  0.00  0.00    -0.254 NA
ATOM     22  H   UNL     1     -41.365  24.699   0.786  0.00  0.00    +0.140 HD
ATOM     23  H   UNL     1     -41.265  23.906   2.248  0.00  0.00    +0.140 HD
ENDBRANCH  18  21
ENDBRANCH  16  19
ENDBRANCH  15  16
ENDBRANCH  13  15
ENDBRANCH   1  13
TORSDOF 7
ENDMDL
MODEL 7
REMARK VINA RESULT:      -5.4      2.101      2.568
REMARK  Name = 196503
REMARK  7 active torsions:
REMARK  status: ('A' for Active; 'I' for Inactive)
REMARK    1  A    between atoms: C_1  and  N_13
REMARK    2  A    between atoms: C_2  and  N_9
REMARK    3  A    between atoms: C_5  and  N_12
REMARK    4  A    between atoms: N_13  and  C_15
REMARK    5  A    between atoms: C_15  and  C_16
REMARK    6  A    between atoms: C_16  and  C_19
REMARK    7  A    between atoms: N_18  and  N_21
REMARK                            x       y       z     vdW  Elec       q    Type
REMARK                         _______ _______ _______ _____ _____    ______ ____
ROOT
ATOM      1  C   UNL     1     -34.974  25.058   2.717  0.00  0.00    +0.067 C 
ATOM      2  C   UNL     1     -35.285  25.285   4.072  0.00  0.00    +0.157 C 
ATOM      3  C   UNL     1     -33.882  25.754   2.162  0.00  0.00    +0.018 C 
ATOM      4  C   UNL     1     -34.534  26.173   4.841  0.00  0.00    +0.049 C 
ATOM      5  C   UNL     1     -33.458  26.853   4.271  0.00  0.00    +0.145 C 
ATOM      6  C   UNL     1     -33.132  26.643   2.931  0.00  0.00    +0.025 C 
ENDROOT
BRANCH   2   9
ATOM      7  O   UNL     1     -36.152  23.845   5.651  0.00  0.00    -0.126 OA
ATOM      8  O   UNL     1     -37.531  24.784   4.224  0.00  0.00    -0.126 OA
ATOM      9  N   UNL     1     -36.378  24.604   4.679  0.00  0.00    +0.059 N 
ENDBRANCH   2   9
BRANCH   5  12
ATOM     10  O   UNL     1     -32.068  27.321   6.051  0.00  0.00    -0.126 OA
ATOM     11  O   UNL     1     -32.662  28.969   4.727  0.00  0.00    -0.126 OA
ATOM     12  N   UNL     1     -32.693  27.757   5.054  0.00  0.00    +0.058 N 
ENDBRANCH   5  12
BRANCH   1  13
ATOM     13  N   UNL     1     -35.704  24.180   1.931  0.00  0.00    -0.331 N 
ATOM     14  H   UNL     1     -36.611  24.447   1.656  0.00  0.00    +0.147 HD
BRANCH  13  15
ATOM     15  C   UNL     1     -35.211  22.897   1.493  0.00  0.00    +0.097 C 
BRANCH  15  16
ATOM     16  C   UNL     1     -36.113  21.791   2.022  0.00  0.00    +0.107 C 
BRANCH  16  19
ATOM     17  O   UNL     1     -34.706  19.992   2.820  0.00  0.00    -0.274 OA
ATOM     18  N   UNL     1     -35.743  21.392   4.360  0.00  0.00    -0.253 N 
ATOM     19  C   UNL     1     -35.434  20.945   3.085  0.00  0.00    +0.237 C 
ATOM     20  H   UNL     1     -36.337  22.167   4.486  0.00  0.00    +0.169 HD
BRANCH  18  21
ATOM     21  N   UNL     1     -35.209  20.734   5.448  0.00  0.00    -0.254 NA
ATOM     22  H   UNL     1     -35.715  19.862   5.601  0.00  0.00    +0.140 HD
ATOM     23  H   UNL     1     -35.291  21.325   6.276  0.00  0.00    +0.140 HD
ENDBRANCH  18  21
ENDBRANCH  16  19
ENDBRANCH  15  16
ENDBRANCH  13  15
ENDBRANCH   1  13
TORSDOF 7
ENDMDL
MODEL 8
REMARK VINA RESULT:      -5.3      2.016      2.779
REMARK  Name = 196503
REMARK  7 active torsions:
REMARK  status: ('A' for Active; 'I' for Inactive)
REMARK    1  A    between atoms: C_1  and  N_13
REMARK    2  A    between atoms: C_2  and  N_9
REMARK    3  A    between atoms: C_5  and  N_12
REMARK    4  A    between atoms: N_13  and  C_15
REMARK    5  A    between atoms: C_15  and  C_16
REMARK    6  A    between atoms: C_16  and  C_19
REMARK    7  A    between atoms: N_18  and  N_21
REMARK                            x       y       z     vdW  Elec       q    Type
REMARK                         _______ _______ _______ _____ _____    ______ ____
ROOT
ATOM      1  C   UNL     1     -36.167  23.599   4.209  0.00  0.00    +0.067 C 
ATOM      2  C   UNL     1     -36.583  24.935   4.047  0.00  0.00    +0.157 C 
ATOM      3  C   UNL     1     -34.924  23.362   4.827  0.00  0.00    +0.018 C 
ATOM      4  C   UNL     1     -35.787  25.992   4.487  0.00  0.00    +0.049 C 
ATOM      5  C   UNL     1     -34.559  25.734   5.096  0.00  0.00    +0.145 C 
ATOM      6  C   UNL     1     -34.128  24.419   5.265  0.00  0.00    +0.025 C 
ENDROOT
BRANCH   2   9
ATOM      7  O   UNL     1     -37.876  26.102   2.536  0.00  0.00    -0.126 OA
ATOM      8  O   UNL     1     -38.851  24.597   3.802  0.00  0.00    -0.126 OA
ATOM      9  N   UNL     1     -37.833  25.226   3.431  0.00  0.00    +0.059 N 
ENDBRANCH   2   9
BRANCH   5  12
ATOM     10  O   UNL     1     -33.335  26.808   6.728  0.00  0.00    -0.126 OA
ATOM     11  O   UNL     1     -33.466  27.734   4.742  0.00  0.00    -0.126 OA
ATOM     12  N   UNL     1     -33.748  26.810   5.544  0.00  0.00    +0.058 N 
ENDBRANCH   5  12
BRANCH   1  13
ATOM     13  N   UNL     1     -36.940  22.530   3.781  0.00  0.00    -0.331 N 
ATOM     14  H   UNL     1     -37.615  22.169   4.400  0.00  0.00    +0.147 HD
BRANCH  13  15
ATOM     15  C   UNL     1     -36.812  21.918   2.481  0.00  0.00    +0.097 C 
BRANCH  15  16
ATOM     16  C   UNL     1     -35.445  21.261   2.355  0.00  0.00    +0.107 C 
BRANCH  16  19
ATOM     17  O   UNL     1     -34.496  19.350   1.213  0.00  0.00    -0.274 OA
ATOM     18  N   UNL     1     -36.806  19.520   1.419  0.00  0.00    -0.253 N 
ATOM     19  C   UNL     1     -35.500  19.943   1.601  0.00  0.00    +0.237 C 
ATOM     20  H   UNL     1     -37.557  20.055   1.762  0.00  0.00    +0.169 HD
BRANCH  18  21
ATOM     21  N   UNL     1     -37.039  18.336   0.749  0.00  0.00    -0.254 NA
ATOM     22  H   UNL     1     -37.980  18.347   0.355  0.00  0.00    +0.140 HD
ATOM     23  H   UNL     1     -36.953  17.555   1.400  0.00  0.00    +0.140 HD
ENDBRANCH  18  21
ENDBRANCH  16  19
ENDBRANCH  15  16
ENDBRANCH  13  15
ENDBRANCH   1  13
TORSDOF 7
ENDMDL
MODEL 9
REMARK VINA RESULT:      -5.3      2.093      6.000
REMARK  Name = 196503
REMARK  7 active torsions:
REMARK  status: ('A' for Active; 'I' for Inactive)
REMARK    1  A    between atoms: C_1  and  N_13
REMARK    2  A    between atoms: C_2  and  N_9
REMARK    3  A    between atoms: C_5  and  N_12
REMARK    4  A    between atoms: N_13  and  C_15
REMARK    5  A    between atoms: C_15  and  C_16
REMARK    6  A    between atoms: C_16  and  C_19
REMARK    7  A    between atoms: N_18  and  N_21
REMARK                            x       y       z     vdW  Elec       q    Type
REMARK                         _______ _______ _______ _____ _____    ______ ____
ROOT
ATOM      1  C   UNL     1     -36.286  23.279   3.282  0.00  0.00    +0.067 C 
ATOM      2  C   UNL     1     -36.504  22.006   2.720  0.00  0.00    +0.157 C 
ATOM      3  C   UNL     1     -37.347  24.204   3.261  0.00  0.00    +0.018 C 
ATOM      4  C   UNL     1     -37.737  21.672   2.160  0.00  0.00    +0.049 C 
ATOM      5  C   UNL     1     -38.774  22.604   2.149  0.00  0.00    +0.145 C 
ATOM      6  C   UNL     1     -38.579  23.870   2.700  0.00  0.00    +0.025 C 
ENDROOT
BRANCH   2   9
ATOM      7  O   UNL     1     -35.143  20.491   3.801  0.00  0.00    -0.126 OA
ATOM      8  O   UNL     1     -34.899  20.755   1.636  0.00  0.00    -0.126 OA
ATOM      9  N   UNL     1     -35.463  21.036   2.719  0.00  0.00    +0.059 N 
ENDBRANCH   2   9
BRANCH   5  12
ATOM     10  O   UNL     1     -40.336  21.053   1.460  0.00  0.00    -0.126 OA
ATOM     11  O   UNL     1     -40.798  23.185   1.207  0.00  0.00    -0.126 OA
ATOM     12  N   UNL     1     -40.029  22.264   1.578  0.00  0.00    +0.058 N 
ENDBRANCH   5  12
BRANCH   1  13
ATOM     13  N   UNL     1     -35.070  23.636   3.846  0.00  0.00    -0.331 N 
ATOM     14  H   UNL     1     -34.334  23.885   3.242  0.00  0.00    +0.147 HD
BRANCH  13  15
ATOM     15  C   UNL     1     -34.824  23.663   5.267  0.00  0.00    +0.097 C 
BRANCH  15  16
ATOM     16  C   UNL     1     -34.879  25.097   5.772  0.00  0.00    +0.107 C 
BRANCH  16  19
ATOM     17  O   UNL     1     -33.263  26.015   4.224  0.00  0.00    -0.274 OA
ATOM     18  N   UNL     1     -35.313  27.080   4.491  0.00  0.00    -0.253 N 
ATOM     19  C   UNL     1     -34.372  26.096   4.746  0.00  0.00    +0.237 C 
ATOM     20  H   UNL     1     -36.182  27.072   4.953  0.00  0.00    +0.169 HD
BRANCH  18  21
ATOM     21  N   UNL     1     -35.014  28.072   3.579  0.00  0.00    -0.254 NA
ATOM     22  H   UNL     1     -34.043  28.363   3.699  0.00  0.00    +0.140 HD
ATOM     23  H   UNL     1     -35.630  28.871   3.733  0.00  0.00    +0.140 HD
ENDBRANCH  18  21
ENDBRANCH  16  19
ENDBRANCH  15  16
ENDBRANCH  13  15
ENDBRANCH   1  13
TORSDOF 7
ENDMDL
