MODEL 1
REMARK VINA RESULT:      -6.4      0.000      0.000
REMARK  Name = 192789
REMARK  8 active torsions:
REMARK  status: ('A' for Active; 'I' for Inactive)
REMARK    1  A    between atoms: CA_5  and  N_11
REMARK    2  A    between atoms: CA_7  and  C_26
REMARK    3  A    between atoms: C_8  and  C_29
REMARK    4  A    between atoms: C_12  and  CA_14
REMARK    5  A    between atoms: CA_14  and  C_15
REMARK    6  A    between atoms: CA_14  and  N_21
REMARK    7  A    between atoms: C_26  and  O_27
REMARK    8  A    between atoms: C_29  and  O_30
REMARK                            x       y       z     vdW  Elec       q    Type
REMARK                         _______ _______ _______ _____ _____    ______ ____
ROOT
ATOM      1  S   UNL     1     -34.431  24.367   2.060  0.00  0.00    -0.114 S 
ATOM      2  O   UNL     1     -38.930  23.362   2.661  0.00  0.00    -0.273 OA
ATOM      3  N   UNL     1     -36.969  24.667   2.780  0.00  0.00    -0.242 N 
ATOM      4  C   UNL     1     -35.747  24.042   3.255  0.00  0.00    +0.155 C 
ATOM      5  CA  UNL     1     -36.491  22.698   3.108  0.00  0.00    +0.178 C 
ATOM      6  C   UNL     1     -37.751  23.568   2.838  0.00  0.00    +0.251 C 
ATOM      7  CA  UNL     1     -37.062  25.976   2.436  0.00  0.00    +0.126 C 
ATOM      8  C   UNL     1     -35.959  26.736   2.231  0.00  0.00    +0.016 C 
ATOM      9  C   UNL     1     -34.539  26.177   2.264  0.00  0.00    +0.085 C 
ENDROOT
BRANCH   5  11
ATOM     10  O   UNL     1     -35.068  20.196   3.259  0.00  0.00    -0.277 OA
ATOM     11  N   UNL     1     -36.138  21.818   1.994  0.00  0.00    -0.298 N 
ATOM     12  C   UNL     1     -35.442  20.620   2.167  0.00  0.00    +0.206 C 
ATOM     13  H   UNL     1     -36.400  22.084   1.083  0.00  0.00    +0.150 HD
BRANCH  12  14
ATOM     14  CA  UNL     1     -35.174  19.894   0.853  0.00  0.00    +0.036 C 
BRANCH  14  15
ATOM     15  C   UNL     1     -33.705  19.554   0.714  0.00  0.00    -0.034 C 
ATOM     16  C   UNL     1     -33.245  18.344   1.202  0.00  0.00    -0.006 C 
ATOM     17  C   UNL     1     -32.857  20.460   0.103  0.00  0.00    -0.006 C 
ATOM     18  C   UNL     1     -31.891  18.031   1.075  0.00  0.00    -0.000 C 
ATOM     19  C   UNL     1     -31.504  20.147  -0.024  0.00  0.00    -0.000 C 
ATOM     20  C   UNL     1     -31.020  18.932   0.462  0.00  0.00    -0.000 C 
ENDBRANCH  14  15
BRANCH  14  21
ATOM     21  N   UNL     1     -36.029  18.703   0.818  0.00  0.00    +0.390 N 
ATOM     22  H1  UNL     1     -35.814  18.155  -0.016  0.00  0.00    -0.088 HD
ATOM     23  H2  UNL     1     -37.008  18.988   0.794  0.00  0.00    -0.088 HD
ATOM     24  H3  UNL     1     -35.858  18.138   1.650  0.00  0.00    -0.088 HD
ENDBRANCH  14  21
ENDBRANCH  12  14
ENDBRANCH   5  11
BRANCH   7  26
ATOM     25  OXT UNL     1     -38.829  26.947   1.174  0.00  0.00    -0.244 OA
ATOM     26  C   UNL     1     -38.415  26.518   2.233  0.00  0.00    +0.351 C 
BRANCH  26  27
ATOM     27  O   UNL     1     -39.098  26.459   3.392  0.00  0.00    -0.476 OA
ATOM     28  H   UNL     1     -39.872  25.933   3.455  0.00  0.00    +0.295 HD
ENDBRANCH  26  27
ENDBRANCH   7  26
BRANCH   8  29
ATOM     29  C   UNL     1     -35.980  28.214   1.927  0.00  0.00    +0.162 C 
BRANCH  29  30
ATOM     30  O   UNL     1     -35.480  28.927   3.037  0.00  0.00    -0.377 OA
ATOM     31  H   UNL     1     -34.582  28.621   3.240  0.00  0.00    +0.211 HD
ENDBRANCH  29  30
ENDBRANCH   8  29
TORSDOF 8
ENDMDL
MODEL 2
REMARK VINA RESULT:      -5.9      3.154      7.665
REMARK  Name = 192789
REMARK  8 active torsions:
REMARK  status: ('A' for Active; 'I' for Inactive)
REMARK    1  A    between atoms: CA_5  and  N_11
REMARK    2  A    between atoms: CA_7  and  C_26
REMARK    3  A    between atoms: C_8  and  C_29
REMARK    4  A    between atoms: C_12  and  CA_14
REMARK    5  A    between atoms: CA_14  and  C_15
REMARK    6  A    between atoms: CA_14  and  N_21
REMARK    7  A    between atoms: C_26  and  O_27
REMARK    8  A    between atoms: C_29  and  O_30
REMARK                            x       y       z     vdW  Elec       q    Type
REMARK                         _______ _______ _______ _____ _____    ______ ____
ROOT
ATOM      1  S   UNL     1     -36.509  24.254   1.011  0.00  0.00    -0.114 S 
ATOM      2  O   UNL     1     -36.268  26.033   5.299  0.00  0.00    -0.273 OA
ATOM      3  N   UNL     1     -36.625  24.375   3.661  0.00  0.00    -0.242 N 
ATOM      4  C   UNL     1     -37.428  24.709   2.499  0.00  0.00    +0.155 C 
ATOM      5  CA  UNL     1     -37.309  26.178   2.957  0.00  0.00    +0.178 C 
ATOM      6  C   UNL     1     -36.662  25.592   4.244  0.00  0.00    +0.251 C 
ATOM      7  CA  UNL     1     -36.097  23.145   3.885  0.00  0.00    +0.126 C 
ATOM      8  C   UNL     1     -36.031  22.213   2.904  0.00  0.00    +0.016 C 
ATOM      9  C   UNL     1     -36.441  22.486   1.459  0.00  0.00    +0.085 C 
ENDROOT
BRANCH   5  11
ATOM     10  O   UNL     1     -38.073  28.080   0.931  0.00  0.00    -0.277 OA
ATOM     11  N   UNL     1     -36.424  27.075   2.215  0.00  0.00    -0.298 N 
ATOM     12  C   UNL     1     -36.890  27.966   1.246  0.00  0.00    +0.206 C 
ATOM     13  H   UNL     1     -35.458  27.048   2.405  0.00  0.00    +0.150 HD
BRANCH  12  14
ATOM     14  CA  UNL     1     -35.771  28.776   0.598  0.00  0.00    +0.036 C 
BRANCH  14  15
ATOM     15  C   UNL     1     -34.971  29.524   1.643  0.00  0.00    -0.034 C 
ATOM     16  C   UNL     1     -33.637  29.206   1.826  0.00  0.00    -0.006 C 
ATOM     17  C   UNL     1     -35.592  30.508   2.391  0.00  0.00    -0.006 C 
ATOM     18  C   UNL     1     -32.900  29.896   2.789  0.00  0.00    -0.000 C 
ATOM     19  C   UNL     1     -34.855  31.197   3.355  0.00  0.00    -0.000 C 
ATOM     20  C   UNL     1     -33.509  30.891   3.554  0.00  0.00    -0.000 C 
ENDBRANCH  14  15
BRANCH  14  21
ATOM     21  N   UNL     1     -34.943  27.849  -0.181  0.00  0.00    +0.390 N 
ATOM     22  H1  UNL     1     -34.222  27.449   0.421  0.00  0.00    -0.088 HD
ATOM     23  H2  UNL     1     -34.502  28.352  -0.951  0.00  0.00    -0.088 HD
ATOM     24  H3  UNL     1     -35.529  27.101  -0.553  0.00  0.00    -0.088 HD
ENDBRANCH  14  21
ENDBRANCH  12  14
ENDBRANCH   5  11
BRANCH   7  26
ATOM     25  OXT UNL     1     -36.107  22.266   6.094  0.00  0.00    -0.244 OA
ATOM     26  C   UNL     1     -35.539  22.892   5.222  0.00  0.00    +0.351 C 
BRANCH  26  27
ATOM     27  O   UNL     1     -34.320  23.458   5.312  0.00  0.00    -0.476 OA
ATOM     28  H   UNL     1     -34.154  24.282   4.896  0.00  0.00    +0.295 HD
ENDBRANCH  26  27
ENDBRANCH   7  26
BRANCH   8  29
ATOM     29  C   UNL     1     -35.534  20.800   3.094  0.00  0.00    +0.162 C 
BRANCH  29  30
ATOM     30  O   UNL     1     -36.573  19.895   2.793  0.00  0.00    -0.377 OA
ATOM     31  H   UNL     1     -36.195  19.023   2.596  0.00  0.00    +0.211 HD
ENDBRANCH  29  30
ENDBRANCH   8  29
TORSDOF 8
ENDMDL
MODEL 3
REMARK VINA RESULT:      -5.9      3.360      4.994
REMARK  Name = 192789
REMARK  8 active torsions:
REMARK  status: ('A' for Active; 'I' for Inactive)
REMARK    1  A    between atoms: CA_5  and  N_11
REMARK    2  A    between atoms: CA_7  and  C_26
REMARK    3  A    between atoms: C_8  and  C_29
REMARK    4  A    between atoms: C_12  and  CA_14
REMARK    5  A    between atoms: CA_14  and  C_15
REMARK    6  A    between atoms: CA_14  and  N_21
REMARK    7  A    between atoms: C_26  and  O_27
REMARK    8  A    between atoms: C_29  and  O_30
REMARK                            x       y       z     vdW  Elec       q    Type
REMARK                         _______ _______ _______ _____ _____    ______ ____
ROOT
ATOM      1  S   UNL     1     -35.574  24.378   1.256  0.00  0.00    -0.114 S 
ATOM      2  O   UNL     1     -36.180  23.154   5.700  0.00  0.00    -0.273 OA
ATOM      3  N   UNL     1     -35.199  24.294   3.883  0.00  0.00    -0.242 N 
ATOM      4  C   UNL     1     -34.863  23.539   2.689  0.00  0.00    +0.155 C 
ATOM      5  CA  UNL     1     -35.697  22.391   3.297  0.00  0.00    +0.178 C 
ATOM      6  C   UNL     1     -35.751  23.274   4.575  0.00  0.00    +0.251 C 
ATOM      7  CA  UNL     1     -34.943  25.618   4.035  0.00  0.00    +0.126 C 
ATOM      8  C   UNL     1     -34.621  26.403   2.978  0.00  0.00    +0.016 C 
ATOM      9  C   UNL     1     -34.616  25.906   1.535  0.00  0.00    +0.085 C 
ENDROOT
BRANCH   5  11
ATOM     10  O   UNL     1     -36.333  20.402   1.310  0.00  0.00    -0.277 OA
ATOM     11  N   UNL     1     -37.014  22.104   2.729  0.00  0.00    -0.298 N 
ATOM     12  C   UNL     1     -37.224  21.116   1.765  0.00  0.00    +0.206 C 
ATOM     13  H   UNL     1     -37.786  22.632   3.039  0.00  0.00    +0.150 HD
BRANCH  12  14
ATOM     14  CA  UNL     1     -38.679  21.026   1.315  0.00  0.00    +0.036 C 
BRANCH  14  15
ATOM     15  C   UNL     1     -39.213  22.392   0.940  0.00  0.00    -0.034 C 
ATOM     16  C   UNL     1     -40.079  23.037   1.805  0.00  0.00    -0.006 C 
ATOM     17  C   UNL     1     -38.825  22.963  -0.259  0.00  0.00    -0.006 C 
ATOM     18  C   UNL     1     -40.572  24.296   1.459  0.00  0.00    -0.000 C 
ATOM     19  C   UNL     1     -39.318  24.221  -0.604  0.00  0.00    -0.000 C 
ATOM     20  C   UNL     1     -40.192  24.888   0.254  0.00  0.00    -0.000 C 
ENDBRANCH  14  15
BRANCH  14  21
ATOM     21  N   UNL     1     -38.743  20.076   0.200  0.00  0.00    +0.390 N 
ATOM     22  H1  UNL     1     -38.938  20.580  -0.665  0.00  0.00    -0.088 HD
ATOM     23  H2  UNL     1     -39.485  19.398   0.373  0.00  0.00    -0.088 HD
ATOM     24  H3  UNL     1     -37.850  19.590   0.117  0.00  0.00    -0.088 HD
ENDBRANCH  14  21
ENDBRANCH  12  14
ENDBRANCH   5  11
BRANCH   7  26
ATOM     25  OXT UNL     1     -34.197  26.259   6.200  0.00  0.00    -0.244 OA
ATOM     26  C   UNL     1     -35.096  26.177   5.387  0.00  0.00    +0.351 C 
BRANCH  26  27
ATOM     27  O   UNL     1     -36.371  26.572   5.566  0.00  0.00    -0.476 OA
ATOM     28  H   UNL     1     -36.644  26.917   6.394  0.00  0.00    +0.295 HD
ENDBRANCH  26  27
ENDBRANCH   7  26
BRANCH   8  29
ATOM     29  C   UNL     1     -34.245  27.862   3.077  0.00  0.00    +0.162 C 
BRANCH  29  30
ATOM     30  O   UNL     1     -35.409  28.631   3.290  0.00  0.00    -0.377 OA
ATOM     31  H   UNL     1     -36.097  28.073   3.685  0.00  0.00    +0.211 HD
ENDBRANCH  29  30
ENDBRANCH   8  29
TORSDOF 8
ENDMDL
MODEL 4
REMARK VINA RESULT:      -5.8      4.434      6.275
REMARK  Name = 192789
REMARK  8 active torsions:
REMARK  status: ('A' for Active; 'I' for Inactive)
REMARK    1  A    between atoms: CA_5  and  N_11
REMARK    2  A    between atoms: CA_7  and  C_26
REMARK    3  A    between atoms: C_8  and  C_29
REMARK    4  A    between atoms: C_12  and  CA_14
REMARK    5  A    between atoms: CA_14  and  C_15
REMARK    6  A    between atoms: CA_14  and  N_21
REMARK    7  A    between atoms: C_26  and  O_27
REMARK    8  A    between atoms: C_29  and  O_30
REMARK                            x       y       z     vdW  Elec       q    Type
REMARK                         _______ _______ _______ _____ _____    ______ ____
ROOT
ATOM      1  S   UNL     1     -36.766  27.806   0.488  0.00  0.00    -0.114 S 
ATOM      2  O   UNL     1     -35.247  30.816   3.690  0.00  0.00    -0.273 OA
ATOM      3  N   UNL     1     -35.843  30.065   1.534  0.00  0.00    -0.242 N 
ATOM      4  C   UNL     1     -35.361  28.769   1.093  0.00  0.00    +0.155 C 
ATOM      5  CA  UNL     1     -34.948  28.530   2.561  0.00  0.00    +0.178 C 
ATOM      6  C   UNL     1     -35.315  30.025   2.777  0.00  0.00    +0.251 C 
ATOM      7  CA  UNL     1     -36.586  30.897   0.761  0.00  0.00    +0.126 C 
ATOM      8  C   UNL     1     -37.183  30.463  -0.375  0.00  0.00    +0.016 C 
ATOM      9  C   UNL     1     -37.163  29.006  -0.829  0.00  0.00    +0.085 C 
ENDROOT
BRANCH   5  11
ATOM     10  O   UNL     1     -34.184  25.895   3.446  0.00  0.00    -0.277 OA
ATOM     11  N   UNL     1     -35.743  27.610   3.374  0.00  0.00    -0.298 N 
ATOM     12  C   UNL     1     -35.285  26.346   3.754  0.00  0.00    +0.206 C 
ATOM     13  H   UNL     1     -36.640  27.893   3.664  0.00  0.00    +0.150 HD
BRANCH  12  14
ATOM     14  CA  UNL     1     -36.306  25.569   4.578  0.00  0.00    +0.036 C 
BRANCH  14  15
ATOM     15  C   UNL     1     -35.887  24.122   4.731  0.00  0.00    -0.034 C 
ATOM     16  C   UNL     1     -35.348  23.700   5.934  0.00  0.00    -0.006 C 
ATOM     17  C   UNL     1     -36.050  23.255   3.665  0.00  0.00    -0.006 C 
ATOM     18  C   UNL     1     -34.962  22.367   6.075  0.00  0.00    -0.000 C 
ATOM     19  C   UNL     1     -35.663  21.923   3.806  0.00  0.00    -0.000 C 
ATOM     20  C   UNL     1     -35.118  21.478   5.011  0.00  0.00    -0.000 C 
ENDBRANCH  14  15
BRANCH  14  21
ATOM     21  N   UNL     1     -36.448  26.248   5.869  0.00  0.00    +0.390 N 
ATOM     22  H1  UNL     1     -36.162  27.223   5.774  0.00  0.00    -0.088 HD
ATOM     23  H2  UNL     1     -35.859  25.788   6.562  0.00  0.00    -0.088 HD
ATOM     24  H3  UNL     1     -37.423  26.207   6.169  0.00  0.00    -0.088 HD
ENDBRANCH  14  21
ENDBRANCH  12  14
ENDBRANCH   5  11
BRANCH   7  26
ATOM     25  OXT UNL     1     -35.989  33.182   1.040  0.00  0.00    -0.244 OA
ATOM     26  C   UNL     1     -36.769  32.274   1.247  0.00  0.00    +0.351 C 
BRANCH  26  27
ATOM     27  O   UNL     1     -37.920  32.353   1.942  0.00  0.00    -0.476 OA
ATOM     28  H   UNL     1     -38.741  32.231   1.505  0.00  0.00    +0.295 HD
ENDBRANCH  26  27
ENDBRANCH   7  26
BRANCH   8  29
ATOM     29  C   UNL     1     -37.956  31.343  -1.327  0.00  0.00    +0.162 C 
BRANCH  29  30
ATOM     30  O   UNL     1     -39.282  31.479  -0.867  0.00  0.00    -0.377 OA
ATOM     31  H   UNL     1     -39.290  32.013  -0.057  0.00  0.00    +0.211 HD
ENDBRANCH  29  30
ENDBRANCH   8  29
TORSDOF 8
ENDMDL
MODEL 5
REMARK VINA RESULT:      -5.8      2.732      3.830
REMARK  Name = 192789
REMARK  8 active torsions:
REMARK  status: ('A' for Active; 'I' for Inactive)
REMARK    1  A    between atoms: CA_5  and  N_11
REMARK    2  A    between atoms: CA_7  and  C_26
REMARK    3  A    between atoms: C_8  and  C_29
REMARK    4  A    between atoms: C_12  and  CA_14
REMARK    5  A    between atoms: CA_14  and  C_15
REMARK    6  A    between atoms: CA_14  and  N_21
REMARK    7  A    between atoms: C_26  and  O_27
REMARK    8  A    between atoms: C_29  and  O_30
REMARK                            x       y       z     vdW  Elec       q    Type
REMARK                         _______ _______ _______ _____ _____    ______ ____
ROOT
ATOM      1  S   UNL     1     -35.196  24.532   5.186  0.00  0.00    -0.114 S 
ATOM      2  O   UNL     1     -33.797  25.408   0.840  0.00  0.00    -0.273 OA
ATOM      3  N   UNL     1     -34.273  25.889   3.099  0.00  0.00    -0.242 N 
ATOM      4  C   UNL     1     -35.533  25.432   3.656  0.00  0.00    +0.155 C 
ATOM      5  CA  UNL     1     -35.679  24.580   2.377  0.00  0.00    +0.178 C 
ATOM      6  C   UNL     1     -34.431  25.355   1.869  0.00  0.00    +0.251 C 
ATOM      7  CA  UNL     1     -33.362  26.618   3.793  0.00  0.00    +0.126 C 
ATOM      8  C   UNL     1     -33.423  26.730   5.142  0.00  0.00    +0.016 C 
ATOM      9  C   UNL     1     -34.437  25.978   6.000  0.00  0.00    +0.085 C 
ENDROOT
BRANCH   5  11
ATOM     10  O   UNL     1     -36.424  22.595   0.424  0.00  0.00    -0.277 OA
ATOM     11  N   UNL     1     -35.473  23.135   2.468  0.00  0.00    -0.298 N 
ATOM     12  C   UNL     1     -35.871  22.248   1.466  0.00  0.00    +0.206 C 
ATOM     13  H   UNL     1     -35.035  22.772   3.273  0.00  0.00    +0.150 HD
BRANCH  12  14
ATOM     14  CA  UNL     1     -35.567  20.793   1.806  0.00  0.00    +0.036 C 
BRANCH  14  15
ATOM     15  C   UNL     1     -34.222  20.378   1.247  0.00  0.00    -0.034 C 
ATOM     16  C   UNL     1     -33.692  19.152   1.608  0.00  0.00    -0.006 C 
ATOM     17  C   UNL     1     -33.554  21.234   0.389  0.00  0.00    -0.006 C 
ATOM     18  C   UNL     1     -32.453  18.769   1.093  0.00  0.00    -0.000 C 
ATOM     19  C   UNL     1     -32.316  20.851  -0.124  0.00  0.00    -0.000 C 
ATOM     20  C   UNL     1     -31.764  19.619   0.227  0.00  0.00    -0.000 C 
ENDBRANCH  14  15
BRANCH  14  21
ATOM     21  N   UNL     1     -35.632  20.652   3.264  0.00  0.00    +0.390 N 
ATOM     22  H1  UNL     1     -36.387  21.235   3.629  0.00  0.00    -0.088 HD
ATOM     23  H2  UNL     1     -34.747  20.947   3.675  0.00  0.00    -0.088 HD
ATOM     24  H3  UNL     1     -35.810  19.677   3.504  0.00  0.00    -0.088 HD
ENDBRANCH  14  21
ENDBRANCH  12  14
ENDBRANCH   5  11
BRANCH   7  26
ATOM     25  OXT UNL     1     -31.178  26.721   2.859  0.00  0.00    -0.244 OA
ATOM     26  C   UNL     1     -32.269  27.229   3.021  0.00  0.00    +0.351 C 
BRANCH  26  27
ATOM     27  O   UNL     1     -32.675  28.419   2.537  0.00  0.00    -0.476 OA
ATOM     28  H   UNL     1     -32.903  28.504   1.631  0.00  0.00    +0.295 HD
ENDBRANCH  26  27
ENDBRANCH   7  26
BRANCH   8  29
ATOM     29  C   UNL     1     -32.499  27.585   5.974  0.00  0.00    +0.162 C 
BRANCH  29  30
ATOM     30  O   UNL     1     -32.210  26.920   7.185  0.00  0.00    -0.377 OA
ATOM     31  H   UNL     1     -31.278  26.651   7.191  0.00  0.00    +0.211 HD
ENDBRANCH  29  30
ENDBRANCH   8  29
TORSDOF 8
ENDMDL
MODEL 6
REMARK VINA RESULT:      -5.8      4.231      9.061
REMARK  Name = 192789
REMARK  8 active torsions:
REMARK  status: ('A' for Active; 'I' for Inactive)
REMARK    1  A    between atoms: CA_5  and  N_11
REMARK    2  A    between atoms: CA_7  and  C_26
REMARK    3  A    between atoms: C_8  and  C_29
REMARK    4  A    between atoms: C_12  and  CA_14
REMARK    5  A    between atoms: CA_14  and  C_15
REMARK    6  A    between atoms: CA_14  and  N_21
REMARK    7  A    between atoms: C_26  and  O_27
REMARK    8  A    between atoms: C_29  and  O_30
REMARK                            x       y       z     vdW  Elec       q    Type
REMARK                         _______ _______ _______ _____ _____    ______ ____
ROOT
ATOM      1  S   UNL     1     -33.988  26.642   3.832  0.00  0.00    -0.114 S 
ATOM      2  O   UNL     1     -38.038  26.850   1.559  0.00  0.00    -0.273 OA
ATOM      3  N   UNL     1     -36.203  25.818   2.622  0.00  0.00    -0.242 N 
ATOM      4  C   UNL     1     -34.865  26.274   2.295  0.00  0.00    +0.155 C 
ATOM      5  CA  UNL     1     -35.547  27.467   1.592  0.00  0.00    +0.178 C 
ATOM      6  C   UNL     1     -36.873  26.697   1.847  0.00  0.00    +0.251 C 
ATOM      7  CA  UNL     1     -36.464  24.798   3.479  0.00  0.00    +0.126 C 
ATOM      8  C   UNL     1     -35.516  24.316   4.317  0.00  0.00    +0.016 C 
ATOM      9  C   UNL     1     -34.124  24.930   4.450  0.00  0.00    +0.085 C 
ENDROOT
BRANCH   5  11
ATOM     10  O   UNL     1     -34.583  29.927   0.439  0.00  0.00    -0.277 OA
ATOM     11  N   UNL     1     -35.500  28.780   2.234  0.00  0.00    -0.298 N 
ATOM     12  C   UNL     1     -35.012  29.920   1.592  0.00  0.00    +0.206 C 
ATOM     13  H   UNL     1     -35.825  28.864   3.160  0.00  0.00    +0.150 HD
BRANCH  12  14
ATOM     14  CA  UNL     1     -35.047  31.161   2.478  0.00  0.00    +0.036 C 
BRANCH  14  15
ATOM     15  C   UNL     1     -35.911  32.240   1.861  0.00  0.00    -0.034 C 
ATOM     16  C   UNL     1     -35.304  33.311   1.229  0.00  0.00    -0.006 C 
ATOM     17  C   UNL     1     -37.288  32.132   1.944  0.00  0.00    -0.006 C 
ATOM     18  C   UNL     1     -36.101  34.306   0.661  0.00  0.00    -0.000 C 
ATOM     19  C   UNL     1     -38.084  33.127   1.377  0.00  0.00    -0.000 C 
ATOM     20  C   UNL     1     -37.491  34.214   0.735  0.00  0.00    -0.000 C 
ENDBRANCH  14  15
BRANCH  14  21
ATOM     21  N   UNL     1     -35.525  30.751   3.802  0.00  0.00    +0.390 N 
ATOM     22  H1  UNL     1     -36.156  31.464   4.171  0.00  0.00    -0.088 HD
ATOM     23  H2  UNL     1     -34.730  30.642   4.431  0.00  0.00    -0.088 HD
ATOM     24  H3  UNL     1     -36.023  29.864   3.723  0.00  0.00    -0.088 HD
ENDBRANCH  14  21
ENDBRANCH  12  14
ENDBRANCH   5  11
BRANCH   7  26
ATOM     25  OXT UNL     1     -38.185  23.222   3.016  0.00  0.00    -0.244 OA
ATOM     26  C   UNL     1     -37.842  24.281   3.502  0.00  0.00    +0.351 C 
BRANCH  26  27
ATOM     27  O   UNL     1     -38.638  25.162   4.137  0.00  0.00    -0.476 OA
ATOM     28  H   UNL     1     -39.006  24.946   4.973  0.00  0.00    +0.295 HD
ENDBRANCH  26  27
ENDBRANCH   7  26
BRANCH   8  29
ATOM     29  C   UNL     1     -35.704  23.135   5.238  0.00  0.00    +0.162 C 
BRANCH  29  30
ATOM     30  O   UNL     1     -35.793  21.954   4.471  0.00  0.00    -0.377 OA
ATOM     31  H   UNL     1     -36.724  21.691   4.389  0.00  0.00    +0.211 HD
ENDBRANCH  29  30
ENDBRANCH   8  29
TORSDOF 8
ENDMDL
MODEL 7
REMARK VINA RESULT:      -5.7      1.937      2.205
REMARK  Name = 192789
REMARK  8 active torsions:
REMARK  status: ('A' for Active; 'I' for Inactive)
REMARK    1  A    between atoms: CA_5  and  N_11
REMARK    2  A    between atoms: CA_7  and  C_26
REMARK    3  A    between atoms: C_8  and  C_29
REMARK    4  A    between atoms: C_12  and  CA_14
REMARK    5  A    between atoms: CA_14  and  C_15
REMARK    6  A    between atoms: CA_14  and  N_21
REMARK    7  A    between atoms: C_26  and  O_27
REMARK    8  A    between atoms: C_29  and  O_30
REMARK                            x       y       z     vdW  Elec       q    Type
REMARK                         _______ _______ _______ _____ _____    ______ ____
ROOT
ATOM      1  S   UNL     1     -35.573  22.403   3.306  0.00  0.00    -0.114 S 
ATOM      2  O   UNL     1     -38.891  24.136   0.548  0.00  0.00    -0.273 OA
ATOM      3  N   UNL     1     -37.679  23.832   2.549  0.00  0.00    -0.242 N 
ATOM      4  C   UNL     1     -37.345  22.481   2.960  0.00  0.00    +0.155 C 
ATOM      5  CA  UNL     1     -37.789  22.044   1.548  0.00  0.00    +0.178 C 
ATOM      6  C   UNL     1     -38.288  23.508   1.388  0.00  0.00    +0.251 C 
ATOM      7  CA  UNL     1     -37.369  24.939   3.271  0.00  0.00    +0.126 C 
ATOM      8  C   UNL     1     -36.472  24.895   4.285  0.00  0.00    +0.016 C 
ATOM      9  C   UNL     1     -35.665  23.648   4.638  0.00  0.00    +0.085 C 
ENDROOT
BRANCH   5  11
ATOM     10  O   UNL     1     -37.627  19.575   0.069  0.00  0.00    -0.277 OA
ATOM     11  N   UNL     1     -36.763  21.666   0.576  0.00  0.00    -0.298 N 
ATOM     12  C   UNL     1     -36.769  20.441  -0.093  0.00  0.00    +0.206 C 
ATOM     13  H   UNL     1     -36.037  22.304   0.386  0.00  0.00    +0.150 HD
BRANCH  12  14
ATOM     14  CA  UNL     1     -35.582  20.275  -1.037  0.00  0.00    +0.036 C 
BRANCH  14  15
ATOM     15  C   UNL     1     -34.398  19.670  -0.314  0.00  0.00    -0.034 C 
ATOM     16  C   UNL     1     -34.460  18.348   0.093  0.00  0.00    -0.006 C 
ATOM     17  C   UNL     1     -33.281  20.450  -0.075  0.00  0.00    -0.006 C 
ATOM     18  C   UNL     1     -33.369  17.790   0.760  0.00  0.00    -0.000 C 
ATOM     19  C   UNL     1     -32.191  19.893   0.592  0.00  0.00    -0.000 C 
ATOM     20  C   UNL     1     -32.234  18.563   1.010  0.00  0.00    -0.000 C 
ENDBRANCH  14  15
BRANCH  14  21
ATOM     21  N   UNL     1     -36.024  19.454  -2.169  0.00  0.00    +0.390 N 
ATOM     22  H1  UNL     1     -36.553  20.033  -2.822  0.00  0.00    -0.088 HD
ATOM     23  H2  UNL     1     -36.616  18.697  -1.829  0.00  0.00    -0.088 HD
ATOM     24  H3  UNL     1     -35.209  19.064  -2.643  0.00  0.00    -0.088 HD
ENDBRANCH  14  21
ENDBRANCH  12  14
ENDBRANCH   5  11
BRANCH   7  26
ATOM     25  OXT UNL     1     -37.518  26.987   2.071  0.00  0.00    -0.244 OA
ATOM     26  C   UNL     1     -38.002  26.202   2.861  0.00  0.00    +0.351 C 
BRANCH  26  27
ATOM     27  O   UNL     1     -39.182  26.337   3.497  0.00  0.00    -0.476 OA
ATOM     28  H   UNL     1     -39.299  27.019   4.130  0.00  0.00    +0.295 HD
ENDBRANCH  26  27
ENDBRANCH   7  26
BRANCH   8  29
ATOM     29  C   UNL     1     -36.136  26.060   5.185  0.00  0.00    +0.162 C 
BRANCH  29  30
ATOM     30  O   UNL     1     -35.430  27.033   4.445  0.00  0.00    -0.377 OA
ATOM     31  H   UNL     1     -35.748  27.036   3.529  0.00  0.00    +0.211 HD
ENDBRANCH  29  30
ENDBRANCH   8  29
TORSDOF 8
ENDMDL
MODEL 8
REMARK VINA RESULT:      -5.7      3.542      7.760
REMARK  Name = 192789
REMARK  8 active torsions:
REMARK  status: ('A' for Active; 'I' for Inactive)
REMARK    1  A    between atoms: CA_5  and  N_11
REMARK    2  A    between atoms: CA_7  and  C_26
REMARK    3  A    between atoms: C_8  and  C_29
REMARK    4  A    between atoms: C_12  and  CA_14
REMARK    5  A    between atoms: CA_14  and  C_15
REMARK    6  A    between atoms: CA_14  and  N_21
REMARK    7  A    between atoms: C_26  and  O_27
REMARK    8  A    between atoms: C_29  and  O_30
REMARK                            x       y       z     vdW  Elec       q    Type
REMARK                         _______ _______ _______ _____ _____    ______ ____
ROOT
ATOM      1  S   UNL     1     -34.813  24.374   1.408  0.00  0.00    -0.114 S 
ATOM      2  O   UNL     1     -35.143  24.981   6.005  0.00  0.00    -0.273 OA
ATOM      3  N   UNL     1     -35.547  23.948   3.924  0.00  0.00    -0.242 N 
ATOM      4  C   UNL     1     -35.902  24.783   2.791  0.00  0.00    +0.155 C 
ATOM      5  CA  UNL     1     -35.478  25.983   3.666  0.00  0.00    +0.178 C 
ATOM      6  C   UNL     1     -35.372  24.945   4.818  0.00  0.00    +0.251 C 
ATOM      7  CA  UNL     1     -35.472  22.594   3.868  0.00  0.00    +0.126 C 
ATOM      8  C   UNL     1     -35.438  21.934   2.686  0.00  0.00    +0.016 C 
ATOM      9  C   UNL     1     -35.376  22.639   1.333  0.00  0.00    +0.085 C 
ENDROOT
BRANCH   5  11
ATOM     10  O   UNL     1     -35.092  28.792   3.150  0.00  0.00    -0.277 OA
ATOM     11  N   UNL     1     -34.215  26.657   3.368  0.00  0.00    -0.298 N 
ATOM     12  C   UNL     1     -34.127  28.030   3.130  0.00  0.00    +0.206 C 
ATOM     13  H   UNL     1     -33.391  26.118   3.332  0.00  0.00    +0.150 HD
BRANCH  12  14
ATOM     14  CA  UNL     1     -32.706  28.489   2.820  0.00  0.00    +0.036 C 
BRANCH  14  15
ATOM     15  C   UNL     1     -32.018  28.996   4.070  0.00  0.00    -0.034 C 
ATOM     16  C   UNL     1     -31.029  28.225   4.655  0.00  0.00    -0.006 C 
ATOM     17  C   UNL     1     -32.394  30.218   4.599  0.00  0.00    -0.006 C 
ATOM     18  C   UNL     1     -30.395  28.692   5.807  0.00  0.00    -0.000 C 
ATOM     19  C   UNL     1     -31.761  30.684   5.751  0.00  0.00    -0.000 C 
ATOM     20  C   UNL     1     -30.761  29.922   6.355  0.00  0.00    -0.000 C 
ENDBRANCH  14  15
BRANCH  14  21
ATOM     21  N   UNL     1     -31.995  27.360   2.211  0.00  0.00    +0.390 N 
ATOM     22  H1  UNL     1     -32.647  26.590   2.059  0.00  0.00    -0.088 HD
ATOM     23  H2  UNL     1     -31.247  27.054   2.833  0.00  0.00    -0.088 HD
ATOM     24  H3  UNL     1     -31.598  27.652   1.318  0.00  0.00    -0.088 HD
ENDBRANCH  14  21
ENDBRANCH  12  14
ENDBRANCH   5  11
BRANCH   7  26
ATOM     25  OXT UNL     1     -34.537  21.022   5.388  0.00  0.00    -0.244 OA
ATOM     26  C   UNL     1     -35.365  21.878   5.150  0.00  0.00    +0.351 C 
BRANCH  26  27
ATOM     27  O   UNL     1     -36.317  22.325   5.991  0.00  0.00    -0.476 OA
ATOM     28  H   UNL     1     -36.187  22.271   6.918  0.00  0.00    +0.295 HD
ENDBRANCH  26  27
ENDBRANCH   7  26
BRANCH   8  29
ATOM     29  C   UNL     1     -35.437  20.431   2.542  0.00  0.00    +0.162 C 
BRANCH  29  30
ATOM     30  O   UNL     1     -36.758  19.949   2.660  0.00  0.00    -0.377 OA
ATOM     31  H   UNL     1     -37.303  20.324   1.951  0.00  0.00    +0.211 HD
ENDBRANCH  29  30
ENDBRANCH   8  29
TORSDOF 8
ENDMDL
MODEL 9
REMARK VINA RESULT:      -5.7      4.210      6.439
REMARK  Name = 192789
REMARK  8 active torsions:
REMARK  status: ('A' for Active; 'I' for Inactive)
REMARK    1  A    between atoms: CA_5  and  N_11
REMARK    2  A    between atoms: CA_7  and  C_26
REMARK    3  A    between atoms: C_8  and  C_29
REMARK    4  A    between atoms: C_12  and  CA_14
REMARK    5  A    between atoms: CA_14  and  C_15
REMARK    6  A    between atoms: CA_14  and  N_21
REMARK    7  A    between atoms: C_26  and  O_27
REMARK    8  A    between atoms: C_29  and  O_30
REMARK                            x       y       z     vdW  Elec       q    Type
REMARK                         _______ _______ _______ _____ _____    ______ ____
ROOT
ATOM      1  S   UNL     1     -35.120  28.904   1.870  0.00  0.00    -0.114 S 
ATOM      2  O   UNL     1     -31.727  27.693   4.809  0.00  0.00    -0.273 OA
ATOM      3  N   UNL     1     -32.813  29.009   3.180  0.00  0.00    -0.242 N 
ATOM      4  C   UNL     1     -33.410  28.344   2.036  0.00  0.00    +0.155 C 
ATOM      5  CA  UNL     1     -33.191  27.026   2.809  0.00  0.00    +0.178 C 
ATOM      6  C   UNL     1     -32.388  27.896   3.816  0.00  0.00    +0.251 C 
ATOM      7  CA  UNL     1     -32.805  30.355   3.351  0.00  0.00    +0.126 C 
ATOM      8  C   UNL     1     -33.604  31.167   2.619  0.00  0.00    +0.016 C 
ATOM      9  C   UNL     1     -34.642  30.649   1.626  0.00  0.00    +0.085 C 
ENDROOT
BRANCH   5  11
ATOM     10  O   UNL     1     -34.974  25.164   1.520  0.00  0.00    -0.277 OA
ATOM     11  N   UNL     1     -34.350  26.361   3.404  0.00  0.00    -0.298 N 
ATOM     12  C   UNL     1     -35.159  25.471   2.696  0.00  0.00    +0.206 C 
ATOM     13  H   UNL     1     -34.570  26.552   4.345  0.00  0.00    +0.150 HD
BRANCH  12  14
ATOM     14  CA  UNL     1     -36.315  24.928   3.529  0.00  0.00    +0.036 C 
BRANCH  14  15
ATOM     15  C   UNL     1     -35.901  23.681   4.280  0.00  0.00    -0.034 C 
ATOM     16  C   UNL     1     -35.649  23.764   5.638  0.00  0.00    -0.006 C 
ATOM     17  C   UNL     1     -35.784  22.486   3.592  0.00  0.00    -0.006 C 
ATOM     18  C   UNL     1     -35.267  22.615   6.330  0.00  0.00    -0.000 C 
ATOM     19  C   UNL     1     -35.401  21.337   4.284  0.00  0.00    -0.000 C 
ATOM     20  C   UNL     1     -35.142  21.401   5.653  0.00  0.00    -0.000 C 
ENDBRANCH  14  15
BRANCH  14  21
ATOM     21  N   UNL     1     -36.759  25.999   4.427  0.00  0.00    +0.390 N 
ATOM     22  H1  UNL     1     -36.491  25.772   5.385  0.00  0.00    -0.088 HD
ATOM     23  H2  UNL     1     -37.773  26.092   4.371  0.00  0.00    -0.088 HD
ATOM     24  H3  UNL     1     -36.321  26.877   4.151  0.00  0.00    -0.088 HD
ENDBRANCH  14  21
ENDBRANCH  12  14
ENDBRANCH   5  11
BRANCH   7  26
ATOM     25  OXT UNL     1     -30.891  31.473   4.213  0.00  0.00    -0.244 OA
ATOM     26  C   UNL     1     -31.937  30.888   4.413  0.00  0.00    +0.351 C 
BRANCH  26  27
ATOM     27  O   UNL     1     -32.486  30.622   5.614  0.00  0.00    -0.476 OA
ATOM     28  H   UNL     1     -32.638  31.317   6.225  0.00  0.00    +0.295 HD
ENDBRANCH  26  27
ENDBRANCH   7  26
BRANCH   8  29
ATOM     29  C   UNL     1     -33.595  32.675   2.693  0.00  0.00    +0.162 C 
BRANCH  29  30
ATOM     30  O   UNL     1     -32.446  33.168   2.038  0.00  0.00    -0.377 OA
ATOM     31  H   UNL     1     -31.666  33.012   2.593  0.00  0.00    +0.211 HD
ENDBRANCH  29  30
ENDBRANCH   8  29
TORSDOF 8
ENDMDL
