MODEL 1
REMARK VINA RESULT:      -6.7      0.000      0.000
REMARK  Name = 191442
REMARK  6 active torsions:
REMARK  status: ('A' for Active; 'I' for Inactive)
REMARK    1  A    between atoms: C_1  and  S_7
REMARK    2  A    between atoms: C_2  and  C_14
REMARK    3  A    between atoms: S_7  and  N_10
REMARK    4  A    between atoms: C_14  and  O_15
REMARK    5  A    between atoms: O_15  and  C_16
REMARK    6  A    between atoms: C_19  and  N_24
REMARK                            x       y       z     vdW  Elec       q    Type
REMARK                         _______ _______ _______ _____ _____    ______ ____
ROOT
ATOM      1  C   UNL     1     -35.060  24.692   4.136  0.00  0.00    +0.122 C 
ATOM      2  C   UNL     1     -35.355  22.270   2.784  0.00  0.00    +0.076 C 
ATOM      3  C   UNL     1     -34.858  24.634   2.756  0.00  0.00    +0.020 C 
ATOM      4  C   UNL     1     -35.410  23.539   4.838  0.00  0.00    +0.020 C 
ATOM      5  C   UNL     1     -35.005  23.423   2.080  0.00  0.00    +0.008 C 
ATOM      6  C   UNL     1     -35.558  22.328   4.162  0.00  0.00    +0.008 C 
ENDROOT
BRANCH   1   7
ATOM      7  S   UNL     1     -34.877  26.209   4.981  0.00  0.00    +0.057 S 
ATOM      8  O   UNL     1     -34.041  25.983   6.153  0.00  0.00    -0.153 OA
ATOM      9  O   UNL     1     -34.508  27.235   4.016  0.00  0.00    -0.153 OA
BRANCH   7  10
ATOM     10  N   UNL     1     -36.481  26.491   5.495  0.00  0.00    -0.203 NA
ATOM     11  H   UNL     1     -37.030  26.849   4.714  0.00  0.00    +0.144 HD
ATOM     12  H   UNL     1     -36.480  27.174   6.252  0.00  0.00    +0.144 HD
ENDBRANCH   7  10
ENDBRANCH   1   7
BRANCH   2  14
ATOM     13  O   UNL     1     -36.143  20.036   2.514  0.00  0.00    -0.244 OA
ATOM     14  C   UNL     1     -35.508  21.007   2.078  0.00  0.00    +0.346 C 
BRANCH  14  15
ATOM     15  O   UNL     1     -34.840  21.032   0.856  0.00  0.00    -0.421 OA
BRANCH  15  16
ATOM     16  C   UNL     1     -33.701  20.225   0.811  0.00  0.00    +0.149 C 
ATOM     17  C   UNL     1     -32.599  20.674   0.118  0.00  0.00    +0.039 C 
ATOM     18  C   UNL     1     -33.724  19.011   1.462  0.00  0.00    +0.039 C 
ATOM     19  C   UNL     1     -31.455  18.634   0.723  0.00  0.00    +0.143 C 
ATOM     20  C   UNL     1     -31.462  19.869   0.073  0.00  0.00    +0.027 C 
ATOM     21  C   UNL     1     -32.585  18.205   1.417  0.00  0.00    +0.027 C 
BRANCH  19  24
ATOM     22  O   UNL     1     -29.166  18.354   0.718  0.00  0.00    -0.126 OA
ATOM     23  O   UNL     1     -30.437  16.569   0.596  0.00  0.00    -0.126 OA
ATOM     24  N   UNL     1     -30.297  17.813   0.677  0.00  0.00    +0.058 N 
ENDBRANCH  19  24
ENDBRANCH  15  16
ENDBRANCH  14  15
ENDBRANCH   2  14
TORSDOF 6
ENDMDL
MODEL 2
REMARK VINA RESULT:      -6.6      2.535      7.333
REMARK  Name = 191442
REMARK  6 active torsions:
REMARK  status: ('A' for Active; 'I' for Inactive)
REMARK    1  A    between atoms: C_1  and  S_7
REMARK    2  A    between atoms: C_2  and  C_14
REMARK    3  A    between atoms: S_7  and  N_10
REMARK    4  A    between atoms: C_14  and  O_15
REMARK    5  A    between atoms: O_15  and  C_16
REMARK    6  A    between atoms: C_19  and  N_24
REMARK                            x       y       z     vdW  Elec       q    Type
REMARK                         _______ _______ _______ _____ _____    ______ ____
ROOT
ATOM      1  C   UNL     1     -31.955  20.008   0.061  0.00  0.00    +0.122 C 
ATOM      2  C   UNL     1     -34.397  20.304   1.376  0.00  0.00    +0.076 C 
ATOM      3  C   UNL     1     -32.724  21.153  -0.146  0.00  0.00    +0.020 C 
ATOM      4  C   UNL     1     -32.406  19.012   0.926  0.00  0.00    +0.020 C 
ATOM      5  C   UNL     1     -33.946  21.301   0.511  0.00  0.00    +0.008 C 
ATOM      6  C   UNL     1     -33.628  19.160   1.584  0.00  0.00    +0.008 C 
ENDROOT
BRANCH   1   7
ATOM      7  S   UNL     1     -30.426  19.824  -0.761  0.00  0.00    +0.057 S 
ATOM      8  O   UNL     1     -29.534  19.052   0.094  0.00  0.00    -0.153 OA
ATOM      9  O   UNL     1     -30.684  19.380  -2.124  0.00  0.00    -0.153 OA
BRANCH   7  10
ATOM     10  N   UNL     1     -29.883  21.442  -0.805  0.00  0.00    -0.203 NA
ATOM     11  H   UNL     1     -29.639  21.693  -1.763  0.00  0.00    +0.144 HD
ATOM     12  H   UNL     1     -29.062  21.542  -0.207  0.00  0.00    +0.144 HD
ENDBRANCH   7  10
ENDBRANCH   1   7
BRANCH   2  14
ATOM     13  O   UNL     1     -36.765  20.564   1.489  0.00  0.00    -0.244 OA
ATOM     14  C   UNL     1     -35.671  20.458   2.061  0.00  0.00    +0.346 C 
BRANCH  14  15
ATOM     15  O   UNL     1     -35.496  20.482   3.443  0.00  0.00    -0.421 OA
BRANCH  15  16
ATOM     16  C   UNL     1     -35.405  21.767   3.986  0.00  0.00    +0.149 C 
ATOM     17  C   UNL     1     -35.509  22.849   3.142  0.00  0.00    +0.039 C 
ATOM     18  C   UNL     1     -35.216  21.899   5.344  0.00  0.00    +0.039 C 
ATOM     19  C   UNL     1     -35.227  24.298   5.055  0.00  0.00    +0.143 C 
ATOM     20  C   UNL     1     -35.419  24.132   3.683  0.00  0.00    +0.027 C 
ATOM     21  C   UNL     1     -35.126  23.182   5.885  0.00  0.00    +0.027 C 
BRANCH  19  24
ATOM     22  O   UNL     1     -34.054  25.967   6.131  0.00  0.00    -0.126 OA
ATOM     23  O   UNL     1     -36.136  26.358   5.554  0.00  0.00    -0.126 OA
ATOM     24  N   UNL     1     -35.134  25.603   5.607  0.00  0.00    +0.058 N 
ENDBRANCH  19  24
ENDBRANCH  15  16
ENDBRANCH  14  15
ENDBRANCH   2  14
TORSDOF 6
ENDMDL
MODEL 3
REMARK VINA RESULT:      -6.5      2.441      7.579
REMARK  Name = 191442
REMARK  6 active torsions:
REMARK  status: ('A' for Active; 'I' for Inactive)
REMARK    1  A    between atoms: C_1  and  S_7
REMARK    2  A    between atoms: C_2  and  C_14
REMARK    3  A    between atoms: S_7  and  N_10
REMARK    4  A    between atoms: C_14  and  O_15
REMARK    5  A    between atoms: O_15  and  C_16
REMARK    6  A    between atoms: C_19  and  N_24
REMARK                            x       y       z     vdW  Elec       q    Type
REMARK                         _______ _______ _______ _____ _____    ______ ____
ROOT
ATOM      1  C   UNL     1     -31.662  19.459   0.346  0.00  0.00    +0.122 C 
ATOM      2  C   UNL     1     -34.203  20.137   1.275  0.00  0.00    +0.076 C 
ATOM      3  C   UNL     1     -32.357  18.582   1.180  0.00  0.00    +0.020 C 
ATOM      4  C   UNL     1     -32.238  20.674  -0.023  0.00  0.00    +0.020 C 
ATOM      5  C   UNL     1     -33.628  18.921   1.645  0.00  0.00    +0.008 C 
ATOM      6  C   UNL     1     -33.509  21.013   0.441  0.00  0.00    +0.008 C 
ENDROOT
BRANCH   1   7
ATOM      7  S   UNL     1     -30.072  19.033  -0.235  0.00  0.00    +0.057 S 
ATOM      8  O   UNL     1     -29.394  20.253  -0.653  0.00  0.00    -0.153 OA
ATOM      9  O   UNL     1     -29.443  18.154   0.740  0.00  0.00    -0.153 OA
BRANCH   7  10
ATOM     10  N   UNL     1     -30.467  18.119  -1.623  0.00  0.00    -0.203 NA
ATOM     11  H   UNL     1     -30.021  18.534  -2.441  0.00  0.00    +0.144 HD
ATOM     12  H   UNL     1     -31.479  18.116  -1.751  0.00  0.00    +0.144 HD
ENDBRANCH   7  10
ENDBRANCH   1   7
BRANCH   2  14
ATOM     13  O   UNL     1     -36.493  20.757   1.028  0.00  0.00    -0.244 OA
ATOM     14  C   UNL     1     -35.529  20.491   1.760  0.00  0.00    +0.346 C 
BRANCH  14  15
ATOM     15  O   UNL     1     -35.566  20.500   3.152  0.00  0.00    -0.421 OA
BRANCH  15  16
ATOM     16  C   UNL     1     -35.381  21.763   3.721  0.00  0.00    +0.149 C 
ATOM     17  C   UNL     1     -35.246  21.859   5.087  0.00  0.00    +0.039 C 
ATOM     18  C   UNL     1     -35.341  22.862   2.891  0.00  0.00    +0.039 C 
ATOM     19  C   UNL     1     -35.016  24.252   4.841  0.00  0.00    +0.143 C 
ATOM     20  C   UNL     1     -35.060  23.119   5.655  0.00  0.00    +0.027 C 
ATOM     21  C   UNL     1     -35.156  24.123   3.460  0.00  0.00    +0.027 C 
BRANCH  19  24
ATOM     22  O   UNL     1     -35.822  26.285   5.571  0.00  0.00    -0.126 OA
ATOM     23  O   UNL     1     -33.672  25.884   5.761  0.00  0.00    -0.126 OA
ATOM     24  N   UNL     1     -34.828  25.535   5.418  0.00  0.00    +0.058 N 
ENDBRANCH  19  24
ENDBRANCH  15  16
ENDBRANCH  14  15
ENDBRANCH   2  14
TORSDOF 6
ENDMDL
MODEL 4
REMARK VINA RESULT:      -6.5      3.585      4.864
REMARK  Name = 191442
REMARK  6 active torsions:
REMARK  status: ('A' for Active; 'I' for Inactive)
REMARK    1  A    between atoms: C_1  and  S_7
REMARK    2  A    between atoms: C_2  and  C_14
REMARK    3  A    between atoms: S_7  and  N_10
REMARK    4  A    between atoms: C_14  and  O_15
REMARK    5  A    between atoms: O_15  and  C_16
REMARK    6  A    between atoms: C_19  and  N_24
REMARK                            x       y       z     vdW  Elec       q    Type
REMARK                         _______ _______ _______ _____ _____    ______ ____
ROOT
ATOM      1  C   UNL     1     -33.486  27.177   4.924  0.00  0.00    +0.122 C 
ATOM      2  C   UNL     1     -35.809  25.815   4.196  0.00  0.00    +0.076 C 
ATOM      3  C   UNL     1     -34.058  26.254   5.801  0.00  0.00    +0.020 C 
ATOM      4  C   UNL     1     -34.076  27.418   3.684  0.00  0.00    +0.020 C 
ATOM      5  C   UNL     1     -35.220  25.573   5.437  0.00  0.00    +0.008 C 
ATOM      6  C   UNL     1     -35.238  26.736   3.319  0.00  0.00    +0.008 C 
ENDROOT
BRANCH   1   7
ATOM      7  S   UNL     1     -32.032  28.028   5.380  0.00  0.00    +0.057 S 
ATOM      8  O   UNL     1     -30.995  27.723   4.403  0.00  0.00    -0.153 OA
ATOM      9  O   UNL     1     -32.376  29.415   5.660  0.00  0.00    -0.153 OA
BRANCH   7  10
ATOM     10  N   UNL     1     -31.648  27.251   6.852  0.00  0.00    -0.203 NA
ATOM     11  H   UNL     1     -31.685  27.928   7.614  0.00  0.00    +0.144 HD
ATOM     12  H   UNL     1     -30.710  26.856   6.793  0.00  0.00    +0.144 HD
ENDBRANCH   7  10
ENDBRANCH   1   7
BRANCH   2  14
ATOM     13  O   UNL     1     -37.890  25.560   3.060  0.00  0.00    -0.244 OA
ATOM     14  C   UNL     1     -37.021  25.104   3.816  0.00  0.00    +0.346 C 
BRANCH  14  15
ATOM     15  O   UNL     1     -37.077  23.852   4.423  0.00  0.00    -0.421 OA
BRANCH  15  16
ATOM     16  C   UNL     1     -36.811  22.786   3.560  0.00  0.00    +0.149 C 
ATOM     17  C   UNL     1     -37.743  22.464   2.600  0.00  0.00    +0.039 C 
ATOM     18  C   UNL     1     -35.625  22.100   3.703  0.00  0.00    +0.039 C 
ATOM     19  C   UNL     1     -36.285  20.686   1.857  0.00  0.00    +0.143 C 
ATOM     20  C   UNL     1     -37.478  21.400   1.738  0.00  0.00    +0.027 C 
ATOM     21  C   UNL     1     -35.359  21.036   2.840  0.00  0.00    +0.027 C 
BRANCH  19  24
ATOM     22  O   UNL     1     -34.828  19.225   0.828  0.00  0.00    -0.126 OA
ATOM     23  O   UNL     1     -36.970  19.052   0.382  0.00  0.00    -0.126 OA
ATOM     24  N   UNL     1     -36.014  19.603   0.981  0.00  0.00    +0.058 N 
ENDBRANCH  19  24
ENDBRANCH  15  16
ENDBRANCH  14  15
ENDBRANCH   2  14
TORSDOF 6
ENDMDL
MODEL 5
REMARK VINA RESULT:      -6.5      2.895      7.417
REMARK  Name = 191442
REMARK  6 active torsions:
REMARK  status: ('A' for Active; 'I' for Inactive)
REMARK    1  A    between atoms: C_1  and  S_7
REMARK    2  A    between atoms: C_2  and  C_14
REMARK    3  A    between atoms: S_7  and  N_10
REMARK    4  A    between atoms: C_14  and  O_15
REMARK    5  A    between atoms: O_15  and  C_16
REMARK    6  A    between atoms: C_19  and  N_24
REMARK                            x       y       z     vdW  Elec       q    Type
REMARK                         _______ _______ _______ _____ _____    ______ ____
ROOT
ATOM      1  C   UNL     1     -34.062  20.503   0.990  0.00  0.00    +0.122 C 
ATOM      2  C   UNL     1     -36.081  22.044   2.143  0.00  0.00    +0.076 C 
ATOM      3  C   UNL     1     -34.901  19.944   1.954  0.00  0.00    +0.020 C 
ATOM      4  C   UNL     1     -34.233  21.831   0.602  0.00  0.00    +0.020 C 
ATOM      5  C   UNL     1     -35.911  20.715   2.531  0.00  0.00    +0.008 C 
ATOM      6  C   UNL     1     -35.243  22.602   1.178  0.00  0.00    +0.008 C 
ENDROOT
BRANCH   1   7
ATOM      7  S   UNL     1     -32.799  19.537   0.268  0.00  0.00    +0.057 S 
ATOM      8  O   UNL     1     -33.325  18.925  -0.944  0.00  0.00    -0.153 OA
ATOM      9  O   UNL     1     -31.584  20.337   0.205  0.00  0.00    -0.153 OA
BRANCH   7  10
ATOM     10  N   UNL     1     -32.597  18.326   1.455  0.00  0.00    -0.203 NA
ATOM     11  H   UNL     1     -33.500  18.111   1.878  0.00  0.00    +0.144 HD
ATOM     12  H   UNL     1     -31.954  18.658   2.174  0.00  0.00    +0.144 HD
ENDBRANCH   7  10
ENDBRANCH   1   7
BRANCH   2  14
ATOM     13  O   UNL     1     -38.050  23.389   2.109  0.00  0.00    -0.244 OA
ATOM     14  C   UNL     1     -37.134  22.848   2.744  0.00  0.00    +0.346 C 
BRANCH  14  15
ATOM     15  O   UNL     1     -36.970  22.935   4.125  0.00  0.00    -0.421 OA
BRANCH  15  16
ATOM     16  C   UNL     1     -36.078  23.931   4.532  0.00  0.00    +0.149 C 
ATOM     17  C   UNL     1     -36.531  25.228   4.619  0.00  0.00    +0.039 C 
ATOM     18  C   UNL     1     -34.781  23.575   4.831  0.00  0.00    +0.039 C 
ATOM     19  C   UNL     1     -34.322  25.893   5.336  0.00  0.00    +0.143 C 
ATOM     20  C   UNL     1     -35.642  26.222   5.026  0.00  0.00    +0.027 C 
ATOM     21  C   UNL     1     -33.892  24.570   5.239  0.00  0.00    +0.027 C 
BRANCH  19  24
ATOM     22  O   UNL     1     -33.274  27.926   5.034  0.00  0.00    -0.126 OA
ATOM     23  O   UNL     1     -32.781  26.751   6.821  0.00  0.00    -0.126 OA
ATOM     24  N   UNL     1     -33.415  26.905   5.750  0.00  0.00    +0.058 N 
ENDBRANCH  19  24
ENDBRANCH  15  16
ENDBRANCH  14  15
ENDBRANCH   2  14
TORSDOF 6
ENDMDL
MODEL 6
REMARK VINA RESULT:      -6.5      3.944      8.377
REMARK  Name = 191442
REMARK  6 active torsions:
REMARK  status: ('A' for Active; 'I' for Inactive)
REMARK    1  A    between atoms: C_1  and  S_7
REMARK    2  A    between atoms: C_2  and  C_14
REMARK    3  A    between atoms: S_7  and  N_10
REMARK    4  A    between atoms: C_14  and  O_15
REMARK    5  A    between atoms: O_15  and  C_16
REMARK    6  A    between atoms: C_19  and  N_24
REMARK                            x       y       z     vdW  Elec       q    Type
REMARK                         _______ _______ _______ _____ _____    ______ ____
ROOT
ATOM      1  C   UNL     1     -35.547  22.085   2.842  0.00  0.00    +0.122 C 
ATOM      2  C   UNL     1     -35.353  24.329   4.488  0.00  0.00    +0.076 C 
ATOM      3  C   UNL     1     -35.606  21.941   4.229  0.00  0.00    +0.020 C 
ATOM      4  C   UNL     1     -35.392  23.352   2.279  0.00  0.00    +0.020 C 
ATOM      5  C   UNL     1     -35.509  23.063   5.052  0.00  0.00    +0.008 C 
ATOM      6  C   UNL     1     -35.295  24.474   3.102  0.00  0.00    +0.008 C 
ENDROOT
BRANCH   1   7
ATOM      7  S   UNL     1     -35.669  20.681   1.813  0.00  0.00    +0.057 S 
ATOM      8  O   UNL     1     -36.127  21.113   0.499  0.00  0.00    -0.153 OA
ATOM      9  O   UNL     1     -34.439  19.911   1.933  0.00  0.00    -0.153 OA
BRANCH   7  10
ATOM     10  N   UNL     1     -36.930  19.823   2.581  0.00  0.00    -0.203 NA
ATOM     11  H   UNL     1     -37.829  20.205   2.288  0.00  0.00    +0.144 HD
ATOM     12  H   UNL     1     -36.835  19.912   3.592  0.00  0.00    +0.144 HD
ENDBRANCH   7  10
ENDBRANCH   1   7
BRANCH   2  14
ATOM     13  O   UNL     1     -36.140  26.355   5.471  0.00  0.00    -0.244 OA
ATOM     14  C   UNL     1     -35.252  25.500   5.347  0.00  0.00    +0.346 C 
BRANCH  14  15
ATOM     15  O   UNL     1     -34.023  25.534   6.002  0.00  0.00    -0.421 OA
BRANCH  15  16
ATOM     16  C   UNL     1     -33.296  26.709   5.791  0.00  0.00    +0.149 C 
ATOM     17  C   UNL     1     -33.227  27.224   4.516  0.00  0.00    +0.039 C 
ATOM     18  C   UNL     1     -32.678  27.307   6.867  0.00  0.00    +0.039 C 
ATOM     19  C   UNL     1     -31.865  29.025   5.376  0.00  0.00    +0.143 C 
ATOM     20  C   UNL     1     -32.502  28.396   4.305  0.00  0.00    +0.027 C 
ATOM     21  C   UNL     1     -31.953  28.480   6.656  0.00  0.00    +0.027 C 
BRANCH  19  24
ATOM     22  O   UNL     1     -31.653  31.151   4.508  0.00  0.00    -0.126 OA
ATOM     23  O   UNL     1     -29.967  30.308   5.633  0.00  0.00    -0.126 OA
ATOM     24  N   UNL     1     -31.126  30.218   5.162  0.00  0.00    +0.058 N 
ENDBRANCH  19  24
ENDBRANCH  15  16
ENDBRANCH  14  15
ENDBRANCH   2  14
TORSDOF 6
ENDMDL
MODEL 7
REMARK VINA RESULT:      -6.5      1.384      2.108
REMARK  Name = 191442
REMARK  6 active torsions:
REMARK  status: ('A' for Active; 'I' for Inactive)
REMARK    1  A    between atoms: C_1  and  S_7
REMARK    2  A    between atoms: C_2  and  C_14
REMARK    3  A    between atoms: S_7  and  N_10
REMARK    4  A    between atoms: C_14  and  O_15
REMARK    5  A    between atoms: O_15  and  C_16
REMARK    6  A    between atoms: C_19  and  N_24
REMARK                            x       y       z     vdW  Elec       q    Type
REMARK                         _______ _______ _______ _____ _____    ______ ____
ROOT
ATOM      1  C   UNL     1     -35.125  24.648   4.111  0.00  0.00    +0.122 C 
ATOM      2  C   UNL     1     -35.448  22.193   2.826  0.00  0.00    +0.076 C 
ATOM      3  C   UNL     1     -35.549  23.532   4.834  0.00  0.00    +0.020 C 
ATOM      4  C   UNL     1     -34.863  24.535   2.746  0.00  0.00    +0.020 C 
ATOM      5  C   UNL     1     -35.711  22.304   4.192  0.00  0.00    +0.008 C 
ATOM      6  C   UNL     1     -35.024  23.307   2.103  0.00  0.00    +0.008 C 
ENDROOT
BRANCH   1   7
ATOM      7  S   UNL     1     -34.922  26.184   4.916  0.00  0.00    +0.057 S 
ATOM      8  O   UNL     1     -34.065  25.984   6.077  0.00  0.00    -0.153 OA
ATOM      9  O   UNL     1     -34.568  27.185   3.919  0.00  0.00    -0.153 OA
BRANCH   7  10
ATOM     10  N   UNL     1     -36.516  26.483   5.451  0.00  0.00    -0.203 NA
ATOM     11  H   UNL     1     -36.973  25.598   5.670  0.00  0.00    +0.144 HD
ATOM     12  H   UNL     1     -37.037  26.963   4.717  0.00  0.00    +0.144 HD
ENDBRANCH   7  10
ENDBRANCH   1   7
BRANCH   2  14
ATOM     13  O   UNL     1     -36.332  19.992   2.576  0.00  0.00    -0.244 OA
ATOM     14  C   UNL     1     -35.617  20.912   2.156  0.00  0.00    +0.346 C 
BRANCH  14  15
ATOM     15  O   UNL     1     -34.861  20.856   0.987  0.00  0.00    -0.421 OA
BRANCH  15  16
ATOM     16  C   UNL     1     -34.329  19.594   0.711  0.00  0.00    +0.149 C 
ATOM     17  C   UNL     1     -34.867  18.862  -0.324  0.00  0.00    +0.039 C 
ATOM     18  C   UNL     1     -33.288  19.131   1.484  0.00  0.00    +0.039 C 
ATOM     19  C   UNL     1     -33.281  17.106   0.165  0.00  0.00    +0.143 C 
ATOM     20  C   UNL     1     -34.337  17.603  -0.601  0.00  0.00    +0.027 C 
ATOM     21  C   UNL     1     -32.757  17.870   1.207  0.00  0.00    +0.027 C 
BRANCH  19  24
ATOM     22  O   UNL     1     -33.417  15.015  -0.797  0.00  0.00    -0.126 OA
ATOM     23  O   UNL     1     -31.603  15.534   0.325  0.00  0.00    -0.126 OA
ATOM     24  N   UNL     1     -32.742  15.824  -0.116  0.00  0.00    +0.058 N 
ENDBRANCH  19  24
ENDBRANCH  15  16
ENDBRANCH  14  15
ENDBRANCH   2  14
TORSDOF 6
ENDMDL
MODEL 8
REMARK VINA RESULT:      -6.2      5.447      7.209
REMARK  Name = 191442
REMARK  6 active torsions:
REMARK  status: ('A' for Active; 'I' for Inactive)
REMARK    1  A    between atoms: C_1  and  S_7
REMARK    2  A    between atoms: C_2  and  C_14
REMARK    3  A    between atoms: S_7  and  N_10
REMARK    4  A    between atoms: C_14  and  O_15
REMARK    5  A    between atoms: O_15  and  C_16
REMARK    6  A    between atoms: C_19  and  N_24
REMARK                            x       y       z     vdW  Elec       q    Type
REMARK                         _______ _______ _______ _____ _____    ______ ____
ROOT
ATOM      1  C   UNL     1     -33.313  26.782   4.852  0.00  0.00    +0.122 C 
ATOM      2  C   UNL     1     -35.005  24.607   4.415  0.00  0.00    +0.076 C 
ATOM      3  C   UNL     1     -34.066  26.261   5.905  0.00  0.00    +0.020 C 
ATOM      4  C   UNL     1     -33.406  26.215   3.582  0.00  0.00    +0.020 C 
ATOM      5  C   UNL     1     -34.913  25.173   5.687  0.00  0.00    +0.008 C 
ATOM      6  C   UNL     1     -34.251  25.127   3.363  0.00  0.00    +0.008 C 
ENDROOT
BRANCH   1   7
ATOM      7  S   UNL     1     -32.254  28.143   5.127  0.00  0.00    +0.057 S 
ATOM      8  O   UNL     1     -30.927  27.798   4.635  0.00  0.00    -0.153 OA
ATOM      9  O   UNL     1     -32.915  29.347   4.644  0.00  0.00    -0.153 OA
BRANCH   7  10
ATOM     10  N   UNL     1     -32.215  28.185   6.834  0.00  0.00    -0.203 NA
ATOM     11  H   UNL     1     -31.411  28.731   7.142  0.00  0.00    +0.144 HD
ATOM     12  H   UNL     1     -32.140  27.234   7.196  0.00  0.00    +0.144 HD
ENDBRANCH   7  10
ENDBRANCH   1   7
BRANCH   2  14
ATOM     13  O   UNL     1     -36.292  22.712   5.077  0.00  0.00    -0.244 OA
ATOM     14  C   UNL     1     -35.887  23.473   4.187  0.00  0.00    +0.346 C 
BRANCH  14  15
ATOM     15  O   UNL     1     -36.207  23.352   2.836  0.00  0.00    -0.421 OA
BRANCH  15  16
ATOM     16  C   UNL     1     -37.523  23.705   2.526  0.00  0.00    +0.149 C 
ATOM     17  C   UNL     1     -37.844  25.041   2.433  0.00  0.00    +0.039 C 
ATOM     18  C   UNL     1     -38.447  22.703   2.326  0.00  0.00    +0.039 C 
ATOM     19  C   UNL     1     -40.116  24.402   1.915  0.00  0.00    +0.143 C 
ATOM     20  C   UNL     1     -39.157  25.394   2.124  0.00  0.00    +0.027 C 
ATOM     21  C   UNL     1     -39.760  23.057   2.016  0.00  0.00    +0.027 C 
BRANCH  19  24
ATOM     22  O   UNL     1     -41.927  25.820   2.076  0.00  0.00    -0.126 OA
ATOM     23  O   UNL     1     -42.124  24.008   0.854  0.00  0.00    -0.126 OA
ATOM     24  N   UNL     1     -41.453  24.760   1.601  0.00  0.00    +0.058 N 
ENDBRANCH  19  24
ENDBRANCH  15  16
ENDBRANCH  14  15
ENDBRANCH   2  14
TORSDOF 6
ENDMDL
MODEL 9
REMARK VINA RESULT:      -6.1      5.845      8.329
REMARK  Name = 191442
REMARK  6 active torsions:
REMARK  status: ('A' for Active; 'I' for Inactive)
REMARK    1  A    between atoms: C_1  and  S_7
REMARK    2  A    between atoms: C_2  and  C_14
REMARK    3  A    between atoms: S_7  and  N_10
REMARK    4  A    between atoms: C_14  and  O_15
REMARK    5  A    between atoms: O_15  and  C_16
REMARK    6  A    between atoms: C_19  and  N_24
REMARK                            x       y       z     vdW  Elec       q    Type
REMARK                         _______ _______ _______ _____ _____    ______ ____
ROOT
ATOM      1  C   UNL     1     -29.162  29.109   6.573  0.00  0.00    +0.122 C 
ATOM      2  C   UNL     1     -31.198  28.494   4.768  0.00  0.00    +0.076 C 
ATOM      3  C   UNL     1     -28.855  28.501   5.355  0.00  0.00    +0.020 C 
ATOM      4  C   UNL     1     -30.487  29.410   6.887  0.00  0.00    +0.020 C 
ATOM      5  C   UNL     1     -29.874  28.193   4.452  0.00  0.00    +0.008 C 
ATOM      6  C   UNL     1     -31.505  29.103   5.985  0.00  0.00    +0.008 C 
ENDROOT
BRANCH   1   7
ATOM      7  S   UNL     1     -27.887  29.494   7.701  0.00  0.00    +0.057 S 
ATOM      8  O   UNL     1     -26.938  30.378   7.038  0.00  0.00    -0.153 OA
ATOM      9  O   UNL     1     -28.492  29.899   8.962  0.00  0.00    -0.153 OA
BRANCH   7  10
ATOM     10  N   UNL     1     -27.161  27.962   7.908  0.00  0.00    -0.203 NA
ATOM     11  H   UNL     1     -26.301  28.063   8.447  0.00  0.00    +0.144 HD
ATOM     12  H   UNL     1     -26.946  27.562   6.995  0.00  0.00    +0.144 HD
ENDBRANCH   7  10
ENDBRANCH   1   7
BRANCH   2  14
ATOM     13  O   UNL     1     -32.075  27.870   2.640  0.00  0.00    -0.244 OA
ATOM     14  C   UNL     1     -32.261  28.173   3.827  0.00  0.00    +0.346 C 
BRANCH  14  15
ATOM     15  O   UNL     1     -33.511  28.263   4.435  0.00  0.00    -0.421 OA
BRANCH  15  16
ATOM     16  C   UNL     1     -34.198  27.048   4.510  0.00  0.00    +0.149 C 
ATOM     17  C   UNL     1     -35.113  26.745   3.527  0.00  0.00    +0.039 C 
ATOM     18  C   UNL     1     -33.933  26.203   5.564  0.00  0.00    +0.039 C 
ATOM     19  C   UNL     1     -35.552  24.655   4.657  0.00  0.00    +0.143 C 
ATOM     20  C   UNL     1     -35.799  25.533   3.600  0.00  0.00    +0.027 C 
ATOM     21  C   UNL     1     -34.620  24.990   5.638  0.00  0.00    +0.027 C 
BRANCH  19  24
ATOM     22  O   UNL     1     -36.038  22.661   5.708  0.00  0.00    -0.126 OA
ATOM     23  O   UNL     1     -37.062  23.125   3.823  0.00  0.00    -0.126 OA
ATOM     24  N   UNL     1     -36.250  23.421   4.733  0.00  0.00    +0.058 N 
ENDBRANCH  19  24
ENDBRANCH  15  16
ENDBRANCH  14  15
ENDBRANCH   2  14
TORSDOF 6
ENDMDL
