MODEL 1
REMARK VINA RESULT:      -5.2      0.000      0.000
REMARK  Name = 195066
REMARK  11 active torsions:
REMARK  status: ('A' for Active; 'I' for Inactive)
REMARK    1  A    between atoms: C_2  and  N_14
REMARK    2  A    between atoms: C_3  and  O_8
REMARK    3  A    between atoms: O_8  and  C_9
REMARK    4  A    between atoms: C_9  and  C_11
REMARK    5  A    between atoms: C_11  and  O_12
REMARK    6  A    between atoms: N_14  and  C_15
REMARK    7  A    between atoms: N_14  and  C_20
REMARK    8  A    between atoms: C_15  and  C_17
REMARK    9  A    between atoms: C_17  and  O_18
REMARK   10  A    between atoms: C_20  and  C_22
REMARK   11  A    between atoms: C_22  and  O_23
REMARK                            x       y       z     vdW  Elec       q    Type
REMARK                         _______ _______ _______ _____ _____    ______ ____
ROOT
ATOM      1  F   UNL     1     -35.337  20.005   1.050  0.00  0.00    -0.204 F 
ATOM      2  C   UNL     1     -36.749  23.159   2.187  0.00  0.00    +0.085 C 
ATOM      3  C   UNL     1     -36.398  23.127   3.536  0.00  0.00    +0.153 C 
ATOM      4  C   UNL     1     -36.391  22.104   1.347  0.00  0.00    +0.047 C 
ATOM      5  C   UNL     1     -35.686  22.040   4.046  0.00  0.00    +0.041 C 
ATOM      6  C   UNL     1     -35.681  21.018   1.856  0.00  0.00    +0.142 C 
ATOM      7  C   UNL     1     -35.329  20.986   3.205  0.00  0.00    +0.033 C 
ENDROOT
BRANCH   3   8
ATOM      8  O   UNL     1     -36.739  24.148   4.373  0.00  0.00    -0.463 OA
BRANCH   8   9
ATOM      9  C   UNL     1     -35.840  24.436   5.442  0.00  0.00    +0.314 C 
BRANCH   9  11
ATOM     10  O   UNL     1     -34.425  26.410   5.488  0.00  0.00    -0.246 OA
ATOM     11  C   UNL     1     -35.539  25.908   5.472  0.00  0.00    +0.359 C 
BRANCH  11  12
ATOM     12  O   UNL     1     -36.694  26.622   5.475  0.00  0.00    -0.478 OA
ATOM     13  H   UNL     1     -37.485  26.234   5.159  0.00  0.00    +0.295 HD
ENDBRANCH  11  12
ENDBRANCH   9  11
ENDBRANCH   8   9
ENDBRANCH   3   8
BRANCH   2  14
ATOM     14  N   UNL     1     -37.469  24.252   1.657  0.00  0.00    -0.286 N 
BRANCH  14  15
ATOM     15  C   UNL     1     -38.838  24.083   1.215  0.00  0.00    +0.202 C 
BRANCH  15  17
ATOM     16  O   UNL     1     -40.135  22.315   2.214  0.00  0.00    -0.248 OA
ATOM     17  C   UNL     1     -39.635  23.429   2.307  0.00  0.00    +0.334 C 
BRANCH  17  18
ATOM     18  O   UNL     1     -39.730  24.200   3.418  0.00  0.00    -0.479 OA
ATOM     19  H   UNL     1     -39.990  25.097   3.346  0.00  0.00    +0.295 HD
ENDBRANCH  17  18
ENDBRANCH  15  17
ENDBRANCH  14  15
BRANCH  14  20
ATOM     20  C   UNL     1     -36.850  25.559   1.561  0.00  0.00    +0.202 C 
BRANCH  20  22
ATOM     21  O   UNL     1     -38.274  27.470   1.207  0.00  0.00    -0.248 OA
ATOM     22  C   UNL     1     -37.846  26.609   1.963  0.00  0.00    +0.334 C 
BRANCH  22  23
ATOM     23  O   UNL     1     -38.237  26.491   3.256  0.00  0.00    -0.479 OA
ATOM     24  H   UNL     1     -37.599  26.353   3.928  0.00  0.00    +0.295 HD
ENDBRANCH  22  23
ENDBRANCH  20  22
ENDBRANCH  14  20
ENDBRANCH   2  14
TORSDOF 11
ENDMDL
MODEL 2
REMARK VINA RESULT:      -5.2      2.325      4.094
REMARK  Name = 195066
REMARK  11 active torsions:
REMARK  status: ('A' for Active; 'I' for Inactive)
REMARK    1  A    between atoms: C_2  and  N_14
REMARK    2  A    between atoms: C_3  and  O_8
REMARK    3  A    between atoms: O_8  and  C_9
REMARK    4  A    between atoms: C_9  and  C_11
REMARK    5  A    between atoms: C_11  and  O_12
REMARK    6  A    between atoms: N_14  and  C_15
REMARK    7  A    between atoms: N_14  and  C_20
REMARK    8  A    between atoms: C_15  and  C_17
REMARK    9  A    between atoms: C_17  and  O_18
REMARK   10  A    between atoms: C_20  and  C_22
REMARK   11  A    between atoms: C_22  and  O_23
REMARK                            x       y       z     vdW  Elec       q    Type
REMARK                         _______ _______ _______ _____ _____    ______ ____
ROOT
ATOM      1  F   UNL     1     -35.156  21.966   6.731  0.00  0.00    -0.204 F 
ATOM      2  C   UNL     1     -35.813  22.950   3.291  0.00  0.00    +0.085 C 
ATOM      3  C   UNL     1     -35.591  24.325   3.370  0.00  0.00    +0.153 C 
ATOM      4  C   UNL     1     -35.665  22.154   4.427  0.00  0.00    +0.047 C 
ATOM      5  C   UNL     1     -35.222  24.903   4.585  0.00  0.00    +0.041 C 
ATOM      6  C   UNL     1     -35.297  22.731   5.641  0.00  0.00    +0.142 C 
ATOM      7  C   UNL     1     -35.075  24.106   5.720  0.00  0.00    +0.033 C 
ENDROOT
BRANCH   3   8
ATOM      8  O   UNL     1     -35.730  25.121   2.272  0.00  0.00    -0.463 OA
BRANCH   8   9
ATOM      9  C   UNL     1     -36.283  26.419   2.479  0.00  0.00    +0.314 C 
BRANCH   9  11
ATOM     10  O   UNL     1     -38.256  26.383   1.062  0.00  0.00    -0.246 OA
ATOM     11  C   UNL     1     -37.755  26.399   2.177  0.00  0.00    +0.359 C 
BRANCH  11  12
ATOM     12  O   UNL     1     -38.471  26.398   3.330  0.00  0.00    -0.478 OA
ATOM     13  H   UNL     1     -38.261  25.790   4.011  0.00  0.00    +0.295 HD
ENDBRANCH  11  12
ENDBRANCH   9  11
ENDBRANCH   8   9
ENDBRANCH   3   8
BRANCH   2  14
ATOM     14  N   UNL     1     -36.187  22.352   2.068  0.00  0.00    -0.286 N 
BRANCH  14  15
ATOM     15  C   UNL     1     -35.353  21.331   1.467  0.00  0.00    +0.202 C 
BRANCH  15  17
ATOM     16  O   UNL     1     -36.351  19.548   0.190  0.00  0.00    -0.248 OA
ATOM     17  C   UNL     1     -36.160  20.080   1.276  0.00  0.00    +0.334 C 
BRANCH  17  18
ATOM     18  O   UNL     1     -36.647  19.589   2.443  0.00  0.00    -0.479 OA
ATOM     19  H   UNL     1     -36.067  19.199   3.067  0.00  0.00    +0.295 HD
ENDBRANCH  17  18
ENDBRANCH  15  17
ENDBRANCH  14  15
BRANCH  14  20
ATOM     20  C   UNL     1     -37.415  22.742   1.407  0.00  0.00    +0.202 C 
BRANCH  20  22
ATOM     21  O   UNL     1     -39.082  23.430   3.006  0.00  0.00    -0.248 OA
ATOM     22  C   UNL     1     -38.569  22.536   2.346  0.00  0.00    +0.334 C 
BRANCH  22  23
ATOM     23  O   UNL     1     -38.998  21.250   2.374  0.00  0.00    -0.479 OA
ATOM     24  H   UNL     1     -39.279  20.833   1.584  0.00  0.00    +0.295 HD
ENDBRANCH  22  23
ENDBRANCH  20  22
ENDBRANCH  14  20
ENDBRANCH   2  14
TORSDOF 11
ENDMDL
MODEL 3
REMARK VINA RESULT:      -5.2      2.565      4.593
REMARK  Name = 195066
REMARK  11 active torsions:
REMARK  status: ('A' for Active; 'I' for Inactive)
REMARK    1  A    between atoms: C_2  and  N_14
REMARK    2  A    between atoms: C_3  and  O_8
REMARK    3  A    between atoms: O_8  and  C_9
REMARK    4  A    between atoms: C_9  and  C_11
REMARK    5  A    between atoms: C_11  and  O_12
REMARK    6  A    between atoms: N_14  and  C_15
REMARK    7  A    between atoms: N_14  and  C_20
REMARK    8  A    between atoms: C_15  and  C_17
REMARK    9  A    between atoms: C_17  and  O_18
REMARK   10  A    between atoms: C_20  and  C_22
REMARK   11  A    between atoms: C_22  and  O_23
REMARK                            x       y       z     vdW  Elec       q    Type
REMARK                         _______ _______ _______ _____ _____    ______ ____
ROOT
ATOM      1  F   UNL     1     -34.839  26.035   6.278  0.00  0.00    -0.204 F 
ATOM      2  C   UNL     1     -36.972  24.506   3.758  0.00  0.00    +0.085 C 
ATOM      3  C   UNL     1     -36.514  23.189   3.798  0.00  0.00    +0.153 C 
ATOM      4  C   UNL     1     -36.406  25.467   4.595  0.00  0.00    +0.047 C 
ATOM      5  C   UNL     1     -35.491  22.833   4.677  0.00  0.00    +0.041 C 
ATOM      6  C   UNL     1     -35.383  25.112   5.474  0.00  0.00    +0.142 C 
ATOM      7  C   UNL     1     -34.925  23.795   5.514  0.00  0.00    +0.033 C 
ENDROOT
BRANCH   3   8
ATOM      8  O   UNL     1     -37.054  22.235   2.987  0.00  0.00    -0.463 OA
BRANCH   8   9
ATOM      9  C   UNL     1     -36.248  21.774   1.905  0.00  0.00    +0.314 C 
BRANCH   9  11
ATOM     10  O   UNL     1     -34.666  19.939   2.091  0.00  0.00    -0.246 OA
ATOM     11  C   UNL     1     -35.812  20.359   2.162  0.00  0.00    +0.359 C 
BRANCH  11  12
ATOM     12  O   UNL     1     -36.881  19.592   2.492  0.00  0.00    -0.478 OA
ATOM     13  H   UNL     1     -37.732  19.978   2.556  0.00  0.00    +0.295 HD
ENDBRANCH  11  12
ENDBRANCH   9  11
ENDBRANCH   8   9
ENDBRANCH   3   8
BRANCH   2  14
ATOM     14  N   UNL     1     -38.007  24.881   2.873  0.00  0.00    -0.286 N 
BRANCH  14  15
ATOM     15  C   UNL     1     -37.696  25.353   1.540  0.00  0.00    +0.202 C 
BRANCH  15  17
ATOM     16  O   UNL     1     -39.112  27.202   0.921  0.00  0.00    -0.248 OA
ATOM     17  C   UNL     1     -38.071  26.803   1.427  0.00  0.00    +0.334 C 
BRANCH  17  18
ATOM     18  O   UNL     1     -37.137  27.627   1.962  0.00  0.00    -0.479 OA
ATOM     19  H   UNL     1     -37.358  28.182   2.684  0.00  0.00    +0.295 HD
ENDBRANCH  17  18
ENDBRANCH  15  17
ENDBRANCH  14  15
BRANCH  14  20
ATOM     20  C   UNL     1     -39.393  24.785   3.286  0.00  0.00    +0.202 C 
BRANCH  20  22
ATOM     21  O   UNL     1     -40.073  22.759   2.173  0.00  0.00    -0.248 OA
ATOM     22  C   UNL     1     -40.155  23.975   2.276  0.00  0.00    +0.334 C 
BRANCH  22  23
ATOM     23  O   UNL     1     -40.961  24.737   1.496  0.00  0.00    -0.479 OA
ATOM     24  H   UNL     1     -41.120  24.491   0.606  0.00  0.00    +0.295 HD
ENDBRANCH  22  23
ENDBRANCH  20  22
ENDBRANCH  14  20
ENDBRANCH   2  14
TORSDOF 11
ENDMDL
MODEL 4
REMARK VINA RESULT:      -5.2      2.313      4.221
REMARK  Name = 195066
REMARK  11 active torsions:
REMARK  status: ('A' for Active; 'I' for Inactive)
REMARK    1  A    between atoms: C_2  and  N_14
REMARK    2  A    between atoms: C_3  and  O_8
REMARK    3  A    between atoms: O_8  and  C_9
REMARK    4  A    between atoms: C_9  and  C_11
REMARK    5  A    between atoms: C_11  and  O_12
REMARK    6  A    between atoms: N_14  and  C_15
REMARK    7  A    between atoms: N_14  and  C_20
REMARK    8  A    between atoms: C_15  and  C_17
REMARK    9  A    between atoms: C_17  and  O_18
REMARK   10  A    between atoms: C_20  and  C_22
REMARK   11  A    between atoms: C_22  and  O_23
REMARK                            x       y       z     vdW  Elec       q    Type
REMARK                         _______ _______ _______ _____ _____    ______ ____
ROOT
ATOM      1  F   UNL     1     -35.218  21.859   6.743  0.00  0.00    -0.204 F 
ATOM      2  C   UNL     1     -35.825  22.929   3.319  0.00  0.00    +0.085 C 
ATOM      3  C   UNL     1     -35.566  24.295   3.427  0.00  0.00    +0.153 C 
ATOM      4  C   UNL     1     -35.707  22.107   4.439  0.00  0.00    +0.047 C 
ATOM      5  C   UNL     1     -35.189  24.839   4.655  0.00  0.00    +0.041 C 
ATOM      6  C   UNL     1     -35.330  22.650   5.667  0.00  0.00    +0.142 C 
ATOM      7  C   UNL     1     -35.072  24.016   5.775  0.00  0.00    +0.033 C 
ENDROOT
BRANCH   3   8
ATOM      8  O   UNL     1     -35.676  25.117   2.344  0.00  0.00    -0.463 OA
BRANCH   8   9
ATOM      9  C   UNL     1     -36.236  26.409   2.566  0.00  0.00    +0.314 C 
BRANCH   9  11
ATOM     10  O   UNL     1     -38.141  26.423   1.059  0.00  0.00    -0.246 OA
ATOM     11  C   UNL     1     -37.692  26.404   2.195  0.00  0.00    +0.359 C 
BRANCH  11  12
ATOM     12  O   UNL     1     -38.460  26.372   3.314  0.00  0.00    -0.478 OA
ATOM     13  H   UNL     1     -38.136  25.965   4.092  0.00  0.00    +0.295 HD
ENDBRANCH  11  12
ENDBRANCH   9  11
ENDBRANCH   8   9
ENDBRANCH   3   8
BRANCH   2  14
ATOM     14  N   UNL     1     -36.207  22.365   2.082  0.00  0.00    -0.286 N 
BRANCH  14  15
ATOM     15  C   UNL     1     -37.428  22.791   1.429  0.00  0.00    +0.202 C 
BRANCH  15  17
ATOM     16  O   UNL     1     -39.114  23.494   3.001  0.00  0.00    -0.248 OA
ATOM     17  C   UNL     1     -38.586  22.592   2.364  0.00  0.00    +0.334 C 
BRANCH  17  18
ATOM     18  O   UNL     1     -38.998  21.301   2.419  0.00  0.00    -0.479 OA
ATOM     19  H   UNL     1     -39.668  21.047   3.022  0.00  0.00    +0.295 HD
ENDBRANCH  17  18
ENDBRANCH  15  17
ENDBRANCH  14  15
BRANCH  14  20
ATOM     20  C   UNL     1     -35.376  21.363   1.446  0.00  0.00    +0.202 C 
BRANCH  20  22
ATOM     21  O   UNL     1     -36.354  19.555   0.188  0.00  0.00    -0.248 OA
ATOM     22  C   UNL     1     -36.171  20.101   1.268  0.00  0.00    +0.334 C 
BRANCH  22  23
ATOM     23  O   UNL     1     -36.653  19.617   2.440  0.00  0.00    -0.479 OA
ATOM     24  H   UNL     1     -36.417  18.757   2.724  0.00  0.00    +0.295 HD
ENDBRANCH  22  23
ENDBRANCH  20  22
ENDBRANCH  14  20
ENDBRANCH   2  14
TORSDOF 11
ENDMDL
MODEL 5
REMARK VINA RESULT:      -5.1      2.280      4.650
REMARK  Name = 195066
REMARK  11 active torsions:
REMARK  status: ('A' for Active; 'I' for Inactive)
REMARK    1  A    between atoms: C_2  and  N_14
REMARK    2  A    between atoms: C_3  and  O_8
REMARK    3  A    between atoms: O_8  and  C_9
REMARK    4  A    between atoms: C_9  and  C_11
REMARK    5  A    between atoms: C_11  and  O_12
REMARK    6  A    between atoms: N_14  and  C_15
REMARK    7  A    between atoms: N_14  and  C_20
REMARK    8  A    between atoms: C_15  and  C_17
REMARK    9  A    between atoms: C_17  and  O_18
REMARK   10  A    between atoms: C_20  and  C_22
REMARK   11  A    between atoms: C_22  and  O_23
REMARK                            x       y       z     vdW  Elec       q    Type
REMARK                         _______ _______ _______ _____ _____    ______ ____
ROOT
ATOM      1  F   UNL     1     -35.013  22.296   7.300  0.00  0.00    -0.204 F 
ATOM      2  C   UNL     1     -35.839  23.783   4.084  0.00  0.00    +0.085 C 
ATOM      3  C   UNL     1     -35.841  22.651   3.269  0.00  0.00    +0.153 C 
ATOM      4  C   UNL     1     -35.560  23.662   5.445  0.00  0.00    +0.047 C 
ATOM      5  C   UNL     1     -35.563  21.397   3.817  0.00  0.00    +0.041 C 
ATOM      6  C   UNL     1     -35.282  22.411   5.992  0.00  0.00    +0.142 C 
ATOM      7  C   UNL     1     -35.283  21.279   5.178  0.00  0.00    +0.033 C 
ENDROOT
BRANCH   3   8
ATOM      8  O   UNL     1     -36.111  22.747   1.936  0.00  0.00    -0.463 OA
BRANCH   8   9
ATOM      9  C   UNL     1     -36.660  21.593   1.302  0.00  0.00    +0.314 C 
BRANCH   9  11
ATOM     10  O   UNL     1     -38.807  22.333   0.437  0.00  0.00    -0.246 OA
ATOM     11  C   UNL     1     -38.158  21.702   1.259  0.00  0.00    +0.359 C 
BRANCH  11  12
ATOM     12  O   UNL     1     -38.709  20.989   2.275  0.00  0.00    -0.478 OA
ATOM     13  H   UNL     1     -39.006  21.428   3.047  0.00  0.00    +0.295 HD
ENDBRANCH  11  12
ENDBRANCH   9  11
ENDBRANCH   8   9
ENDBRANCH   3   8
BRANCH   2  14
ATOM     14  N   UNL     1     -36.119  25.057   3.544  0.00  0.00    -0.286 N 
BRANCH  14  15
ATOM     15  C   UNL     1     -35.049  25.884   3.025  0.00  0.00    +0.202 C 
BRANCH  15  17
ATOM     16  O   UNL     1     -34.273  26.978   5.027  0.00  0.00    -0.248 OA
ATOM     17  C   UNL     1     -34.836  27.053   3.942  0.00  0.00    +0.334 C 
BRANCH  17  18
ATOM     18  O   UNL     1     -35.323  28.212   3.433  0.00  0.00    -0.479 OA
ATOM     19  H   UNL     1     -34.889  29.023   3.613  0.00  0.00    +0.295 HD
ENDBRANCH  17  18
ENDBRANCH  15  17
ENDBRANCH  14  15
BRANCH  14  20
ATOM     20  C   UNL     1     -37.481  25.547   3.491  0.00  0.00    +0.202 C 
BRANCH  20  22
ATOM     21  O   UNL     1     -37.869  27.209   1.789  0.00  0.00    -0.248 OA
ATOM     22  C   UNL     1     -37.780  26.029   2.100  0.00  0.00    +0.334 C 
BRANCH  22  23
ATOM     23  O   UNL     1     -37.927  25.012   1.215  0.00  0.00    -0.479 OA
ATOM     24  H   UNL     1     -37.314  24.909   0.514  0.00  0.00    +0.295 HD
ENDBRANCH  22  23
ENDBRANCH  20  22
ENDBRANCH  14  20
ENDBRANCH   2  14
TORSDOF 11
ENDMDL
MODEL 6
REMARK VINA RESULT:      -5.0      1.802      3.927
REMARK  Name = 195066
REMARK  11 active torsions:
REMARK  status: ('A' for Active; 'I' for Inactive)
REMARK    1  A    between atoms: C_2  and  N_14
REMARK    2  A    between atoms: C_3  and  O_8
REMARK    3  A    between atoms: O_8  and  C_9
REMARK    4  A    between atoms: C_9  and  C_11
REMARK    5  A    between atoms: C_11  and  O_12
REMARK    6  A    between atoms: N_14  and  C_15
REMARK    7  A    between atoms: N_14  and  C_20
REMARK    8  A    between atoms: C_15  and  C_17
REMARK    9  A    between atoms: C_17  and  O_18
REMARK   10  A    between atoms: C_20  and  C_22
REMARK   11  A    between atoms: C_22  and  O_23
REMARK                            x       y       z     vdW  Elec       q    Type
REMARK                         _______ _______ _______ _____ _____    ______ ____
ROOT
ATOM      1  F   UNL     1     -35.460  19.640   1.763  0.00  0.00    -0.204 F 
ATOM      2  C   UNL     1     -36.090  22.922   3.200  0.00  0.00    +0.085 C 
ATOM      3  C   UNL     1     -37.455  23.057   2.945  0.00  0.00    +0.153 C 
ATOM      4  C   UNL     1     -35.417  21.768   2.801  0.00  0.00    +0.047 C 
ATOM      5  C   UNL     1     -38.146  22.036   2.292  0.00  0.00    +0.041 C 
ATOM      6  C   UNL     1     -36.107  20.748   2.147  0.00  0.00    +0.142 C 
ATOM      7  C   UNL     1     -37.472  20.882   1.893  0.00  0.00    +0.033 C 
ENDROOT
BRANCH   3   8
ATOM      8  O   UNL     1     -38.131  24.177   3.327  0.00  0.00    -0.463 OA
BRANCH   8   9
ATOM      9  C   UNL     1     -39.509  24.256   2.966  0.00  0.00    +0.314 C 
BRANCH   9  11
ATOM     10  O   UNL     1     -41.059  26.097   2.635  0.00  0.00    -0.246 OA
ATOM     11  C   UNL     1     -39.946  25.693   2.941  0.00  0.00    +0.359 C 
BRANCH  11  12
ATOM     12  O   UNL     1     -38.922  26.502   3.312  0.00  0.00    -0.478 OA
ATOM     13  H   UNL     1     -39.053  27.428   3.367  0.00  0.00    +0.295 HD
ENDBRANCH  11  12
ENDBRANCH   9  11
ENDBRANCH   8   9
ENDBRANCH   3   8
BRANCH   2  14
ATOM     14  N   UNL     1     -35.377  23.947   3.861  0.00  0.00    -0.286 N 
BRANCH  14  15
ATOM     15  C   UNL     1     -34.447  24.782   3.128  0.00  0.00    +0.202 C 
BRANCH  15  17
ATOM     16  O   UNL     1     -34.834  25.025   0.762  0.00  0.00    -0.248 OA
ATOM     17  C   UNL     1     -35.130  25.333   1.909  0.00  0.00    +0.334 C 
BRANCH  17  18
ATOM     18  O   UNL     1     -36.125  26.202   2.216  0.00  0.00    -0.479 OA
ATOM     19  H   UNL     1     -35.937  27.113   2.320  0.00  0.00    +0.295 HD
ENDBRANCH  17  18
ENDBRANCH  15  17
ENDBRANCH  14  15
BRANCH  14  20
ATOM     20  C   UNL     1     -35.578  24.182   5.276  0.00  0.00    +0.202 C 
BRANCH  20  22
ATOM     21  O   UNL     1     -34.745  26.325   6.001  0.00  0.00    -0.248 OA
ATOM     22  C   UNL     1     -35.657  25.661   5.525  0.00  0.00    +0.334 C 
BRANCH  22  23
ATOM     23  O   UNL     1     -36.847  26.192   5.149  0.00  0.00    -0.479 OA
ATOM     24  H   UNL     1     -37.574  25.630   4.968  0.00  0.00    +0.295 HD
ENDBRANCH  22  23
ENDBRANCH  20  22
ENDBRANCH  14  20
ENDBRANCH   2  14
TORSDOF 11
ENDMDL
MODEL 7
REMARK VINA RESULT:      -5.0      1.046      2.712
REMARK  Name = 195066
REMARK  11 active torsions:
REMARK  status: ('A' for Active; 'I' for Inactive)
REMARK    1  A    between atoms: C_2  and  N_14
REMARK    2  A    between atoms: C_3  and  O_8
REMARK    3  A    between atoms: O_8  and  C_9
REMARK    4  A    between atoms: C_9  and  C_11
REMARK    5  A    between atoms: C_11  and  O_12
REMARK    6  A    between atoms: N_14  and  C_15
REMARK    7  A    between atoms: N_14  and  C_20
REMARK    8  A    between atoms: C_15  and  C_17
REMARK    9  A    between atoms: C_17  and  O_18
REMARK   10  A    between atoms: C_20  and  C_22
REMARK   11  A    between atoms: C_22  and  O_23
REMARK                            x       y       z     vdW  Elec       q    Type
REMARK                         _______ _______ _______ _____ _____    ______ ____
ROOT
ATOM      1  F   UNL     1     -35.595  19.849   0.767  0.00  0.00    -0.204 F 
ATOM      2  C   UNL     1     -37.119  22.687   2.458  0.00  0.00    +0.085 C 
ATOM      3  C   UNL     1     -36.398  22.693   3.651  0.00  0.00    +0.153 C 
ATOM      4  C   UNL     1     -36.848  21.727   1.484  0.00  0.00    +0.047 C 
ATOM      5  C   UNL     1     -35.405  21.738   3.871  0.00  0.00    +0.041 C 
ATOM      6  C   UNL     1     -35.855  20.772   1.702  0.00  0.00    +0.142 C 
ATOM      7  C   UNL     1     -35.134  20.778   2.896  0.00  0.00    +0.033 C 
ENDROOT
BRANCH   3   8
ATOM      8  O   UNL     1     -36.649  23.623   4.617  0.00  0.00    -0.463 OA
BRANCH   8   9
ATOM      9  C   UNL     1     -35.610  23.870   5.563  0.00  0.00    +0.314 C 
BRANCH   9  11
ATOM     10  O   UNL     1     -35.420  26.287   5.403  0.00  0.00    -0.246 OA
ATOM     11  C   UNL     1     -34.935  25.175   5.249  0.00  0.00    +0.359 C 
BRANCH  11  12
ATOM     12  O   UNL     1     -33.688  24.953   4.762  0.00  0.00    -0.478 OA
ATOM     13  H   UNL     1     -33.312  24.096   4.813  0.00  0.00    +0.295 HD
ENDBRANCH  11  12
ENDBRANCH   9  11
ENDBRANCH   8   9
ENDBRANCH   3   8
BRANCH   2  14
ATOM     14  N   UNL     1     -38.127  23.648   2.222  0.00  0.00    -0.286 N 
BRANCH  14  15
ATOM     15  C   UNL     1     -37.791  24.941   1.662  0.00  0.00    +0.202 C 
BRANCH  15  17
ATOM     16  O   UNL     1     -39.342  26.736   2.082  0.00  0.00    -0.248 OA
ATOM     17  C   UNL     1     -38.434  26.020   2.484  0.00  0.00    +0.334 C 
BRANCH  17  18
ATOM     18  O   UNL     1     -37.910  26.109   3.732  0.00  0.00    -0.479 OA
ATOM     19  H   UNL     1     -37.002  26.309   3.846  0.00  0.00    +0.295 HD
ENDBRANCH  17  18
ENDBRANCH  15  17
ENDBRANCH  14  15
BRANCH  14  20
ATOM     20  C   UNL     1     -39.512  23.347   2.526  0.00  0.00    +0.202 C 
BRANCH  20  22
ATOM     21  O   UNL     1     -40.183  22.529   0.361  0.00  0.00    -0.248 OA
ATOM     22  C   UNL     1     -40.019  22.319   1.556  0.00  0.00    +0.334 C 
BRANCH  22  23
ATOM     23  O   UNL     1     -40.263  21.121   2.143  0.00  0.00    -0.479 OA
ATOM     24  H   UNL     1     -39.664  20.779   2.777  0.00  0.00    +0.295 HD
ENDBRANCH  22  23
ENDBRANCH  20  22
ENDBRANCH  14  20
ENDBRANCH   2  14
TORSDOF 11
ENDMDL
MODEL 8
REMARK VINA RESULT:      -5.0      1.772      3.828
REMARK  Name = 195066
REMARK  11 active torsions:
REMARK  status: ('A' for Active; 'I' for Inactive)
REMARK    1  A    between atoms: C_2  and  N_14
REMARK    2  A    between atoms: C_3  and  O_8
REMARK    3  A    between atoms: O_8  and  C_9
REMARK    4  A    between atoms: C_9  and  C_11
REMARK    5  A    between atoms: C_11  and  O_12
REMARK    6  A    between atoms: N_14  and  C_15
REMARK    7  A    between atoms: N_14  and  C_20
REMARK    8  A    between atoms: C_15  and  C_17
REMARK    9  A    between atoms: C_17  and  O_18
REMARK   10  A    between atoms: C_20  and  C_22
REMARK   11  A    between atoms: C_22  and  O_23
REMARK                            x       y       z     vdW  Elec       q    Type
REMARK                         _______ _______ _______ _____ _____    ______ ____
ROOT
ATOM      1  F   UNL     1     -35.121  19.632   1.656  0.00  0.00    -0.204 F 
ATOM      2  C   UNL     1     -35.948  22.843   3.152  0.00  0.00    +0.085 C 
ATOM      3  C   UNL     1     -37.325  22.881   2.934  0.00  0.00    +0.153 C 
ATOM      4  C   UNL     1     -35.204  21.745   2.721  0.00  0.00    +0.047 C 
ATOM      5  C   UNL     1     -37.958  21.821   2.284  0.00  0.00    +0.041 C 
ATOM      6  C   UNL     1     -35.836  20.686   2.071  0.00  0.00    +0.142 C 
ATOM      7  C   UNL     1     -37.213  20.724   1.853  0.00  0.00    +0.033 C 
ENDROOT
BRANCH   3   8
ATOM      8  O   UNL     1     -38.071  23.945   3.347  0.00  0.00    -0.463 OA
BRANCH   8   9
ATOM      9  C   UNL     1     -39.213  24.280   2.562  0.00  0.00    +0.314 C 
BRANCH   9  11
ATOM     10  O   UNL     1     -40.984  25.813   3.208  0.00  0.00    -0.246 OA
ATOM     11  C   UNL     1     -39.796  25.580   3.039  0.00  0.00    +0.359 C 
BRANCH  11  12
ATOM     12  O   UNL     1     -38.807  26.482   3.264  0.00  0.00    -0.478 OA
ATOM     13  H   UNL     1     -38.917  27.374   2.999  0.00  0.00    +0.295 HD
ENDBRANCH  11  12
ENDBRANCH   9  11
ENDBRANCH   8   9
ENDBRANCH   3   8
BRANCH   2  14
ATOM     14  N   UNL     1     -35.295  23.909   3.809  0.00  0.00    -0.286 N 
BRANCH  14  15
ATOM     15  C   UNL     1     -35.485  24.121   5.229  0.00  0.00    +0.202 C 
BRANCH  15  17
ATOM     16  O   UNL     1     -34.758  26.292   5.982  0.00  0.00    -0.248 OA
ATOM     17  C   UNL     1     -35.636  25.592   5.494  0.00  0.00    +0.334 C 
BRANCH  17  18
ATOM     18  O   UNL     1     -36.849  26.068   5.121  0.00  0.00    -0.479 OA
ATOM     19  H   UNL     1     -36.907  26.820   4.565  0.00  0.00    +0.295 HD
ENDBRANCH  17  18
ENDBRANCH  15  17
ENDBRANCH  14  15
BRANCH  14  20
ATOM     20  C   UNL     1     -34.416  24.794   3.072  0.00  0.00    +0.202 C 
BRANCH  20  22
ATOM     21  O   UNL     1     -34.870  25.050   0.719  0.00  0.00    -0.248 OA
ATOM     22  C   UNL     1     -35.148  25.334   1.876  0.00  0.00    +0.334 C 
BRANCH  22  23
ATOM     23  O   UNL     1     -36.166  26.163   2.216  0.00  0.00    -0.479 OA
ATOM     24  H   UNL     1     -35.998  27.071   2.374  0.00  0.00    +0.295 HD
ENDBRANCH  22  23
ENDBRANCH  20  22
ENDBRANCH  14  20
ENDBRANCH   2  14
TORSDOF 11
ENDMDL
MODEL 9
REMARK VINA RESULT:      -5.0      1.323      2.260
REMARK  Name = 195066
REMARK  11 active torsions:
REMARK  status: ('A' for Active; 'I' for Inactive)
REMARK    1  A    between atoms: C_2  and  N_14
REMARK    2  A    between atoms: C_3  and  O_8
REMARK    3  A    between atoms: O_8  and  C_9
REMARK    4  A    between atoms: C_9  and  C_11
REMARK    5  A    between atoms: C_11  and  O_12
REMARK    6  A    between atoms: N_14  and  C_15
REMARK    7  A    between atoms: N_14  and  C_20
REMARK    8  A    between atoms: C_15  and  C_17
REMARK    9  A    between atoms: C_17  and  O_18
REMARK   10  A    between atoms: C_20  and  C_22
REMARK   11  A    between atoms: C_22  and  O_23
REMARK                            x       y       z     vdW  Elec       q    Type
REMARK                         _______ _______ _______ _____ _____    ______ ____
ROOT
ATOM      1  F   UNL     1     -35.703  19.924   1.268  0.00  0.00    -0.204 F 
ATOM      2  C   UNL     1     -36.969  23.147   2.383  0.00  0.00    +0.085 C 
ATOM      3  C   UNL     1     -36.445  23.197   3.674  0.00  0.00    +0.153 C 
ATOM      4  C   UNL     1     -36.718  22.042   1.571  0.00  0.00    +0.047 C 
ATOM      5  C   UNL     1     -35.669  22.141   4.153  0.00  0.00    +0.041 C 
ATOM      6  C   UNL     1     -35.943  20.986   2.049  0.00  0.00    +0.142 C 
ATOM      7  C   UNL     1     -35.419  21.036   3.340  0.00  0.00    +0.033 C 
ENDROOT
BRANCH   3   8
ATOM      8  O   UNL     1     -36.679  24.269   4.485  0.00  0.00    -0.463 OA
BRANCH   8   9
ATOM      9  C   UNL     1     -35.741  24.506   5.532  0.00  0.00    +0.314 C 
BRANCH   9  11
ATOM     10  O   UNL     1     -34.309  26.435   5.895  0.00  0.00    -0.246 OA
ATOM     11  C   UNL     1     -35.395  25.967   5.583  0.00  0.00    +0.359 C 
BRANCH  11  12
ATOM     12  O   UNL     1     -36.469  26.716   5.228  0.00  0.00    -0.478 OA
ATOM     13  H   UNL     1     -37.286  26.602   5.672  0.00  0.00    +0.295 HD
ENDBRANCH  11  12
ENDBRANCH   9  11
ENDBRANCH   8   9
ENDBRANCH   3   8
BRANCH   2  14
ATOM     14  N   UNL     1     -37.756  24.209   1.885  0.00  0.00    -0.286 N 
BRANCH  14  15
ATOM     15  C   UNL     1     -37.224  25.106   0.880  0.00  0.00    +0.202 C 
BRANCH  15  17
ATOM     16  O   UNL     1     -35.978  26.625   2.277  0.00  0.00    -0.248 OA
ATOM     17  C   UNL     1     -35.980  25.761   1.409  0.00  0.00    +0.334 C 
BRANCH  17  18
ATOM     18  O   UNL     1     -34.851  25.281   0.831  0.00  0.00    -0.479 OA
ATOM     19  H   UNL     1     -34.850  24.431   0.438  0.00  0.00    +0.295 HD
ENDBRANCH  17  18
ENDBRANCH  15  17
ENDBRANCH  14  15
BRANCH  14  20
ATOM     20  C   UNL     1     -39.109  24.405   2.364  0.00  0.00    +0.202 C 
BRANCH  20  22
ATOM     21  O   UNL     1     -40.069  26.572   1.929  0.00  0.00    -0.248 OA
ATOM     22  C   UNL     1     -39.339  25.868   2.613  0.00  0.00    +0.334 C 
BRANCH  22  23
ATOM     23  O   UNL     1     -38.661  26.327   3.695  0.00  0.00    -0.479 OA
ATOM     24  H   UNL     1     -38.061  27.040   3.604  0.00  0.00    +0.295 HD
ENDBRANCH  22  23
ENDBRANCH  20  22
ENDBRANCH  14  20
ENDBRANCH   2  14
TORSDOF 11
ENDMDL
