MODEL 1
REMARK VINA RESULT:      -4.8      0.000      0.000
REMARK  Name = 196576
REMARK  12 active torsions:
REMARK  status: ('A' for Active; 'I' for Inactive)
REMARK    1  A    between atoms: C_1  and  C_2
REMARK    2  A    between atoms: C_1  and  O_6
REMARK    3  A    between atoms: C_1  and  C_15
REMARK    4  A    between atoms: C_2  and  O_4
REMARK    5  A    between atoms: O_6  and  C_8
REMARK    6  A    between atoms: C_8  and  C_9
REMARK    7  A    between atoms: C_9  and  C_10
REMARK    8  A    between atoms: C_10  and  C_12
REMARK    9  A    between atoms: C_12  and  O_13
REMARK   10  A    between atoms: C_15  and  O_16
REMARK   11  A    between atoms: C_15  and  C_18
REMARK   12  A    between atoms: C_18  and  C_20
REMARK                            x       y       z     vdW  Elec       q    Type
REMARK                         _______ _______ _______ _____ _____    ______ ____
ROOT
ATOM      1  C   UNL     1     -36.791  23.914   3.357  0.00  0.00    +0.223 C 
ENDROOT
BRANCH   1   2
ATOM      2  C   UNL     1     -37.479  25.168   2.786  0.00  0.00    +0.153 C 
ATOM      3  C   UNL     1     -36.670  25.815   1.667  0.00  0.00    +0.036 C 
BRANCH   2   4
ATOM      4  O   UNL     1     -37.663  26.126   3.826  0.00  0.00    -0.381 OA
ATOM      5  H   UNL     1     -37.564  27.020   3.464  0.00  0.00    +0.210 HD
ENDBRANCH   2   4
ENDBRANCH   1   2
BRANCH   1   6
ATOM      6  O   UNL     1     -36.871  23.927   4.782  0.00  0.00    -0.447 OA
BRANCH   6   8
ATOM      7  O   UNL     1     -35.857  22.452   6.236  0.00  0.00    -0.250 OA
ATOM      8  C   UNL     1     -35.804  23.381   5.442  0.00  0.00    +0.318 C 
BRANCH   8   9
ATOM      9  C   UNL     1     -34.545  24.116   5.034  0.00  0.00    +0.121 C 
BRANCH   9  10
ATOM     10  C   UNL     1     -34.425  25.495   5.671  0.00  0.00    +0.121 C 
BRANCH  10  12
ATOM     11  O   UNL     1     -32.972  26.630   4.110  0.00  0.00    -0.250 OA
ATOM     12  C   UNL     1     -34.068  26.543   4.645  0.00  0.00    +0.314 C 
BRANCH  12  13
ATOM     13  O   UNL     1     -35.106  27.368   4.360  0.00  0.00    -0.480 OA
ATOM     14  H   UNL     1     -35.327  28.065   4.946  0.00  0.00    +0.295 HD
ENDBRANCH  12  13
ENDBRANCH  10  12
ENDBRANCH   9  10
ENDBRANCH   8   9
ENDBRANCH   6   8
ENDBRANCH   1   6
BRANCH   1  15
ATOM     15  C   UNL     1     -37.389  22.597   2.827  0.00  0.00    +0.165 C 
BRANCH  15  16
ATOM     16  O   UNL     1     -38.652  22.862   2.222  0.00  0.00    -0.349 OA
ATOM     17  C   UNL     1     -39.361  21.661   1.957  0.00  0.00    +0.174 C 
ENDBRANCH  15  16
BRANCH  15  18
ATOM     18  C   UNL     1     -36.484  21.861   1.833  0.00  0.00    +0.106 C 
BRANCH  18  20
ATOM     19  O   UNL     1     -35.296  20.559   3.478  0.00  0.00    -0.288 OA
ATOM     20  C   UNL     1     -35.902  20.595   2.412  0.00  0.00    +0.210 C 
ENDBRANCH  18  20
ENDBRANCH  15  18
ENDBRANCH   1  15
TORSDOF 12
ENDMDL
MODEL 2
REMARK VINA RESULT:      -4.8      1.549      5.375
REMARK  Name = 196576
REMARK  12 active torsions:
REMARK  status: ('A' for Active; 'I' for Inactive)
REMARK    1  A    between atoms: C_1  and  C_2
REMARK    2  A    between atoms: C_1  and  O_6
REMARK    3  A    between atoms: C_1  and  C_15
REMARK    4  A    between atoms: C_2  and  O_4
REMARK    5  A    between atoms: O_6  and  C_8
REMARK    6  A    between atoms: C_8  and  C_9
REMARK    7  A    between atoms: C_9  and  C_10
REMARK    8  A    between atoms: C_10  and  C_12
REMARK    9  A    between atoms: C_12  and  O_13
REMARK   10  A    between atoms: C_15  and  O_16
REMARK   11  A    between atoms: C_15  and  C_18
REMARK   12  A    between atoms: C_18  and  C_20
REMARK                            x       y       z     vdW  Elec       q    Type
REMARK                         _______ _______ _______ _____ _____    ______ ____
ROOT
ATOM      1  C   UNL     1     -36.008  23.488   3.124  0.00  0.00    +0.223 C 
ENDROOT
BRANCH   1   2
ATOM      2  C   UNL     1     -35.599  22.180   2.422  0.00  0.00    +0.153 C 
ATOM      3  C   UNL     1     -35.897  22.207   0.926  0.00  0.00    +0.036 C 
BRANCH   2   4
ATOM      4  O   UNL     1     -36.303  21.086   3.006  0.00  0.00    -0.381 OA
ATOM      5  H   UNL     1     -37.184  21.018   2.606  0.00  0.00    +0.210 HD
ENDBRANCH   2   4
ENDBRANCH   1   2
BRANCH   1   6
ATOM      6  O   UNL     1     -37.366  23.403   3.553  0.00  0.00    -0.447 OA
BRANCH   6   8
ATOM      7  O   UNL     1     -37.927  25.564   2.978  0.00  0.00    -0.250 OA
ATOM      8  C   UNL     1     -38.201  24.376   3.077  0.00  0.00    +0.318 C 
BRANCH   8   9
ATOM      9  C   UNL     1     -39.524  23.747   2.695  0.00  0.00    +0.121 C 
BRANCH   9  10
ATOM     10  C   UNL     1     -39.485  23.046   1.343  0.00  0.00    +0.121 C 
BRANCH  10  12
ATOM     11  O   UNL     1     -40.625  20.972   0.854  0.00  0.00    -0.250 OA
ATOM     12  C   UNL     1     -39.763  21.569   1.484  0.00  0.00    +0.314 C 
BRANCH  12  13
ATOM     13  O   UNL     1     -38.934  20.965   2.372  0.00  0.00    -0.480 OA
ATOM     14  H   UNL     1     -38.803  20.038   2.337  0.00  0.00    +0.295 HD
ENDBRANCH  12  13
ENDBRANCH  10  12
ENDBRANCH   9  10
ENDBRANCH   8   9
ENDBRANCH   6   8
ENDBRANCH   1   6
BRANCH   1  15
ATOM     15  C   UNL     1     -35.115  23.834   4.332  0.00  0.00    +0.165 C 
BRANCH  15  16
ATOM     16  O   UNL     1     -34.943  25.247   4.403  0.00  0.00    -0.349 OA
ATOM     17  C   UNL     1     -35.576  25.787   5.553  0.00  0.00    +0.174 C 
ENDBRANCH  15  16
BRANCH  15  18
ATOM     18  C   UNL     1     -35.651  23.310   5.668  0.00  0.00    +0.106 C 
BRANCH  18  20
ATOM     19  O   UNL     1     -35.308  20.925   5.760  0.00  0.00    -0.288 OA
ATOM     20  C   UNL     1     -34.955  22.046   6.111  0.00  0.00    +0.210 C 
ENDBRANCH  18  20
ENDBRANCH  15  18
ENDBRANCH   1  15
TORSDOF 12
ENDMDL
MODEL 3
REMARK VINA RESULT:      -4.8      1.593      5.588
REMARK  Name = 196576
REMARK  12 active torsions:
REMARK  status: ('A' for Active; 'I' for Inactive)
REMARK    1  A    between atoms: C_1  and  C_2
REMARK    2  A    between atoms: C_1  and  O_6
REMARK    3  A    between atoms: C_1  and  C_15
REMARK    4  A    between atoms: C_2  and  O_4
REMARK    5  A    between atoms: O_6  and  C_8
REMARK    6  A    between atoms: C_8  and  C_9
REMARK    7  A    between atoms: C_9  and  C_10
REMARK    8  A    between atoms: C_10  and  C_12
REMARK    9  A    between atoms: C_12  and  O_13
REMARK   10  A    between atoms: C_15  and  O_16
REMARK   11  A    between atoms: C_15  and  C_18
REMARK   12  A    between atoms: C_18  and  C_20
REMARK                            x       y       z     vdW  Elec       q    Type
REMARK                         _______ _______ _______ _____ _____    ______ ____
ROOT
ATOM      1  C   UNL     1     -36.436  24.089   3.587  0.00  0.00    +0.223 C 
ENDROOT
BRANCH   1   2
ATOM      2  C   UNL     1     -35.585  23.172   2.688  0.00  0.00    +0.153 C 
ATOM      3  C   UNL     1     -35.696  23.540   1.213  0.00  0.00    +0.036 C 
BRANCH   2   4
ATOM      4  O   UNL     1     -36.008  21.820   2.853  0.00  0.00    -0.381 OA
ATOM      5  H   UNL     1     -36.976  21.780   2.841  0.00  0.00    +0.210 HD
ENDBRANCH   2   4
ENDBRANCH   1   2
BRANCH   1   6
ATOM      6  O   UNL     1     -37.802  23.679   3.539  0.00  0.00    -0.447 OA
BRANCH   6   8
ATOM      7  O   UNL     1     -38.566  25.821   3.154  0.00  0.00    -0.250 OA
ATOM      8  C   UNL     1     -38.684  24.607   3.056  0.00  0.00    +0.318 C 
BRANCH   8   9
ATOM      9  C   UNL     1     -39.834  23.890   2.382  0.00  0.00    +0.121 C 
BRANCH   9  10
ATOM     10  C   UNL     1     -39.389  22.993   1.234  0.00  0.00    +0.121 C 
BRANCH  10  12
ATOM     11  O   UNL     1     -40.597  20.903   1.121  0.00  0.00    -0.250 OA
ATOM     12  C   UNL     1     -39.642  21.538   1.547  0.00  0.00    +0.314 C 
BRANCH  12  13
ATOM     13  O   UNL     1     -38.679  20.999   2.336  0.00  0.00    -0.480 OA
ATOM     14  H   UNL     1     -38.509  20.079   2.308  0.00  0.00    +0.295 HD
ENDBRANCH  12  13
ENDBRANCH  10  12
ENDBRANCH   9  10
ENDBRANCH   8   9
ENDBRANCH   6   8
ENDBRANCH   1   6
BRANCH   1  15
ATOM     15  C   UNL     1     -35.964  24.112   5.053  0.00  0.00    +0.165 C 
BRANCH  15  16
ATOM     16  O   UNL     1     -36.239  22.851   5.658  0.00  0.00    -0.349 OA
ATOM     17  C   UNL     1     -35.068  22.280   6.219  0.00  0.00    +0.174 C 
ENDBRANCH  15  16
BRANCH  15  18
ATOM     18  C   UNL     1     -34.479  24.453   5.221  0.00  0.00    +0.106 C 
BRANCH  18  20
ATOM     19  O   UNL     1     -33.330  26.383   6.096  0.00  0.00    -0.288 OA
ATOM     20  C   UNL     1     -34.246  25.930   5.418  0.00  0.00    +0.210 C 
ENDBRANCH  18  20
ENDBRANCH  15  18
ENDBRANCH   1  15
TORSDOF 12
ENDMDL
MODEL 4
REMARK VINA RESULT:      -4.8      1.277      3.134
REMARK  Name = 196576
REMARK  12 active torsions:
REMARK  status: ('A' for Active; 'I' for Inactive)
REMARK    1  A    between atoms: C_1  and  C_2
REMARK    2  A    between atoms: C_1  and  O_6
REMARK    3  A    between atoms: C_1  and  C_15
REMARK    4  A    between atoms: C_2  and  O_4
REMARK    5  A    between atoms: O_6  and  C_8
REMARK    6  A    between atoms: C_8  and  C_9
REMARK    7  A    between atoms: C_9  and  C_10
REMARK    8  A    between atoms: C_10  and  C_12
REMARK    9  A    between atoms: C_12  and  O_13
REMARK   10  A    between atoms: C_15  and  O_16
REMARK   11  A    between atoms: C_15  and  C_18
REMARK   12  A    between atoms: C_18  and  C_20
REMARK                            x       y       z     vdW  Elec       q    Type
REMARK                         _______ _______ _______ _____ _____    ______ ____
ROOT
ATOM      1  C   UNL     1     -36.451  21.969   3.006  0.00  0.00    +0.223 C 
ENDROOT
BRANCH   1   2
ATOM      2  C   UNL     1     -35.735  20.660   2.626  0.00  0.00    +0.153 C 
ATOM      3  C   UNL     1     -34.939  20.787   1.332  0.00  0.00    +0.036 C 
BRANCH   2   4
ATOM      4  O   UNL     1     -36.698  19.620   2.467  0.00  0.00    -0.381 OA
ATOM      5  H   UNL     1     -37.331  19.650   3.201  0.00  0.00    +0.210 HD
ENDBRANCH   2   4
ENDBRANCH   1   2
BRANCH   1   6
ATOM      6  O   UNL     1     -35.486  22.979   3.301  0.00  0.00    -0.447 OA
BRANCH   6   8
ATOM      7  O   UNL     1     -36.063  22.895   5.532  0.00  0.00    -0.250 OA
ATOM      8  C   UNL     1     -35.358  23.310   4.622  0.00  0.00    +0.318 C 
BRANCH   8   9
ATOM      9  C   UNL     1     -34.204  24.277   4.778  0.00  0.00    +0.121 C 
BRANCH   9  10
ATOM     10  C   UNL     1     -34.532  25.459   5.681  0.00  0.00    +0.121 C 
BRANCH  10  12
ATOM     11  O   UNL     1     -34.926  27.190   4.042  0.00  0.00    -0.250 OA
ATOM     12  C   UNL     1     -35.355  26.493   4.952  0.00  0.00    +0.314 C 
BRANCH  12  13
ATOM     13  O   UNL     1     -36.633  26.553   5.400  0.00  0.00    -0.480 OA
ATOM     14  H   UNL     1     -37.282  27.018   4.910  0.00  0.00    +0.295 HD
ENDBRANCH  12  13
ENDBRANCH  10  12
ENDBRANCH   9  10
ENDBRANCH   8   9
ENDBRANCH   6   8
ENDBRANCH   1   6
BRANCH   1  15
ATOM     15  C   UNL     1     -37.403  22.482   1.908  0.00  0.00    +0.165 C 
BRANCH  15  16
ATOM     16  O   UNL     1     -38.695  21.914   2.101  0.00  0.00    -0.349 OA
ATOM     17  C   UNL     1     -39.200  21.357   0.896  0.00  0.00    +0.174 C 
ENDBRANCH  15  16
BRANCH  15  18
ATOM     18  C   UNL     1     -37.513  24.010   1.848  0.00  0.00    +0.106 C 
BRANCH  18  20
ATOM     19  O   UNL     1     -38.429  24.730   3.959  0.00  0.00    -0.288 OA
ATOM     20  C   UNL     1     -38.592  24.546   2.758  0.00  0.00    +0.210 C 
ENDBRANCH  18  20
ENDBRANCH  15  18
ENDBRANCH   1  15
TORSDOF 12
ENDMDL
MODEL 5
REMARK VINA RESULT:      -4.7      1.532      3.408
REMARK  Name = 196576
REMARK  12 active torsions:
REMARK  status: ('A' for Active; 'I' for Inactive)
REMARK    1  A    between atoms: C_1  and  C_2
REMARK    2  A    between atoms: C_1  and  O_6
REMARK    3  A    between atoms: C_1  and  C_15
REMARK    4  A    between atoms: C_2  and  O_4
REMARK    5  A    between atoms: O_6  and  C_8
REMARK    6  A    between atoms: C_8  and  C_9
REMARK    7  A    between atoms: C_9  and  C_10
REMARK    8  A    between atoms: C_10  and  C_12
REMARK    9  A    between atoms: C_12  and  O_13
REMARK   10  A    between atoms: C_15  and  O_16
REMARK   11  A    between atoms: C_15  and  C_18
REMARK   12  A    between atoms: C_18  and  C_20
REMARK                            x       y       z     vdW  Elec       q    Type
REMARK                         _______ _______ _______ _____ _____    ______ ____
ROOT
ATOM      1  C   UNL     1     -36.867  22.306   3.023  0.00  0.00    +0.223 C 
ENDROOT
BRANCH   1   2
ATOM      2  C   UNL     1     -36.829  21.150   2.007  0.00  0.00    +0.153 C 
ATOM      3  C   UNL     1     -38.056  21.133   1.101  0.00  0.00    +0.036 C 
BRANCH   2   4
ATOM      4  O   UNL     1     -36.759  19.907   2.702  0.00  0.00    -0.381 OA
ATOM      5  H   UNL     1     -37.359  19.928   3.463  0.00  0.00    +0.210 HD
ENDBRANCH   2   4
ENDBRANCH   1   2
BRANCH   1   6
ATOM      6  O   UNL     1     -35.558  22.533   3.545  0.00  0.00    -0.447 OA
BRANCH   6   8
ATOM      7  O   UNL     1     -35.137  20.988   5.204  0.00  0.00    -0.250 OA
ATOM      8  C   UNL     1     -35.357  22.135   4.838  0.00  0.00    +0.318 C 
BRANCH   8   9
ATOM      9  C   UNL     1     -35.455  23.342   5.746  0.00  0.00    +0.121 C 
BRANCH   9  10
ATOM     10  C   UNL     1     -34.557  24.493   5.310  0.00  0.00    +0.121 C 
BRANCH  10  12
ATOM     11  O   UNL     1     -34.797  26.887   5.084  0.00  0.00    -0.250 OA
ATOM     12  C   UNL     1     -35.319  25.795   5.267  0.00  0.00    +0.314 C 
BRANCH  12  13
ATOM     13  O   UNL     1     -36.654  25.624   5.429  0.00  0.00    -0.480 OA
ATOM     14  H   UNL     1     -37.030  25.650   6.286  0.00  0.00    +0.295 HD
ENDBRANCH  12  13
ENDBRANCH  10  12
ENDBRANCH   9  10
ENDBRANCH   8   9
ENDBRANCH   6   8
ENDBRANCH   1   6
BRANCH   1  15
ATOM     15  C   UNL     1     -37.412  23.620   2.430  0.00  0.00    +0.165 C 
BRANCH  15  16
ATOM     16  O   UNL     1     -38.216  24.280   3.404  0.00  0.00    -0.349 OA
ATOM     17  C   UNL     1     -39.582  24.299   3.020  0.00  0.00    +0.174 C 
ENDBRANCH  15  16
BRANCH  15  18
ATOM     18  C   UNL     1     -36.322  24.572   1.928  0.00  0.00    +0.106 C 
BRANCH  18  20
ATOM     19  O   UNL     1     -37.412  26.485   0.945  0.00  0.00    -0.288 OA
ATOM     20  C   UNL     1     -36.785  26.008   1.885  0.00  0.00    +0.210 C 
ENDBRANCH  18  20
ENDBRANCH  15  18
ENDBRANCH   1  15
TORSDOF 12
ENDMDL
MODEL 6
REMARK VINA RESULT:      -4.6      1.626      3.322
REMARK  Name = 196576
REMARK  12 active torsions:
REMARK  status: ('A' for Active; 'I' for Inactive)
REMARK    1  A    between atoms: C_1  and  C_2
REMARK    2  A    between atoms: C_1  and  O_6
REMARK    3  A    between atoms: C_1  and  C_15
REMARK    4  A    between atoms: C_2  and  O_4
REMARK    5  A    between atoms: O_6  and  C_8
REMARK    6  A    between atoms: C_8  and  C_9
REMARK    7  A    between atoms: C_9  and  C_10
REMARK    8  A    between atoms: C_10  and  C_12
REMARK    9  A    between atoms: C_12  and  O_13
REMARK   10  A    between atoms: C_15  and  O_16
REMARK   11  A    between atoms: C_15  and  C_18
REMARK   12  A    between atoms: C_18  and  C_20
REMARK                            x       y       z     vdW  Elec       q    Type
REMARK                         _______ _______ _______ _____ _____    ______ ____
ROOT
ATOM      1  C   UNL     1     -37.292  24.631   2.754  0.00  0.00    +0.223 C 
ENDROOT
BRANCH   1   2
ATOM      2  C   UNL     1     -38.060  25.898   2.334  0.00  0.00    +0.153 C 
ATOM      3  C   UNL     1     -37.130  27.011   1.863  0.00  0.00    +0.036 C 
BRANCH   2   4
ATOM      4  O   UNL     1     -38.823  26.380   3.438  0.00  0.00    -0.381 OA
ATOM      5  H   UNL     1     -38.234  26.550   4.189  0.00  0.00    +0.210 HD
ENDBRANCH   2   4
ENDBRANCH   1   2
BRANCH   1   6
ATOM      6  O   UNL     1     -37.352  24.477   4.171  0.00  0.00    -0.447 OA
BRANCH   6   8
ATOM      7  O   UNL     1     -36.232  25.787   5.703  0.00  0.00    -0.250 OA
ATOM      8  C   UNL     1     -36.249  24.899   4.862  0.00  0.00    +0.318 C 
BRANCH   8   9
ATOM      9  C   UNL     1     -35.049  24.093   4.412  0.00  0.00    +0.121 C 
BRANCH   9  10
ATOM     10  C   UNL     1     -34.475  23.211   5.513  0.00  0.00    +0.121 C 
BRANCH  10  12
ATOM     11  O   UNL     1     -36.176  22.039   6.767  0.00  0.00    -0.250 OA
ATOM     12  C   UNL     1     -35.395  22.056   5.825  0.00  0.00    +0.314 C 
BRANCH  12  13
ATOM     13  O   UNL     1     -35.280  21.042   4.932  0.00  0.00    -0.480 OA
ATOM     14  H   UNL     1     -35.778  20.257   5.046  0.00  0.00    +0.295 HD
ENDBRANCH  12  13
ENDBRANCH  10  12
ENDBRANCH   9  10
ENDBRANCH   8   9
ENDBRANCH   6   8
ENDBRANCH   1   6
BRANCH   1  15
ATOM     15  C   UNL     1     -37.821  23.349   2.082  0.00  0.00    +0.165 C 
BRANCH  15  16
ATOM     16  O   UNL     1     -37.183  22.214   2.661  0.00  0.00    -0.349 OA
ATOM     17  C   UNL     1     -36.244  21.636   1.768  0.00  0.00    +0.174 C 
ENDBRANCH  15  16
BRANCH  15  18
ATOM     18  C   UNL     1     -39.343  23.187   2.167  0.00  0.00    +0.106 C 
BRANCH  18  20
ATOM     19  O   UNL     1     -40.426  21.033   2.175  0.00  0.00    -0.288 OA
ATOM     20  C   UNL     1     -39.821  21.896   1.548  0.00  0.00    +0.210 C 
ENDBRANCH  18  20
ENDBRANCH  15  18
ENDBRANCH   1  15
TORSDOF 12
ENDMDL
MODEL 7
REMARK VINA RESULT:      -4.6      1.730      2.642
REMARK  Name = 196576
REMARK  12 active torsions:
REMARK  status: ('A' for Active; 'I' for Inactive)
REMARK    1  A    between atoms: C_1  and  C_2
REMARK    2  A    between atoms: C_1  and  O_6
REMARK    3  A    between atoms: C_1  and  C_15
REMARK    4  A    between atoms: C_2  and  O_4
REMARK    5  A    between atoms: O_6  and  C_8
REMARK    6  A    between atoms: C_8  and  C_9
REMARK    7  A    between atoms: C_9  and  C_10
REMARK    8  A    between atoms: C_10  and  C_12
REMARK    9  A    between atoms: C_12  and  O_13
REMARK   10  A    between atoms: C_15  and  O_16
REMARK   11  A    between atoms: C_15  and  C_18
REMARK   12  A    between atoms: C_18  and  C_20
REMARK                            x       y       z     vdW  Elec       q    Type
REMARK                         _______ _______ _______ _____ _____    ______ ____
ROOT
ATOM      1  C   UNL     1     -37.817  24.403   2.775  0.00  0.00    +0.223 C 
ENDROOT
BRANCH   1   2
ATOM      2  C   UNL     1     -37.186  25.595   2.031  0.00  0.00    +0.153 C 
ATOM      3  C   UNL     1     -35.792  25.276   1.502  0.00  0.00    +0.036 C 
BRANCH   2   4
ATOM      4  O   UNL     1     -37.093  26.711   2.913  0.00  0.00    -0.381 OA
ATOM      5  H   UNL     1     -36.849  26.404   3.800  0.00  0.00    +0.210 HD
ENDBRANCH   2   4
ENDBRANCH   1   2
BRANCH   1   6
ATOM      6  O   UNL     1     -37.285  24.322   4.096  0.00  0.00    -0.447 OA
BRANCH   6   8
ATOM      7  O   UNL     1     -36.284  22.284   3.693  0.00  0.00    -0.250 OA
ATOM      8  C   UNL     1     -36.351  23.344   4.301  0.00  0.00    +0.318 C 
BRANCH   8   9
ATOM      9  C   UNL     1     -35.415  23.781   5.408  0.00  0.00    +0.121 C 
BRANCH   9  10
ATOM     10  C   UNL     1     -34.345  24.756   4.935  0.00  0.00    +0.121 C 
BRANCH  10  12
ATOM     11  O   UNL     1     -33.689  26.684   6.235  0.00  0.00    -0.250 OA
ATOM     12  C   UNL     1     -34.534  26.119   5.554  0.00  0.00    +0.314 C 
BRANCH  12  13
ATOM     13  O   UNL     1     -35.739  26.665   5.256  0.00  0.00    -0.480 OA
ATOM     14  H   UNL     1     -36.376  26.167   4.782  0.00  0.00    +0.295 HD
ENDBRANCH  12  13
ENDBRANCH  10  12
ENDBRANCH   9  10
ENDBRANCH   8   9
ENDBRANCH   6   8
ENDBRANCH   1   6
BRANCH   1  15
ATOM     15  C   UNL     1     -39.355  24.479   2.850  0.00  0.00    +0.165 C 
BRANCH  15  16
ATOM     16  O   UNL     1     -39.776  25.814   2.580  0.00  0.00    -0.349 OA
ATOM     17  C   UNL     1     -40.930  26.154   3.331  0.00  0.00    +0.174 C 
ENDBRANCH  15  16
BRANCH  15  18
ATOM     18  C   UNL     1     -40.070  23.509   1.904  0.00  0.00    +0.106 C 
BRANCH  18  20
ATOM     19  O   UNL     1     -40.271  21.110   1.789  0.00  0.00    -0.288 OA
ATOM     20  C   UNL     1     -39.584  22.089   2.059  0.00  0.00    +0.210 C 
ENDBRANCH  18  20
ENDBRANCH  15  18
ENDBRANCH   1  15
TORSDOF 12
ENDMDL
MODEL 8
REMARK VINA RESULT:      -4.5      1.602      4.953
REMARK  Name = 196576
REMARK  12 active torsions:
REMARK  status: ('A' for Active; 'I' for Inactive)
REMARK    1  A    between atoms: C_1  and  C_2
REMARK    2  A    between atoms: C_1  and  O_6
REMARK    3  A    between atoms: C_1  and  C_15
REMARK    4  A    between atoms: C_2  and  O_4
REMARK    5  A    between atoms: O_6  and  C_8
REMARK    6  A    between atoms: C_8  and  C_9
REMARK    7  A    between atoms: C_9  and  C_10
REMARK    8  A    between atoms: C_10  and  C_12
REMARK    9  A    between atoms: C_12  and  O_13
REMARK   10  A    between atoms: C_15  and  O_16
REMARK   11  A    between atoms: C_15  and  C_18
REMARK   12  A    between atoms: C_18  and  C_20
REMARK                            x       y       z     vdW  Elec       q    Type
REMARK                         _______ _______ _______ _____ _____    ______ ____
ROOT
ATOM      1  C   UNL     1     -36.719  24.268   3.595  0.00  0.00    +0.223 C 
ENDROOT
BRANCH   1   2
ATOM      2  C   UNL     1     -37.719  25.437   3.669  0.00  0.00    +0.153 C 
ATOM      3  C   UNL     1     -38.988  25.167   2.867  0.00  0.00    +0.036 C 
BRANCH   2   4
ATOM      4  O   UNL     1     -37.106  26.621   3.164  0.00  0.00    -0.381 OA
ATOM      5  H   UNL     1     -36.141  26.530   3.209  0.00  0.00    +0.210 HD
ENDBRANCH   2   4
ENDBRANCH   1   2
BRANCH   1   6
ATOM      6  O   UNL     1     -35.712  24.555   2.625  0.00  0.00    -0.447 OA
BRANCH   6   8
ATOM      7  O   UNL     1     -36.456  24.211   0.470  0.00  0.00    -0.250 OA
ATOM      8  C   UNL     1     -35.808  23.865   1.448  0.00  0.00    +0.318 C 
BRANCH   8   9
ATOM      9  C   UNL     1     -34.985  22.598   1.551  0.00  0.00    +0.121 C 
BRANCH   9  10
ATOM     10  C   UNL     1     -35.781  21.340   1.227  0.00  0.00    +0.121 C 
BRANCH  10  12
ATOM     11  O   UNL     1     -34.880  20.270   3.197  0.00  0.00    -0.250 OA
ATOM     12  C   UNL     1     -35.798  20.386   2.397  0.00  0.00    +0.314 C 
BRANCH  12  13
ATOM     13  O   UNL     1     -36.955  19.684   2.480  0.00  0.00    -0.480 OA
ATOM     14  H   UNL     1     -37.443  19.488   1.705  0.00  0.00    +0.295 HD
ENDBRANCH  12  13
ENDBRANCH  10  12
ENDBRANCH   9  10
ENDBRANCH   8   9
ENDBRANCH   6   8
ENDBRANCH   1   6
BRANCH   1  15
ATOM     15  C   UNL     1     -36.048  23.955   4.947  0.00  0.00    +0.165 C 
BRANCH  15  16
ATOM     16  O   UNL     1     -36.072  22.548   5.171  0.00  0.00    -0.349 OA
ATOM     17  C   UNL     1     -35.327  22.196   6.327  0.00  0.00    +0.174 C 
ENDBRANCH  15  16
BRANCH  15  18
ATOM     18  C   UNL     1     -34.611  24.473   5.059  0.00  0.00    +0.106 C 
BRANCH  18  20
ATOM     19  O   UNL     1     -34.708  26.881   5.006  0.00  0.00    -0.288 OA
ATOM     20  C   UNL     1     -34.542  25.856   5.658  0.00  0.00    +0.210 C 
ENDBRANCH  18  20
ENDBRANCH  15  18
ENDBRANCH   1  15
TORSDOF 12
ENDMDL
MODEL 9
REMARK VINA RESULT:      -4.5      1.524      5.687
REMARK  Name = 196576
REMARK  12 active torsions:
REMARK  status: ('A' for Active; 'I' for Inactive)
REMARK    1  A    between atoms: C_1  and  C_2
REMARK    2  A    between atoms: C_1  and  O_6
REMARK    3  A    between atoms: C_1  and  C_15
REMARK    4  A    between atoms: C_2  and  O_4
REMARK    5  A    between atoms: O_6  and  C_8
REMARK    6  A    between atoms: C_8  and  C_9
REMARK    7  A    between atoms: C_9  and  C_10
REMARK    8  A    between atoms: C_10  and  C_12
REMARK    9  A    between atoms: C_12  and  O_13
REMARK   10  A    between atoms: C_15  and  O_16
REMARK   11  A    between atoms: C_15  and  C_18
REMARK   12  A    between atoms: C_18  and  C_20
REMARK                            x       y       z     vdW  Elec       q    Type
REMARK                         _______ _______ _______ _____ _____    ______ ____
ROOT
ATOM      1  C   UNL     1     -36.058  22.829   3.240  0.00  0.00    +0.223 C 
ENDROOT
BRANCH   1   2
ATOM      2  C   UNL     1     -35.396  21.529   2.746  0.00  0.00    +0.153 C 
ATOM      3  C   UNL     1     -35.165  21.531   1.239  0.00  0.00    +0.036 C 
BRANCH   2   4
ATOM      4  O   UNL     1     -36.225  20.417   3.077  0.00  0.00    -0.381 OA
ATOM      5  H   UNL     1     -37.144  20.714   3.166  0.00  0.00    +0.210 HD
ENDBRANCH   2   4
ENDBRANCH   1   2
BRANCH   1   6
ATOM      6  O   UNL     1     -37.471  22.652   3.317  0.00  0.00    -0.447 OA
BRANCH   6   8
ATOM      7  O   UNL     1     -38.798  24.531   3.481  0.00  0.00    -0.250 OA
ATOM      8  C   UNL     1     -38.226  23.677   2.817  0.00  0.00    +0.318 C 
BRANCH   8   9
ATOM      9  C   UNL     1     -38.245  23.584   1.306  0.00  0.00    +0.121 C 
BRANCH   9  10
ATOM     10  C   UNL     1     -39.441  22.807   0.770  0.00  0.00    +0.121 C 
BRANCH  10  12
ATOM     11  O   UNL     1     -40.472  21.057   2.079  0.00  0.00    -0.250 OA
ATOM     12  C   UNL     1     -39.530  21.437   1.398  0.00  0.00    +0.314 C 
BRANCH  12  13
ATOM     13  O   UNL     1     -38.458  20.659   1.106  0.00  0.00    -0.480 OA
ATOM     14  H   UNL     1     -38.543  19.951   0.498  0.00  0.00    +0.295 HD
ENDBRANCH  12  13
ENDBRANCH  10  12
ENDBRANCH   9  10
ENDBRANCH   8   9
ENDBRANCH   6   8
ENDBRANCH   1   6
BRANCH   1  15
ATOM     15  C   UNL     1     -35.529  23.297   4.610  0.00  0.00    +0.165 C 
BRANCH  15  16
ATOM     16  O   UNL     1     -34.944  22.192   5.294  0.00  0.00    -0.349 OA
ATOM     17  C   UNL     1     -35.516  22.018   6.580  0.00  0.00    +0.174 C 
ENDBRANCH  15  16
BRANCH  15  18
ATOM     18  C   UNL     1     -34.520  24.447   4.524  0.00  0.00    +0.106 C 
BRANCH  18  20
ATOM     19  O   UNL     1     -35.179  26.723   4.969  0.00  0.00    -0.288 OA
ATOM     20  C   UNL     1     -34.897  25.612   5.406  0.00  0.00    +0.210 C 
ENDBRANCH  18  20
ENDBRANCH  15  18
ENDBRANCH   1  15
TORSDOF 12
ENDMDL
