MODEL 1
REMARK VINA RESULT:      -6.9      0.000      0.000
REMARK  Name = 51397976
REMARK  9 active torsions:
REMARK  status: ('A' for Active; 'I' for Inactive)
REMARK    1  A    between atoms: C_6  and  C_24
REMARK    2  A    between atoms: C_10  and  O_20
REMARK    3  A    between atoms: C_19  and  O_22
REMARK    4  A    between atoms: C_24  and  C_26
REMARK    5  A    between atoms: C_26  and  C_27
REMARK    6  A    between atoms: C_27  and  C_30
REMARK    7  A    between atoms: N_29  and  C_32
REMARK    8  A    between atoms: C_32  and  C_33
REMARK    9  A    between atoms: C_33  and  S_34
REMARK                            x       y       z     vdW  Elec       q    Type
REMARK                         _______ _______ _______ _____ _____    ______ ____
ROOT
ATOM      1  C   UNL     1     -37.079  21.641   1.790  0.00  0.00    +0.002 C 
ATOM      2  C   UNL     1     -35.750  21.923   2.529  0.00  0.00    +0.000 C 
ATOM      3  C   UNL     1     -36.872  21.044   0.385  0.00  0.00    +0.027 C 
ATOM      4  C   UNL     1     -36.080  19.700   0.536  0.00  0.00    +0.002 C 
ATOM      5  C   UNL     1     -35.855  18.977  -0.846  0.00  0.00    +0.000 C 
ATOM      6  C   UNL     1     -36.311  22.530   3.839  0.00  0.00    +0.000 C 
ATOM      7  C   UNL     1     -37.233  18.772  -1.555  0.00  0.00    +0.005 C 
ATOM      8  C   UNL     1     -35.015  20.591   2.713  0.00  0.00    +0.000 C 
ATOM      9  C   UNL     1     -34.784  19.880   1.370  0.00  0.00    +0.000 C 
ATOM     10  C   UNL     1     -38.202  20.824  -0.362  0.00  0.00    +0.110 C 
ATOM     11  C   UNL     1     -37.857  22.944   1.962  0.00  0.00    +0.000 C 
ATOM     12  C   UNL     1     -37.447  23.456   3.355  0.00  0.00    +0.000 C 
ATOM     13  C   UNL     1     -38.012  20.087  -1.687  0.00  0.00    +0.029 C 
ATOM     14  C   UNL     1     -35.177  17.584  -0.688  0.00  0.00    +0.002 C 
ATOM     15  C   UNL     1     -34.826  22.932   1.799  0.00  0.00    +0.000 C 
ATOM     16  C   UNL     1     -38.106  17.700  -0.871  0.00  0.00    +0.029 C 
ATOM     17  C   UNL     1     -34.921  19.810  -1.760  0.00  0.00    +0.000 C 
ATOM     18  C   UNL     1     -36.047  16.548   0.012  0.00  0.00    +0.029 C 
ATOM     19  C   UNL     1     -37.374  16.370  -0.714  0.00  0.00    +0.111 C 
ENDROOT
BRANCH  10  20
ATOM     20  O   UNL     1     -38.801  22.087  -0.657  0.00  0.00    -0.384 OA
ATOM     21  H   UNL     1     -38.294  22.793  -0.227  0.00  0.00    +0.210 HD
ENDBRANCH  10  20
BRANCH  19  22
ATOM     22  O   UNL     1     -38.181  15.464   0.030  0.00  0.00    -0.384 OA
ATOM     23  H   UNL     1     -38.811  15.028  -0.565  0.00  0.00    +0.210 HD
ENDBRANCH  19  22
BRANCH   6  24
ATOM     24  C   UNL     1     -35.314  23.239   4.745  0.00  0.00    +0.000 C 
ATOM     25  C   UNL     1     -35.167  22.473   6.064  0.00  0.00    +0.000 C 
BRANCH  24  26
ATOM     26  C   UNL     1     -35.747  24.702   4.968  0.00  0.00    +0.010 C 
BRANCH  26  27
ATOM     27  C   UNL     1     -34.662  25.578   5.595  0.00  0.00    +0.085 C 
BRANCH  27  30
ATOM     28  O   UNL     1     -32.976  25.505   3.858  0.00  0.00    -0.275 OA
ATOM     29  N   UNL     1     -33.853  27.560   4.500  0.00  0.00    -0.303 N 
ATOM     30  C   UNL     1     -33.730  26.178   4.556  0.00  0.00    +0.223 C 
ATOM     31  H   UNL     1     -34.490  27.998   5.108  0.00  0.00    +0.149 HD
BRANCH  29  32
ATOM     32  C   UNL     1     -33.088  28.384   3.592  0.00  0.00    +0.115 C 
BRANCH  32  33
ATOM     33  C   UNL     1     -32.413  29.542   4.303  0.00  0.00    +0.179 C 
BRANCH  33  34
ATOM     34  S   UNL     1     -31.325  29.000   5.584  0.00  0.00    +0.024 S 
ATOM     35  O   UNL     1     -30.661  27.842   4.989  0.00  0.00    -0.069 OA
ATOM     36  O   UNL     1     -30.463  30.161   5.802  0.00  0.00    -0.069 OA
ATOM     37  O   UNL     1     -32.236  28.692   6.686  0.00  0.00    -0.069 OA
ENDBRANCH  33  34
ENDBRANCH  32  33
ENDBRANCH  29  32
ENDBRANCH  27  30
ENDBRANCH  26  27
ENDBRANCH  24  26
ENDBRANCH   6  24
TORSDOF 9
ENDMDL
MODEL 2
REMARK VINA RESULT:      -6.8      2.066      2.782
REMARK  Name = 51397976
REMARK  9 active torsions:
REMARK  status: ('A' for Active; 'I' for Inactive)
REMARK    1  A    between atoms: C_6  and  C_24
REMARK    2  A    between atoms: C_10  and  O_20
REMARK    3  A    between atoms: C_19  and  O_22
REMARK    4  A    between atoms: C_24  and  C_26
REMARK    5  A    between atoms: C_26  and  C_27
REMARK    6  A    between atoms: C_27  and  C_30
REMARK    7  A    between atoms: N_29  and  C_32
REMARK    8  A    between atoms: C_32  and  C_33
REMARK    9  A    between atoms: C_33  and  S_34
REMARK                            x       y       z     vdW  Elec       q    Type
REMARK                         _______ _______ _______ _____ _____    ______ ____
ROOT
ATOM      1  C   UNL     1     -37.143  21.622   1.644  0.00  0.00    +0.002 C 
ATOM      2  C   UNL     1     -35.838  21.890   2.429  0.00  0.00    +0.000 C 
ATOM      3  C   UNL     1     -36.894  20.985   0.263  0.00  0.00    +0.027 C 
ATOM      4  C   UNL     1     -36.144  19.626   0.479  0.00  0.00    +0.002 C 
ATOM      5  C   UNL     1     -35.882  18.863  -0.875  0.00  0.00    +0.000 C 
ATOM      6  C   UNL     1     -36.436  22.543   3.700  0.00  0.00    +0.000 C 
ATOM      7  C   UNL     1     -37.234  18.675  -1.635  0.00  0.00    +0.005 C 
ATOM      8  C   UNL     1     -35.146  20.545   2.676  0.00  0.00    +0.000 C 
ATOM      9  C   UNL     1     -34.878  19.795   1.361  0.00  0.00    +0.000 C 
ATOM     10  C   UNL     1     -38.199  20.779  -0.532  0.00  0.00    +0.110 C 
ATOM     11  C   UNL     1     -37.894  22.948   1.752  0.00  0.00    +0.000 C 
ATOM     12  C   UNL     1     -37.528  23.484   3.148  0.00  0.00    +0.000 C 
ATOM     13  C   UNL     1     -37.974  20.004  -1.831  0.00  0.00    +0.029 C 
ATOM     14  C   UNL     1     -35.246  17.458  -0.656  0.00  0.00    +0.002 C 
ATOM     15  C   UNL     1     -34.860  22.857   1.714  0.00  0.00    +0.000 C 
ATOM     16  C   UNL     1     -38.161  17.641  -0.961  0.00  0.00    +0.029 C 
ATOM     17  C   UNL     1     -34.891  19.650  -1.770  0.00  0.00    +0.000 C 
ATOM     18  C   UNL     1     -36.170  16.462   0.033  0.00  0.00    +0.029 C 
ATOM     19  C   UNL     1     -37.470  16.298  -0.743  0.00  0.00    +0.111 C 
ENDROOT
BRANCH  10  20
ATOM     20  O   UNL     1     -38.753  22.048  -0.882  0.00  0.00    -0.384 OA
ATOM     21  H   UNL     1     -39.609  22.159  -0.440  0.00  0.00    +0.210 HD
ENDBRANCH  10  20
BRANCH  19  22
ATOM     22  O   UNL     1     -38.330  15.431  -0.011  0.00  0.00    -0.384 OA
ATOM     23  H   UNL     1     -38.498  14.630  -0.530  0.00  0.00    +0.210 HD
ENDBRANCH  19  22
BRANCH   6  24
ATOM     24  C   UNL     1     -35.459  23.250   4.629  0.00  0.00    +0.000 C 
ATOM     25  C   UNL     1     -35.183  22.380   5.860  0.00  0.00    +0.000 C 
BRANCH  24  26
ATOM     26  C   UNL     1     -36.002  24.642   5.011  0.00  0.00    +0.010 C 
BRANCH  26  27
ATOM     27  C   UNL     1     -34.934  25.595   5.546  0.00  0.00    +0.085 C 
BRANCH  27  30
ATOM     28  O   UNL     1     -33.100  26.205   4.087  0.00  0.00    -0.275 OA
ATOM     29  N   UNL     1     -35.125  27.330   3.893  0.00  0.00    -0.303 N 
ATOM     30  C   UNL     1     -34.261  26.392   4.441  0.00  0.00    +0.223 C 
ATOM     31  H   UNL     1     -36.038  27.394   4.255  0.00  0.00    +0.149 HD
BRANCH  29  32
ATOM     32  C   UNL     1     -34.746  28.219   2.818  0.00  0.00    +0.115 C 
BRANCH  32  33
ATOM     33  C   UNL     1     -35.926  28.591   1.941  0.00  0.00    +0.179 C 
BRANCH  33  34
ATOM     34  S   UNL     1     -36.735  27.173   1.267  0.00  0.00    +0.024 S 
ATOM     35  O   UNL     1     -37.250  27.660  -0.011  0.00  0.00    -0.069 OA
ATOM     36  O   UNL     1     -35.655  26.192   1.163  0.00  0.00    -0.069 OA
ATOM     37  O   UNL     1     -37.755  26.865   2.268  0.00  0.00    -0.069 OA
ENDBRANCH  33  34
ENDBRANCH  32  33
ENDBRANCH  29  32
ENDBRANCH  27  30
ENDBRANCH  26  27
ENDBRANCH  24  26
ENDBRANCH   6  24
TORSDOF 9
ENDMDL
MODEL 3
REMARK VINA RESULT:      -6.6      6.302      8.404
REMARK  Name = 51397976
REMARK  9 active torsions:
REMARK  status: ('A' for Active; 'I' for Inactive)
REMARK    1  A    between atoms: C_6  and  C_24
REMARK    2  A    between atoms: C_10  and  O_20
REMARK    3  A    between atoms: C_19  and  O_22
REMARK    4  A    between atoms: C_24  and  C_26
REMARK    5  A    between atoms: C_26  and  C_27
REMARK    6  A    between atoms: C_27  and  C_30
REMARK    7  A    between atoms: N_29  and  C_32
REMARK    8  A    between atoms: C_32  and  C_33
REMARK    9  A    between atoms: C_33  and  S_34
REMARK                            x       y       z     vdW  Elec       q    Type
REMARK                         _______ _______ _______ _____ _____    ______ ____
ROOT
ATOM      1  C   UNL     1     -39.213  23.931   1.816  0.00  0.00    +0.002 C 
ATOM      2  C   UNL     1     -39.541  25.387   2.223  0.00  0.00    +0.000 C 
ATOM      3  C   UNL     1     -37.702  23.680   1.649  0.00  0.00    +0.027 C 
ATOM      4  C   UNL     1     -36.999  23.996   3.013  0.00  0.00    +0.002 C 
ATOM      5  C   UNL     1     -35.447  23.724   2.967  0.00  0.00    +0.000 C 
ATOM      6  C   UNL     1     -41.087  25.296   2.262  0.00  0.00    +0.000 C 
ATOM      7  C   UNL     1     -35.192  22.255   2.500  0.00  0.00    +0.005 C 
ATOM      8  C   UNL     1     -38.890  25.660   3.583  0.00  0.00    +0.000 C 
ATOM      9  C   UNL     1     -37.374  25.405   3.547  0.00  0.00    +0.000 C 
ATOM     10  C   UNL     1     -37.393  22.243   1.185  0.00  0.00    +0.110 C 
ATOM     11  C   UNL     1     -40.167  23.670   0.652  0.00  0.00    +0.000 C 
ATOM     12  C   UNL     1     -41.437  24.464   1.010  0.00  0.00    +0.000 C 
ATOM     13  C   UNL     1     -35.894  21.943   1.172  0.00  0.00    +0.029 C 
ATOM     14  C   UNL     1     -34.765  23.920   4.353  0.00  0.00    +0.002 C 
ATOM     15  C   UNL     1     -39.072  26.449   1.196  0.00  0.00    +0.000 C 
ATOM     16  C   UNL     1     -35.580  21.210   3.567  0.00  0.00    +0.029 C 
ATOM     17  C   UNL     1     -34.742  24.705   1.996  0.00  0.00    +0.000 C 
ATOM     18  C   UNL     1     -35.181  22.894   5.399  0.00  0.00    +0.029 C 
ATOM     19  C   UNL     1     -34.906  21.477   4.911  0.00  0.00    +0.111 C 
ENDROOT
BRANCH  10  20
ATOM     20  O   UNL     1     -37.879  22.053  -0.144  0.00  0.00    -0.384 OA
ATOM     21  H   UNL     1     -37.796  21.118  -0.388  0.00  0.00    +0.210 HD
ENDBRANCH  10  20
BRANCH  19  22
ATOM     22  O   UNL     1     -35.396  20.559   5.883  0.00  0.00    -0.384 OA
ATOM     23  H   UNL     1     -34.800  19.796   5.935  0.00  0.00    +0.210 HD
ENDBRANCH  19  22
BRANCH   6  24
ATOM     24  C   UNL     1     -41.847  26.614   2.328  0.00  0.00    +0.000 C 
ATOM     25  C   UNL     1     -41.772  27.192   3.746  0.00  0.00    +0.000 C 
BRANCH  24  26
ATOM     26  C   UNL     1     -43.302  26.412   1.859  0.00  0.00    +0.010 C 
BRANCH  26  27
ATOM     27  C   UNL     1     -44.305  26.268   3.004  0.00  0.00    +0.085 C 
BRANCH  27  30
ATOM     28  O   UNL     1     -45.799  28.063   2.365  0.00  0.00    -0.275 OA
ATOM     29  N   UNL     1     -44.964  28.003   4.533  0.00  0.00    -0.303 N 
ATOM     30  C   UNL     1     -45.108  27.537   3.234  0.00  0.00    +0.223 C 
ATOM     31  H   UNL     1     -44.382  27.501   5.149  0.00  0.00    +0.149 HD
BRANCH  29  32
ATOM     32  C   UNL     1     -45.625  29.191   5.025  0.00  0.00    +0.115 C 
BRANCH  32  33
ATOM     33  C   UNL     1     -45.301  29.464   6.481  0.00  0.00    +0.179 C 
BRANCH  33  34
ATOM     34  S   UNL     1     -43.844  30.442   6.672  0.00  0.00    +0.024 S 
ATOM     35  O   UNL     1     -44.317  31.799   6.405  0.00  0.00    -0.069 OA
ATOM     36  O   UNL     1     -43.452  30.188   8.058  0.00  0.00    -0.069 OA
ATOM     37  O   UNL     1     -42.939  29.893   5.664  0.00  0.00    -0.069 OA
ENDBRANCH  33  34
ENDBRANCH  32  33
ENDBRANCH  29  32
ENDBRANCH  27  30
ENDBRANCH  26  27
ENDBRANCH  24  26
ENDBRANCH   6  24
TORSDOF 9
ENDMDL
MODEL 4
REMARK VINA RESULT:      -6.5      3.121      5.114
REMARK  Name = 51397976
REMARK  9 active torsions:
REMARK  status: ('A' for Active; 'I' for Inactive)
REMARK    1  A    between atoms: C_6  and  C_24
REMARK    2  A    between atoms: C_10  and  O_20
REMARK    3  A    between atoms: C_19  and  O_22
REMARK    4  A    between atoms: C_24  and  C_26
REMARK    5  A    between atoms: C_26  and  C_27
REMARK    6  A    between atoms: C_27  and  C_30
REMARK    7  A    between atoms: N_29  and  C_32
REMARK    8  A    between atoms: C_32  and  C_33
REMARK    9  A    between atoms: C_33  and  S_34
REMARK                            x       y       z     vdW  Elec       q    Type
REMARK                         _______ _______ _______ _____ _____    ______ ____
ROOT
ATOM      1  C   UNL     1     -34.320  24.563   4.116  0.00  0.00    +0.002 C 
ATOM      2  C   UNL     1     -34.002  25.895   3.397  0.00  0.00    +0.000 C 
ATOM      3  C   UNL     1     -35.240  23.641   3.293  0.00  0.00    +0.027 C 
ATOM      4  C   UNL     1     -34.528  23.325   1.933  0.00  0.00    +0.002 C 
ATOM      5  C   UNL     1     -35.366  22.343   1.030  0.00  0.00    +0.000 C 
ATOM      6  C   UNL     1     -33.123  26.565   4.482  0.00  0.00    +0.000 C 
ATOM      7  C   UNL     1     -35.693  21.046   1.838  0.00  0.00    +0.005 C 
ATOM      8  C   UNL     1     -33.260  25.569   2.096  0.00  0.00    +0.000 C 
ATOM      9  C   UNL     1     -34.072  24.617   1.203  0.00  0.00    +0.000 C 
ATOM     10  C   UNL     1     -35.597  22.344   4.046  0.00  0.00    +0.110 C 
ATOM     11  C   UNL     1     -34.738  25.013   5.515  0.00  0.00    +0.000 C 
ATOM     12  C   UNL     1     -33.862  26.247   5.799  0.00  0.00    +0.000 C 
ATOM     13  C   UNL     1     -36.376  21.359   3.175  0.00  0.00    +0.029 C 
ATOM     14  C   UNL     1     -34.609  21.932  -0.267  0.00  0.00    +0.002 C 
ATOM     15  C   UNL     1     -35.252  26.756   3.083  0.00  0.00    +0.000 C 
ATOM     16  C   UNL     1     -34.455  20.154   2.065  0.00  0.00    +0.029 C 
ATOM     17  C   UNL     1     -36.686  23.010   0.565  0.00  0.00    +0.000 C 
ATOM     18  C   UNL     1     -33.377  21.072  -0.018  0.00  0.00    +0.029 C 
ATOM     19  C   UNL     1     -33.739  19.814   0.761  0.00  0.00    +0.111 C 
ENDROOT
BRANCH  10  20
ATOM     20  O   UNL     1     -36.414  22.655   5.176  0.00  0.00    -0.384 OA
ATOM     21  H   UNL     1     -37.206  23.131   4.880  0.00  0.00    +0.210 HD
ENDBRANCH  10  20
BRANCH  19  22
ATOM     22  O   UNL     1     -32.542  19.096   1.045  0.00  0.00    -0.384 OA
ATOM     23  H   UNL     1     -32.008  19.026   0.239  0.00  0.00    +0.210 HD
ENDBRANCH  19  22
BRANCH   6  24
ATOM     24  C   UNL     1     -32.837  28.051   4.308  0.00  0.00    +0.000 C 
ATOM     25  C   UNL     1     -32.072  28.287   3.001  0.00  0.00    +0.000 C 
BRANCH  24  26
ATOM     26  C   UNL     1     -32.073  28.591   5.534  0.00  0.00    +0.010 C 
BRANCH  26  27
ATOM     27  C   UNL     1     -31.978  30.117   5.577  0.00  0.00    +0.085 C 
BRANCH  27  30
ATOM     28  O   UNL     1     -30.334  31.785   4.959  0.00  0.00    -0.275 OA
ATOM     29  N   UNL     1     -29.639  29.603   5.356  0.00  0.00    -0.303 N 
ATOM     30  C   UNL     1     -30.579  30.619   5.257  0.00  0.00    +0.223 C 
ATOM     31  H   UNL     1     -29.948  28.701   5.603  0.00  0.00    +0.149 HD
BRANCH  29  32
ATOM     32  C   UNL     1     -28.229  29.805   5.112  0.00  0.00    +0.115 C 
BRANCH  32  33
ATOM     33  C   UNL     1     -27.380  28.708   5.724  0.00  0.00    +0.179 C 
BRANCH  33  34
ATOM     34  S   UNL     1     -28.070  28.082   7.223  0.00  0.00    +0.024 S 
ATOM     35  O   UNL     1     -28.524  29.290   7.910  0.00  0.00    -0.069 OA
ATOM     36  O   UNL     1     -29.140  27.201   6.755  0.00  0.00    -0.069 OA
ATOM     37  O   UNL     1     -26.940  27.401   7.852  0.00  0.00    -0.069 OA
ENDBRANCH  33  34
ENDBRANCH  32  33
ENDBRANCH  29  32
ENDBRANCH  27  30
ENDBRANCH  26  27
ENDBRANCH  24  26
ENDBRANCH   6  24
TORSDOF 9
ENDMDL
MODEL 5
REMARK VINA RESULT:      -6.4      1.344      1.932
REMARK  Name = 51397976
REMARK  9 active torsions:
REMARK  status: ('A' for Active; 'I' for Inactive)
REMARK    1  A    between atoms: C_6  and  C_24
REMARK    2  A    between atoms: C_10  and  O_20
REMARK    3  A    between atoms: C_19  and  O_22
REMARK    4  A    between atoms: C_24  and  C_26
REMARK    5  A    between atoms: C_26  and  C_27
REMARK    6  A    between atoms: C_27  and  C_30
REMARK    7  A    between atoms: N_29  and  C_32
REMARK    8  A    between atoms: C_32  and  C_33
REMARK    9  A    between atoms: C_33  and  S_34
REMARK                            x       y       z     vdW  Elec       q    Type
REMARK                         _______ _______ _______ _____ _____    ______ ____
ROOT
ATOM      1  C   UNL     1     -37.117  21.422   1.569  0.00  0.00    +0.002 C 
ATOM      2  C   UNL     1     -35.732  21.686   2.205  0.00  0.00    +0.000 C 
ATOM      3  C   UNL     1     -37.025  20.790   0.167  0.00  0.00    +0.027 C 
ATOM      4  C   UNL     1     -36.258  19.430   0.293  0.00  0.00    +0.002 C 
ATOM      5  C   UNL     1     -36.150  18.672  -1.085  0.00  0.00    +0.000 C 
ATOM      6  C   UNL     1     -36.184  22.334   3.537  0.00  0.00    +0.000 C 
ATOM      7  C   UNL     1     -37.579  18.488  -1.690  0.00  0.00    +0.005 C 
ATOM      8  C   UNL     1     -35.019  20.339   2.368  0.00  0.00    +0.000 C 
ATOM      9  C   UNL     1     -34.901  19.594   1.028  0.00  0.00    +0.000 C 
ATOM     10  C   UNL     1     -38.410  20.589  -0.478  0.00  0.00    +0.110 C 
ATOM     11  C   UNL     1     -37.849  22.749   1.766  0.00  0.00    +0.000 C 
ATOM     12  C   UNL     1     -37.328  23.279   3.114  0.00  0.00    +0.000 C 
ATOM     13  C   UNL     1     -38.334  19.820  -1.797  0.00  0.00    +0.029 C 
ATOM     14  C   UNL     1     -35.497  17.265  -0.943  0.00  0.00    +0.002 C 
ATOM     15  C   UNL     1     -34.839  22.654   1.389  0.00  0.00    +0.000 C 
ATOM     16  C   UNL     1     -38.427  17.454  -0.921  0.00  0.00    +0.029 C 
ATOM     17  C   UNL     1     -35.264  19.461  -2.082  0.00  0.00    +0.000 C 
ATOM     18  C   UNL     1     -36.339  16.267  -0.160  0.00  0.00    +0.029 C 
ATOM     19  C   UNL     1     -37.719  16.109  -0.786  0.00  0.00    +0.111 C 
ENDROOT
BRANCH  10  20
ATOM     20  O   UNL     1     -38.998  21.861  -0.759  0.00  0.00    -0.384 OA
ATOM     21  H   UNL     1     -39.296  22.269   0.068  0.00  0.00    +0.210 HD
ENDBRANCH  10  20
BRANCH  19  22
ATOM     22  O   UNL     1     -38.493  15.240   0.033  0.00  0.00    -0.384 OA
ATOM     23  H   UNL     1     -38.254  14.319  -0.155  0.00  0.00    +0.210 HD
ENDBRANCH  19  22
BRANCH   6  24
ATOM     24  C   UNL     1     -35.107  23.036   4.354  0.00  0.00    +0.000 C 
ATOM     25  C   UNL     1     -35.050  22.443   5.766  0.00  0.00    +0.000 C 
BRANCH  24  26
ATOM     26  C   UNL     1     -35.363  24.557   4.372  0.00  0.00    +0.010 C 
BRANCH  26  27
ATOM     27  C   UNL     1     -34.880  25.248   5.648  0.00  0.00    +0.085 C 
BRANCH  27  30
ATOM     28  O   UNL     1     -32.954  26.647   6.088  0.00  0.00    -0.275 OA
ATOM     29  N   UNL     1     -34.231  27.044   4.187  0.00  0.00    -0.303 N 
ATOM     30  C   UNL     1     -33.907  26.379   5.361  0.00  0.00    +0.223 C 
ATOM     31  H   UNL     1     -35.020  26.743   3.681  0.00  0.00    +0.149 HD
BRANCH  29  32
ATOM     32  C   UNL     1     -33.466  28.157   3.673  0.00  0.00    +0.115 C 
BRANCH  32  33
ATOM     33  C   UNL     1     -33.100  27.974   2.212  0.00  0.00    +0.179 C 
BRANCH  33  34
ATOM     34  S   UNL     1     -32.001  26.615   1.962  0.00  0.00    +0.024 S 
ATOM     35  O   UNL     1     -31.148  26.654   3.149  0.00  0.00    -0.069 OA
ATOM     36  O   UNL     1     -32.902  25.466   1.888  0.00  0.00    -0.069 OA
ATOM     37  O   UNL     1     -31.330  26.956   0.708  0.00  0.00    -0.069 OA
ENDBRANCH  33  34
ENDBRANCH  32  33
ENDBRANCH  29  32
ENDBRANCH  27  30
ENDBRANCH  26  27
ENDBRANCH  24  26
ENDBRANCH   6  24
TORSDOF 9
ENDMDL
MODEL 6
REMARK VINA RESULT:      -6.4      3.951      5.815
REMARK  Name = 51397976
REMARK  9 active torsions:
REMARK  status: ('A' for Active; 'I' for Inactive)
REMARK    1  A    between atoms: C_6  and  C_24
REMARK    2  A    between atoms: C_10  and  O_20
REMARK    3  A    between atoms: C_19  and  O_22
REMARK    4  A    between atoms: C_24  and  C_26
REMARK    5  A    between atoms: C_26  and  C_27
REMARK    6  A    between atoms: C_27  and  C_30
REMARK    7  A    between atoms: N_29  and  C_32
REMARK    8  A    between atoms: C_32  and  C_33
REMARK    9  A    between atoms: C_33  and  S_34
REMARK                            x       y       z     vdW  Elec       q    Type
REMARK                         _______ _______ _______ _____ _____    ______ ____
ROOT
ATOM      1  C   UNL     1     -33.293  20.186   0.703  0.00  0.00    +0.002 C 
ATOM      2  C   UNL     1     -33.477  21.470  -0.140  0.00  0.00    +0.000 C 
ATOM      3  C   UNL     1     -32.455  19.110  -0.014  0.00  0.00    +0.027 C 
ATOM      4  C   UNL     1     -31.045  19.717  -0.327  0.00  0.00    +0.002 C 
ATOM      5  C   UNL     1     -30.084  18.678  -1.021  0.00  0.00    +0.000 C 
ATOM      6  C   UNL     1     -34.364  22.287   0.832  0.00  0.00    +0.000 C 
ATOM      7  C   UNL     1     -29.989  17.391  -0.140  0.00  0.00    +0.005 C 
ATOM      8  C   UNL     1     -32.092  22.077  -0.392  0.00  0.00    +0.000 C 
ATOM      9  C   UNL     1     -31.149  21.073  -1.075  0.00  0.00    +0.000 C 
ATOM     10  C   UNL     1     -32.331  17.816   0.813  0.00  0.00    +0.110 C 
ATOM     11  C   UNL     1     -34.713  19.868   1.169  0.00  0.00    +0.000 C 
ATOM     12  C   UNL     1     -35.369  21.246   1.371  0.00  0.00    +0.000 C 
ATOM     13  C   UNL     1     -31.372  16.808   0.179  0.00  0.00    +0.029 C 
ATOM     14  C   UNL     1     -28.645  19.237  -1.224  0.00  0.00    +0.002 C 
ATOM     15  C   UNL     1     -34.199  21.237  -1.492  0.00  0.00    +0.000 C 
ATOM     16  C   UNL     1     -29.190  17.613   1.161  0.00  0.00    +0.029 C 
ATOM     17  C   UNL     1     -30.604  18.301  -2.432  0.00  0.00    +0.000 C 
ATOM     18  C   UNL     1     -27.884  19.472   0.073  0.00  0.00    +0.029 C 
ATOM     19  C   UNL     1     -27.804  18.194   0.898  0.00  0.00    +0.111 C 
ENDROOT
BRANCH  10  20
ATOM     20  O   UNL     1     -33.609  17.185   0.912  0.00  0.00    -0.384 OA
ATOM     21  H   UNL     1     -33.804  16.718   0.085  0.00  0.00    +0.210 HD
ENDBRANCH  10  20
BRANCH  19  22
ATOM     22  O   UNL     1     -27.165  18.490   2.135  0.00  0.00    -0.384 OA
ATOM     23  H   UNL     1     -26.204  18.453   2.020  0.00  0.00    +0.210 HD
ENDBRANCH  19  22
BRANCH   6  24
ATOM     24  C   UNL     1     -35.043  23.524   0.259  0.00  0.00    +0.000 C 
ATOM     25  C   UNL     1     -34.344  24.789   0.770  0.00  0.00    +0.000 C 
BRANCH  24  26
ATOM     26  C   UNL     1     -36.547  23.511   0.604  0.00  0.00    +0.010 C 
BRANCH  26  27
ATOM     27  C   UNL     1     -36.963  24.607   1.585  0.00  0.00    +0.085 C 
BRANCH  27  30
ATOM     28  O   UNL     1     -37.573  23.121   3.398  0.00  0.00    -0.275 OA
ATOM     29  N   UNL     1     -36.202  24.945   3.841  0.00  0.00    -0.303 N 
ATOM     30  C   UNL     1     -36.968  24.123   3.026  0.00  0.00    +0.223 C 
ATOM     31  H   UNL     1     -35.758  25.724   3.435  0.00  0.00    +0.149 HD
BRANCH  29  32
ATOM     32  C   UNL     1     -36.027  24.711   5.257  0.00  0.00    +0.115 C 
BRANCH  32  33
ATOM     33  C   UNL     1     -35.244  25.824   5.927  0.00  0.00    +0.179 C 
BRANCH  33  34
ATOM     34  S   UNL     1     -33.842  26.324   4.977  0.00  0.00    +0.024 S 
ATOM     35  O   UNL     1     -33.434  25.088   4.311  0.00  0.00    -0.069 OA
ATOM     36  O   UNL     1     -34.388  27.350   4.091  0.00  0.00    -0.069 OA
ATOM     37  O   UNL     1     -32.911  26.816   5.992  0.00  0.00    -0.069 OA
ENDBRANCH  33  34
ENDBRANCH  32  33
ENDBRANCH  29  32
ENDBRANCH  27  30
ENDBRANCH  26  27
ENDBRANCH  24  26
ENDBRANCH   6  24
TORSDOF 9
ENDMDL
MODEL 7
REMARK VINA RESULT:      -6.4      5.252      8.110
REMARK  Name = 51397976
REMARK  9 active torsions:
REMARK  status: ('A' for Active; 'I' for Inactive)
REMARK    1  A    between atoms: C_6  and  C_24
REMARK    2  A    between atoms: C_10  and  O_20
REMARK    3  A    between atoms: C_19  and  O_22
REMARK    4  A    between atoms: C_24  and  C_26
REMARK    5  A    between atoms: C_26  and  C_27
REMARK    6  A    between atoms: C_27  and  C_30
REMARK    7  A    between atoms: N_29  and  C_32
REMARK    8  A    between atoms: C_32  and  C_33
REMARK    9  A    between atoms: C_33  and  S_34
REMARK                            x       y       z     vdW  Elec       q    Type
REMARK                         _______ _______ _______ _____ _____    ______ ____
ROOT
ATOM      1  C   UNL     1     -40.605  25.136   2.554  0.00  0.00    +0.002 C 
ATOM      2  C   UNL     1     -40.078  24.599   1.204  0.00  0.00    +0.000 C 
ATOM      3  C   UNL     1     -41.734  26.172   2.390  0.00  0.00    +0.027 C 
ATOM      4  C   UNL     1     -42.916  25.490   1.619  0.00  0.00    +0.002 C 
ATOM      5  C   UNL     1     -44.151  26.452   1.439  0.00  0.00    +0.000 C 
ATOM      6  C   UNL     1     -38.970  23.648   1.724  0.00  0.00    +0.000 C 
ATOM      7  C   UNL     1     -44.594  26.995   2.836  0.00  0.00    +0.005 C 
ATOM      8  C   UNL     1     -41.233  23.890   0.489  0.00  0.00    +0.000 C 
ATOM      9  C   UNL     1     -42.441  24.822   0.301  0.00  0.00    +0.000 C 
ATOM     10  C   UNL     1     -42.208  26.743   3.741  0.00  0.00    +0.110 C 
ATOM     11  C   UNL     1     -39.328  25.507   3.305  0.00  0.00    +0.000 C 
ATOM     12  C   UNL     1     -38.297  24.456   2.854  0.00  0.00    +0.000 C 
ATOM     13  C   UNL     1     -43.432  27.648   3.595  0.00  0.00    +0.029 C 
ATOM     14  C   UNL     1     -45.371  25.742   0.782  0.00  0.00    +0.002 C 
ATOM     15  C   UNL     1     -39.484  25.692   0.279  0.00  0.00    +0.000 C 
ATOM     16  C   UNL     1     -45.266  25.917   3.712  0.00  0.00    +0.029 C 
ATOM     17  C   UNL     1     -43.793  27.642   0.512  0.00  0.00    +0.000 C 
ATOM     18  C   UNL     1     -46.003  24.665   1.654  0.00  0.00    +0.029 C 
ATOM     19  C   UNL     1     -46.431  25.235   3.000  0.00  0.00    +0.111 C 
ENDROOT
BRANCH  10  20
ATOM     20  O   UNL     1     -41.165  27.525   4.324  0.00  0.00    -0.384 OA
ATOM     21  H   UNL     1     -41.531  28.363   4.646  0.00  0.00    +0.210 HD
ENDBRANCH  10  20
BRANCH  19  22
ATOM     22  O   UNL     1     -46.928  24.172   3.806  0.00  0.00    -0.384 OA
ATOM     23  H   UNL     1     -47.874  24.307   3.972  0.00  0.00    +0.210 HD
ENDBRANCH  19  22
BRANCH   6  24
ATOM     24  C   UNL     1     -37.976  23.130   0.693  0.00  0.00    +0.000 C 
ATOM     25  C   UNL     1     -38.300  21.675   0.338  0.00  0.00    +0.000 C 
BRANCH  24  26
ATOM     26  C   UNL     1     -36.535  23.294   1.218  0.00  0.00    +0.010 C 
BRANCH  26  27
ATOM     27  C   UNL     1     -35.804  21.968   1.434  0.00  0.00    +0.085 C 
BRANCH  27  30
ATOM     28  O   UNL     1     -35.338  20.576   3.360  0.00  0.00    -0.275 OA
ATOM     29  N   UNL     1     -35.446  22.883   3.629  0.00  0.00    -0.303 N 
ATOM     30  C   UNL     1     -35.507  21.703   2.901  0.00  0.00    +0.223 C 
ATOM     31  H   UNL     1     -35.598  23.733   3.157  0.00  0.00    +0.149 HD
BRANCH  29  32
ATOM     32  C   UNL     1     -35.171  22.922   5.047  0.00  0.00    +0.115 C 
BRANCH  32  33
ATOM     33  C   UNL     1     -35.461  24.284   5.648  0.00  0.00    +0.179 C 
BRANCH  33  34
ATOM     34  S   UNL     1     -34.504  25.565   4.900  0.00  0.00    +0.024 S 
ATOM     35  O   UNL     1     -34.267  26.492   6.005  0.00  0.00    -0.069 OA
ATOM     36  O   UNL     1     -33.316  24.858   4.422  0.00  0.00    -0.069 OA
ATOM     37  O   UNL     1     -35.387  26.069   3.849  0.00  0.00    -0.069 OA
ENDBRANCH  33  34
ENDBRANCH  32  33
ENDBRANCH  29  32
ENDBRANCH  27  30
ENDBRANCH  26  27
ENDBRANCH  24  26
ENDBRANCH   6  24
TORSDOF 9
ENDMDL
MODEL 8
REMARK VINA RESULT:      -6.3      3.937      9.496
REMARK  Name = 51397976
REMARK  9 active torsions:
REMARK  status: ('A' for Active; 'I' for Inactive)
REMARK    1  A    between atoms: C_6  and  C_24
REMARK    2  A    between atoms: C_10  and  O_20
REMARK    3  A    between atoms: C_19  and  O_22
REMARK    4  A    between atoms: C_24  and  C_26
REMARK    5  A    between atoms: C_26  and  C_27
REMARK    6  A    between atoms: C_27  and  C_30
REMARK    7  A    between atoms: N_29  and  C_32
REMARK    8  A    between atoms: C_32  and  C_33
REMARK    9  A    between atoms: C_33  and  S_34
REMARK                            x       y       z     vdW  Elec       q    Type
REMARK                         _______ _______ _______ _____ _____    ______ ____
ROOT
ATOM      1  C   UNL     1     -34.599  22.198   0.868  0.00  0.00    +0.002 C 
ATOM      2  C   UNL     1     -34.866  20.817   1.511  0.00  0.00    +0.000 C 
ATOM      3  C   UNL     1     -35.662  23.250   1.239  0.00  0.00    +0.027 C 
ATOM      4  C   UNL     1     -35.667  23.411   2.798  0.00  0.00    +0.002 C 
ATOM      5  C   UNL     1     -36.690  24.506   3.286  0.00  0.00    +0.000 C 
ATOM      6  C   UNL     1     -33.675  20.025   0.917  0.00  0.00    +0.000 C 
ATOM      7  C   UNL     1     -36.392  25.855   2.556  0.00  0.00    +0.005 C 
ATOM      8  C   UNL     1     -34.816  20.984   3.034  0.00  0.00    +0.000 C 
ATOM      9  C   UNL     1     -35.815  22.045   3.522  0.00  0.00    +0.000 C 
ATOM     10  C   UNL     1     -35.416  24.603   0.543  0.00  0.00    +0.110 C 
ATOM     11  C   UNL     1     -34.340  21.855  -0.598  0.00  0.00    +0.000 C 
ATOM     12  C   UNL     1     -33.624  20.492  -0.554  0.00  0.00    +0.000 C 
ATOM     13  C   UNL     1     -36.371  25.692   1.031  0.00  0.00    +0.029 C 
ATOM     14  C   UNL     1     -36.613  24.755   4.821  0.00  0.00    +0.002 C 
ATOM     15  C   UNL     1     -36.219  20.181   1.100  0.00  0.00    +0.000 C 
ATOM     16  C   UNL     1     -35.088  26.523   3.040  0.00  0.00    +0.029 C 
ATOM     17  C   UNL     1     -38.148  24.070   2.992  0.00  0.00    +0.000 C 
ATOM     18  C   UNL     1     -35.307  25.391   5.280  0.00  0.00    +0.029 C 
ATOM     19  C   UNL     1     -35.059  26.707   4.554  0.00  0.00    +0.111 C 
ENDROOT
BRANCH  10  20
ATOM     20  O   UNL     1     -35.613  24.461  -0.865  0.00  0.00    -0.384 OA
ATOM     21  H   UNL     1     -34.830  24.047  -1.260  0.00  0.00    +0.210 HD
ENDBRANCH  10  20
BRANCH  19  22
ATOM     22  O   UNL     1     -33.788  27.212   4.951  0.00  0.00    -0.384 OA
ATOM     23  H   UNL     1     -33.882  28.130   5.245  0.00  0.00    +0.210 HD
ENDBRANCH  19  22
BRANCH   6  24
ATOM     24  C   UNL     1     -33.726  18.510   1.055  0.00  0.00    +0.000 C 
ATOM     25  C   UNL     1     -32.345  17.972   1.444  0.00  0.00    +0.000 C 
BRANCH  24  26
ATOM     26  C   UNL     1     -34.251  17.875  -0.250  0.00  0.00    +0.010 C 
BRANCH  26  27
ATOM     27  C   UNL     1     -34.116  16.353  -0.292  0.00  0.00    +0.085 C 
BRANCH  27  30
ATOM     28  O   UNL     1     -35.595  14.456  -0.568  0.00  0.00    -0.275 OA
ATOM     29  N   UNL     1     -36.502  16.533  -0.054  0.00  0.00    -0.303 N 
ATOM     30  C   UNL     1     -35.465  15.653  -0.330  0.00  0.00    +0.223 C 
ATOM     31  H   UNL     1     -36.282  17.476   0.123  0.00  0.00    +0.149 HD
BRANCH  29  32
ATOM     32  C   UNL     1     -37.890  16.131  -0.017  0.00  0.00    +0.115 C 
BRANCH  32  33
ATOM     33  C   UNL     1     -38.585  16.351  -1.347  0.00  0.00    +0.179 C 
BRANCH  33  34
ATOM     34  S   UNL     1     -38.592  18.051  -1.826  0.00  0.00    +0.024 S 
ATOM     35  O   UNL     1     -37.225  18.269  -2.298  0.00  0.00    -0.069 OA
ATOM     36  O   UNL     1     -39.618  18.099  -2.867  0.00  0.00    -0.069 OA
ATOM     37  O   UNL     1     -38.937  18.745  -0.587  0.00  0.00    -0.069 OA
ENDBRANCH  33  34
ENDBRANCH  32  33
ENDBRANCH  29  32
ENDBRANCH  27  30
ENDBRANCH  26  27
ENDBRANCH  24  26
ENDBRANCH   6  24
TORSDOF 9
ENDMDL
MODEL 9
REMARK VINA RESULT:      -6.3      4.216      9.994
REMARK  Name = 51397976
REMARK  9 active torsions:
REMARK  status: ('A' for Active; 'I' for Inactive)
REMARK    1  A    between atoms: C_6  and  C_24
REMARK    2  A    between atoms: C_10  and  O_20
REMARK    3  A    between atoms: C_19  and  O_22
REMARK    4  A    between atoms: C_24  and  C_26
REMARK    5  A    between atoms: C_26  and  C_27
REMARK    6  A    between atoms: C_27  and  C_30
REMARK    7  A    between atoms: N_29  and  C_32
REMARK    8  A    between atoms: C_32  and  C_33
REMARK    9  A    between atoms: C_33  and  S_34
REMARK                            x       y       z     vdW  Elec       q    Type
REMARK                         _______ _______ _______ _____ _____    ______ ____
ROOT
ATOM      1  C   UNL     1     -34.433  22.256   0.931  0.00  0.00    +0.002 C 
ATOM      2  C   UNL     1     -34.897  20.861   1.408  0.00  0.00    +0.000 C 
ATOM      3  C   UNL     1     -35.351  23.395   1.417  0.00  0.00    +0.027 C 
ATOM      4  C   UNL     1     -35.367  23.375   2.983  0.00  0.00    +0.002 C 
ATOM      5  C   UNL     1     -36.242  24.536   3.590  0.00  0.00    +0.000 C 
ATOM      6  C   UNL     1     -33.812  19.987   0.732  0.00  0.00    +0.000 C 
ATOM      7  C   UNL     1     -35.750  25.907   3.023  0.00  0.00    +0.005 C 
ATOM      8  C   UNL     1     -34.857  20.843   2.940  0.00  0.00    +0.000 C 
ATOM      9  C   UNL     1     -35.713  21.969   3.543  0.00  0.00    +0.000 C 
ATOM     10  C   UNL     1     -34.910  24.772   0.884  0.00  0.00    +0.110 C 
ATOM     11  C   UNL     1     -34.191  22.051  -0.564  0.00  0.00    +0.000 C 
ATOM     12  C   UNL     1     -33.667  20.608  -0.674  0.00  0.00    +0.000 C 
ATOM     13  C   UNL     1     -35.719  25.918   1.490  0.00  0.00    +0.029 C 
ATOM     14  C   UNL     1     -36.164  24.595   5.144  0.00  0.00    +0.002 C 
ATOM     15  C   UNL     1     -36.314  20.467   0.919  0.00  0.00    +0.000 C 
ATOM     16  C   UNL     1     -34.378  26.331   3.588  0.00  0.00    +0.029 C 
ATOM     17  C   UNL     1     -37.740  24.341   3.240  0.00  0.00    +0.000 C 
ATOM     18  C   UNL     1     -34.795  24.990   5.680  0.00  0.00    +0.029 C 
ATOM     19  C   UNL     1     -34.356  26.335   5.114  0.00  0.00    +0.111 C 
ENDROOT
BRANCH  10  20
ATOM     20  O   UNL     1     -35.095  24.820  -0.532  0.00  0.00    -0.384 OA
ATOM     21  H   UNL     1     -34.524  25.507  -0.909  0.00  0.00    +0.210 HD
ENDBRANCH  10  20
BRANCH  19  22
ATOM     22  O   UNL     1     -33.037  26.612   5.573  0.00  0.00    -0.384 OA
ATOM     23  H   UNL     1     -32.505  26.957   4.840  0.00  0.00    +0.210 HD
ENDBRANCH  19  22
BRANCH   6  24
ATOM     24  C   UNL     1     -34.070  18.487   0.693  0.00  0.00    +0.000 C 
ATOM     25  C   UNL     1     -32.823  17.728   1.158  0.00  0.00    +0.000 C 
BRANCH  24  26
ATOM     26  C   UNL     1     -34.514  18.062  -0.722  0.00  0.00    +0.010 C 
BRANCH  26  27
ATOM     27  C   UNL     1     -34.140  16.623  -1.079  0.00  0.00    +0.085 C 
BRANCH  27  30
ATOM     28  O   UNL     1     -35.608  15.014  -0.020  0.00  0.00    -0.275 OA
ATOM     29  N   UNL     1     -36.051  15.688  -2.200  0.00  0.00    -0.303 N 
ATOM     30  C   UNL     1     -35.331  15.681  -1.013  0.00  0.00    +0.223 C 
ATOM     31  H   UNL     1     -35.738  16.263  -2.935  0.00  0.00    +0.149 HD
BRANCH  29  32
ATOM     32  C   UNL     1     -37.237  14.889  -2.409  0.00  0.00    +0.115 C 
BRANCH  32  33
ATOM     33  C   UNL     1     -38.492  15.737  -2.481  0.00  0.00    +0.179 C 
BRANCH  33  34
ATOM     34  S   UNL     1     -39.106  16.165  -0.882  0.00  0.00    +0.024 S 
ATOM     35  O   UNL     1     -40.497  16.529  -1.146  0.00  0.00    -0.069 OA
ATOM     36  O   UNL     1     -38.927  14.932  -0.115  0.00  0.00    -0.069 OA
ATOM     37  O   UNL     1     -38.242  17.273  -0.479  0.00  0.00    -0.069 OA
ENDBRANCH  33  34
ENDBRANCH  32  33
ENDBRANCH  29  32
ENDBRANCH  27  30
ENDBRANCH  26  27
ENDBRANCH  24  26
ENDBRANCH   6  24
TORSDOF 9
ENDMDL
