MODEL 1
REMARK VINA RESULT:      -6.4      0.000      0.000
REMARK  Name = 5459239
REMARK  4 active torsions:
REMARK  status: ('A' for Active; 'I' for Inactive)
REMARK    1  A    between atoms: C_7  and  C_21
REMARK    2  A    between atoms: C_8  and  C_25
REMARK    3  A    between atoms: C_21  and  C_23
REMARK    4  A    between atoms: C_25  and  C_27
REMARK                            x       y       z     vdW  Elec       q    Type
REMARK                         _______ _______ _______ _____ _____    ______ ____
ROOT
ATOM      1  O   UNL     1     -37.600  25.044   1.618  0.00  0.00    -0.449 OA
ATOM      2  O   UNL     1     -34.015  27.375   4.883  0.00  0.00    -0.449 OA
ATOM      3  O   UNL     1     -34.776  23.785   3.272  0.00  0.00    -0.291 OA
ATOM      4  O   UNL     1     -35.498  29.346   2.745  0.00  0.00    -0.291 OA
ATOM      5  O   UNL     1     -35.894  25.079   0.057  0.00  0.00    -0.245 OA
ATOM      6  O   UNL     1     -33.326  25.173   5.039  0.00  0.00    -0.245 OA
ATOM      7  C   UNL     1     -38.030  23.723   1.236  0.00  0.00    +0.177 C 
ATOM      8  C   UNL     1     -32.670  27.854   4.670  0.00  0.00    +0.177 C 
ATOM      9  C   UNL     1     -37.127  22.635   1.851  0.00  0.00    +0.052 C 
ATOM     10  C   UNL     1     -32.732  29.153   3.848  0.00  0.00    +0.052 C 
ATOM     11  C   UNL     1     -36.920  22.720   3.368  0.00  0.00    +0.073 C 
ATOM     12  C   UNL     1     -33.159  28.926   2.395  0.00  0.00    +0.073 C 
ATOM     13  C   UNL     1     -35.904  23.780   3.759  0.00  0.00    +0.173 C 
ATOM     14  C   UNL     1     -34.637  28.615   2.259  0.00  0.00    +0.173 C 
ATOM     15  C   UNL     1     -36.525  25.574   0.976  0.00  0.00    +0.341 C 
ATOM     16  C   UNL     1     -34.187  26.036   5.046  0.00  0.00    +0.341 C 
ATOM     17  C   UNL     1     -36.358  24.809   4.743  0.00  0.00    +0.044 C 
ATOM     18  C   UNL     1     -34.990  27.375   1.513  0.00  0.00    +0.044 C 
ATOM     19  C   UNL     1     -35.629  25.800   5.269  0.00  0.00    +0.085 C 
ATOM     20  C   UNL     1     -36.217  26.859   1.637  0.00  0.00    +0.085 C 
ENDROOT
BRANCH   7  21
ATOM     21  C   UNL     1     -39.485  23.584   1.672  0.00  0.00    +0.108 C 
BRANCH  21  23
ATOM     22  O   UNL     1     -39.711  24.751   3.776  0.00  0.00    -0.296 OA
ATOM     23  C   UNL     1     -39.930  24.721   2.567  0.00  0.00    +0.155 C 
ATOM     24  C   UNL     1     -40.675  25.841   1.885  0.00  0.00    +0.072 C 
ENDBRANCH  21  23
ENDBRANCH   7  21
BRANCH   8  25
ATOM     25  C   UNL     1     -32.033  28.112   6.032  0.00  0.00    +0.108 C 
BRANCH  25  27
ATOM     26  O   UNL     1     -29.783  27.755   5.226  0.00  0.00    -0.296 OA
ATOM     27  C   UNL     1     -30.552  28.408   5.929  0.00  0.00    +0.155 C 
ATOM     28  C   UNL     1     -30.056  29.570   6.750  0.00  0.00    +0.072 C 
ENDBRANCH  25  27
ENDBRANCH   8  25
TORSDOF 4
ENDMDL
MODEL 2
REMARK VINA RESULT:      -6.3      1.017      1.334
REMARK  Name = 5459239
REMARK  4 active torsions:
REMARK  status: ('A' for Active; 'I' for Inactive)
REMARK    1  A    between atoms: C_7  and  C_21
REMARK    2  A    between atoms: C_8  and  C_25
REMARK    3  A    between atoms: C_21  and  C_23
REMARK    4  A    between atoms: C_25  and  C_27
REMARK                            x       y       z     vdW  Elec       q    Type
REMARK                         _______ _______ _______ _____ _____    ______ ____
ROOT
ATOM      1  O   UNL     1     -37.458  24.826   1.528  0.00  0.00    -0.449 OA
ATOM      2  O   UNL     1     -34.050  27.353   4.837  0.00  0.00    -0.449 OA
ATOM      3  O   UNL     1     -34.665  23.694   3.321  0.00  0.00    -0.291 OA
ATOM      4  O   UNL     1     -35.503  29.215   2.583  0.00  0.00    -0.291 OA
ATOM      5  O   UNL     1     -35.697  24.853   0.028  0.00  0.00    -0.245 OA
ATOM      6  O   UNL     1     -33.313  25.175   5.090  0.00  0.00    -0.245 OA
ATOM      7  C   UNL     1     -37.841  23.482   1.175  0.00  0.00    +0.177 C 
ATOM      8  C   UNL     1     -32.710  27.859   4.655  0.00  0.00    +0.177 C 
ATOM      9  C   UNL     1     -36.934  22.438   1.857  0.00  0.00    +0.052 C 
ATOM     10  C   UNL     1     -32.774  29.128   3.788  0.00  0.00    +0.052 C 
ATOM     11  C   UNL     1     -36.784  22.578   3.377  0.00  0.00    +0.073 C 
ATOM     12  C   UNL     1     -33.143  28.844   2.329  0.00  0.00    +0.073 C 
ATOM     13  C   UNL     1     -35.808  23.676   3.768  0.00  0.00    +0.173 C 
ATOM     14  C   UNL     1     -34.608  28.490   2.152  0.00  0.00    +0.173 C 
ATOM     15  C   UNL     1     -36.373  25.361   0.906  0.00  0.00    +0.341 C 
ATOM     16  C   UNL     1     -34.195  26.016   5.039  0.00  0.00    +0.341 C 
ATOM     17  C   UNL     1     -36.323  24.724   4.700  0.00  0.00    +0.044 C 
ATOM     18  C   UNL     1     -34.903  27.218   1.436  0.00  0.00    +0.044 C 
ATOM     19  C   UNL     1     -35.637  25.750   5.218  0.00  0.00    +0.085 C 
ATOM     20  C   UNL     1     -36.121  26.675   1.535  0.00  0.00    +0.085 C 
ENDROOT
BRANCH   7  21
ATOM     21  C   UNL     1     -39.306  23.320   1.564  0.00  0.00    +0.108 C 
BRANCH  21  23
ATOM     22  O   UNL     1     -40.418  21.181   1.737  0.00  0.00    -0.296 OA
ATOM     23  C   UNL     1     -39.910  22.042   1.021  0.00  0.00    +0.155 C 
ATOM     24  C   UNL     1     -39.853  21.873  -0.476  0.00  0.00    +0.072 C 
ENDBRANCH  21  23
ENDBRANCH   7  21
BRANCH   8  25
ATOM     25  C   UNL     1     -32.129  28.178   6.029  0.00  0.00    +0.108 C 
BRANCH  25  27
ATOM     26  O   UNL     1     -29.851  27.749   5.347  0.00  0.00    -0.296 OA
ATOM     27  C   UNL     1     -30.641  28.450   5.976  0.00  0.00    +0.155 C 
ATOM     28  C   UNL     1     -30.166  29.651   6.752  0.00  0.00    +0.072 C 
ENDBRANCH  25  27
ENDBRANCH   8  25
TORSDOF 4
ENDMDL
MODEL 3
REMARK VINA RESULT:      -6.3      4.085      6.718
REMARK  Name = 5459239
REMARK  4 active torsions:
REMARK  status: ('A' for Active; 'I' for Inactive)
REMARK    1  A    between atoms: C_7  and  C_21
REMARK    2  A    between atoms: C_8  and  C_25
REMARK    3  A    between atoms: C_21  and  C_23
REMARK    4  A    between atoms: C_25  and  C_27
REMARK                            x       y       z     vdW  Elec       q    Type
REMARK                         _______ _______ _______ _____ _____    ______ ____
ROOT
ATOM      1  O   UNL     1     -36.727  18.965  -0.181  0.00  0.00    -0.449 OA
ATOM      2  O   UNL     1     -37.020  22.976   3.393  0.00  0.00    -0.449 OA
ATOM      3  O   UNL     1     -34.538  21.602   0.562  0.00  0.00    -0.291 OA
ATOM      4  O   UNL     1     -39.871  21.761   2.367  0.00  0.00    -0.291 OA
ATOM      5  O   UNL     1     -37.168  20.607  -1.751  0.00  0.00    -0.245 OA
ATOM      6  O   UNL     1     -34.876  23.310   2.592  0.00  0.00    -0.245 OA
ATOM      7  C   UNL     1     -35.746  18.319  -1.017  0.00  0.00    +0.177 C 
ATOM      8  C   UNL     1     -37.361  24.373   3.265  0.00  0.00    +0.177 C 
ATOM      9  C   UNL     1     -34.393  19.055  -0.975  0.00  0.00    +0.052 C 
ATOM     10  C   UNL     1     -38.878  24.493   3.038  0.00  0.00    +0.052 C 
ATOM     11  C   UNL     1     -33.822  19.320   0.424  0.00  0.00    +0.073 C 
ATOM     12  C   UNL     1     -39.324  23.991   1.662  0.00  0.00    +0.073 C 
ATOM     13  C   UNL     1     -34.484  20.504   1.109  0.00  0.00    +0.173 C 
ATOM     14  C   UNL     1     -39.295  22.478   1.552  0.00  0.00    +0.173 C 
ATOM     15  C   UNL     1     -37.324  20.091  -0.656  0.00  0.00    +0.341 C 
ATOM     16  C   UNL     1     -35.767  22.598   3.024  0.00  0.00    +0.341 C 
ATOM     17  C   UNL     1     -35.072  20.251   2.459  0.00  0.00    +0.044 C 
ATOM     18  C   UNL     1     -38.527  21.909   0.409  0.00  0.00    +0.044 C 
ATOM     19  C   UNL     1     -35.655  21.144   3.267  0.00  0.00    +0.085 C 
ATOM     20  C   UNL     1     -38.174  20.620   0.431  0.00  0.00    +0.085 C 
ENDROOT
BRANCH   7  21
ATOM     21  C   UNL     1     -35.636  16.875  -0.540  0.00  0.00    +0.108 C 
BRANCH  21  23
ATOM     22  O   UNL     1     -37.519  15.646   0.347  0.00  0.00    -0.296 OA
ATOM     23  C   UNL     1     -36.955  16.135  -0.630  0.00  0.00    +0.155 C 
ATOM     24  C   UNL     1     -37.553  16.025  -2.009  0.00  0.00    +0.072 C 
ENDBRANCH  21  23
ENDBRANCH   7  21
BRANCH   8  25
ATOM     25  C   UNL     1     -36.953  25.084   4.551  0.00  0.00    +0.108 C 
BRANCH  25  27
ATOM     26  O   UNL     1     -35.195  26.612   5.197  0.00  0.00    -0.296 OA
ATOM     27  C   UNL     1     -35.916  26.161   4.309  0.00  0.00    +0.155 C 
ATOM     28  C   UNL     1     -35.811  26.664   2.893  0.00  0.00    +0.072 C 
ENDBRANCH  25  27
ENDBRANCH   8  25
TORSDOF 4
ENDMDL
MODEL 4
REMARK VINA RESULT:      -6.2      2.487      6.928
REMARK  Name = 5459239
REMARK  4 active torsions:
REMARK  status: ('A' for Active; 'I' for Inactive)
REMARK    1  A    between atoms: C_7  and  C_21
REMARK    2  A    between atoms: C_8  and  C_25
REMARK    3  A    between atoms: C_21  and  C_23
REMARK    4  A    between atoms: C_25  and  C_27
REMARK                            x       y       z     vdW  Elec       q    Type
REMARK                         _______ _______ _______ _____ _____    ______ ____
ROOT
ATOM      1  O   UNL     1     -33.565  28.556   3.563  0.00  0.00    -0.449 OA
ATOM      2  O   UNL     1     -35.789  23.747   2.626  0.00  0.00    -0.449 OA
ATOM      3  O   UNL     1     -32.643  25.927   1.434  0.00  0.00    -0.291 OA
ATOM      4  O   UNL     1     -36.370  25.045   5.564  0.00  0.00    -0.291 OA
ATOM      5  O   UNL     1     -31.952  27.357   4.710  0.00  0.00    -0.245 OA
ATOM      6  O   UNL     1     -34.123  23.737   1.021  0.00  0.00    -0.245 OA
ATOM      7  C   UNL     1     -32.597  29.444   2.971  0.00  0.00    +0.177 C 
ATOM      8  C   UNL     1     -35.459  22.416   3.077  0.00  0.00    +0.177 C 
ATOM      9  C   UNL     1     -31.890  28.789   1.767  0.00  0.00    +0.052 C 
ATOM     10  C   UNL     1     -35.851  22.284   4.558  0.00  0.00    +0.052 C 
ATOM     11  C   UNL     1     -32.813  28.199   0.693  0.00  0.00    +0.073 C 
ATOM     12  C   UNL     1     -34.958  23.103   5.494  0.00  0.00    +0.073 C 
ATOM     13  C   UNL     1     -33.382  26.847   1.092  0.00  0.00    +0.173 C 
ATOM     14  C   UNL     1     -35.237  24.592   5.417  0.00  0.00    +0.173 C 
ATOM     15  C   UNL     1     -33.106  27.564   4.372  0.00  0.00    +0.341 C 
ATOM     16  C   UNL     1     -35.048  24.269   1.611  0.00  0.00    +0.341 C 
ATOM     17  C   UNL     1     -34.870  26.713   1.060  0.00  0.00    +0.044 C 
ATOM     18  C   UNL     1     -34.067  25.475   5.148  0.00  0.00    +0.044 C 
ATOM     19  C   UNL     1     -35.587  25.613   1.318  0.00  0.00    +0.085 C 
ATOM     20  C   UNL     1     -34.271  26.730   4.736  0.00  0.00    +0.085 C 
ENDROOT
BRANCH   7  21
ATOM     21  C   UNL     1     -33.339  30.719   2.584  0.00  0.00    +0.108 C 
BRANCH  21  23
ATOM     22  O   UNL     1     -35.258  30.949   4.034  0.00  0.00    -0.296 OA
ATOM     23  C   UNL     1     -34.813  30.655   2.927  0.00  0.00    +0.155 C 
ATOM     24  C   UNL     1     -35.726  30.199   1.818  0.00  0.00    +0.072 C 
ENDBRANCH  21  23
ENDBRANCH   7  21
BRANCH   8  25
ATOM     25  C   UNL     1     -36.235  21.417   2.225  0.00  0.00    +0.108 C 
BRANCH  25  27
ATOM     26  O   UNL     1     -34.459  19.808   2.540  0.00  0.00    -0.296 OA
ATOM     27  C   UNL     1     -35.406  20.202   1.863  0.00  0.00    +0.155 C 
ATOM     28  C   UNL     1     -35.811  19.485   0.602  0.00  0.00    +0.072 C 
ENDBRANCH  25  27
ENDBRANCH   8  25
TORSDOF 4
ENDMDL
MODEL 5
REMARK VINA RESULT:      -6.2      2.404      4.998
REMARK  Name = 5459239
REMARK  4 active torsions:
REMARK  status: ('A' for Active; 'I' for Inactive)
REMARK    1  A    between atoms: C_7  and  C_21
REMARK    2  A    between atoms: C_8  and  C_25
REMARK    3  A    between atoms: C_21  and  C_23
REMARK    4  A    between atoms: C_25  and  C_27
REMARK                            x       y       z     vdW  Elec       q    Type
REMARK                         _______ _______ _______ _____ _____    ______ ____
ROOT
ATOM      1  O   UNL     1     -34.394  24.938   4.702  0.00  0.00    -0.449 OA
ATOM      2  O   UNL     1     -31.702  29.386   3.320  0.00  0.00    -0.449 OA
ATOM      3  O   UNL     1     -35.389  27.843   3.009  0.00  0.00    -0.291 OA
ATOM      4  O   UNL     1     -30.571  27.780   5.926  0.00  0.00    -0.291 OA
ATOM      5  O   UNL     1     -35.389  26.284   6.299  0.00  0.00    -0.245 OA
ATOM      6  O   UNL     1     -33.718  29.793   2.259  0.00  0.00    -0.245 OA
ATOM      7  C   UNL     1     -35.630  24.267   4.383  0.00  0.00    +0.177 C 
ATOM      8  C   UNL     1     -31.654  30.713   3.888  0.00  0.00    +0.177 C 
ATOM      9  C   UNL     1     -36.514  25.122   3.453  0.00  0.00    +0.052 C 
ATOM     10  C   UNL     1     -30.851  30.661   5.199  0.00  0.00    +0.052 C 
ATOM     11  C   UNL     1     -35.835  25.640   2.180  0.00  0.00    +0.073 C 
ATOM     12  C   UNL     1     -31.581  29.923   6.324  0.00  0.00    +0.073 C 
ATOM     13  C   UNL     1     -34.948  26.847   2.441  0.00  0.00    +0.173 C 
ATOM     14  C   UNL     1     -31.602  28.419   6.124  0.00  0.00    +0.173 C 
ATOM     15  C   UNL     1     -34.429  25.922   5.639  0.00  0.00    +0.341 C 
ATOM     16  C   UNL     1     -32.775  29.074   2.544  0.00  0.00    +0.341 C 
ATOM     17  C   UNL     1     -33.528  26.742   1.990  0.00  0.00    +0.044 C 
ATOM     18  C   UNL     1     -32.937  27.761   6.173  0.00  0.00    +0.044 C 
ATOM     19  C   UNL     1     -32.584  27.688   2.066  0.00  0.00    +0.085 C 
ATOM     20  C   UNL     1     -33.080  26.526   5.680  0.00  0.00    +0.085 C 
ENDROOT
BRANCH   7  21
ATOM     21  C   UNL     1     -35.261  22.925   3.761  0.00  0.00    +0.108 C 
BRANCH  21  23
ATOM     22  O   UNL     1     -35.097  20.620   4.468  0.00  0.00    -0.296 OA
ATOM     23  C   UNL     1     -35.261  21.800   4.773  0.00  0.00    +0.155 C 
ATOM     24  C   UNL     1     -35.480  22.207   6.208  0.00  0.00    +0.072 C 
ENDBRANCH  21  23
ENDBRANCH   7  21
BRANCH   8  25
ATOM     25  C   UNL     1     -30.979  31.640   2.882  0.00  0.00    +0.108 C 
BRANCH  25  27
ATOM     26  O   UNL     1     -31.061  33.995   3.418  0.00  0.00    -0.296 OA
ATOM     27  C   UNL     1     -31.589  33.026   2.877  0.00  0.00    +0.155 C 
ATOM     28  C   UNL     1     -32.906  33.160   2.157  0.00  0.00    +0.072 C 
ENDBRANCH  25  27
ENDBRANCH   8  25
TORSDOF 4
ENDMDL
MODEL 6
REMARK VINA RESULT:      -6.1      1.790      3.969
REMARK  Name = 5459239
REMARK  4 active torsions:
REMARK  status: ('A' for Active; 'I' for Inactive)
REMARK    1  A    between atoms: C_7  and  C_21
REMARK    2  A    between atoms: C_8  and  C_25
REMARK    3  A    between atoms: C_21  and  C_23
REMARK    4  A    between atoms: C_25  and  C_27
REMARK                            x       y       z     vdW  Elec       q    Type
REMARK                         _______ _______ _______ _____ _____    ______ ____
ROOT
ATOM      1  O   UNL     1     -38.528  23.821   1.823  0.00  0.00    -0.449 OA
ATOM      2  O   UNL     1     -34.115  26.637   3.062  0.00  0.00    -0.449 OA
ATOM      3  O   UNL     1     -37.813  27.248   1.642  0.00  0.00    -0.291 OA
ATOM      4  O   UNL     1     -34.523  23.830   4.678  0.00  0.00    -0.291 OA
ATOM      5  O   UNL     1     -39.410  24.747   3.750  0.00  0.00    -0.245 OA
ATOM      6  O   UNL     1     -35.402  28.308   2.114  0.00  0.00    -0.245 OA
ATOM      7  C   UNL     1     -39.756  23.986   1.087  0.00  0.00    +0.177 C 
ATOM      8  C   UNL     1     -33.767  27.453   4.200  0.00  0.00    +0.177 C 
ATOM      9  C   UNL     1     -39.930  25.435   0.593  0.00  0.00    +0.052 C 
ATOM     10  C   UNL     1     -33.491  26.535   5.403  0.00  0.00    +0.052 C 
ATOM     11  C   UNL     1     -38.747  26.018  -0.189  0.00  0.00    +0.073 C 
ATOM     12  C   UNL     1     -34.753  25.858   5.946  0.00  0.00    +0.073 C 
ATOM     13  C   UNL     1     -37.612  26.466   0.717  0.00  0.00    +0.173 C 
ATOM     14  C   UNL     1     -35.256  24.746   5.045  0.00  0.00    +0.173 C 
ATOM     15  C   UNL     1     -38.493  24.263   3.109  0.00  0.00    +0.341 C 
ATOM     16  C   UNL     1     -34.926  27.186   2.118  0.00  0.00    +0.341 C 
ATOM     17  C   UNL     1     -36.262  25.891   0.431  0.00  0.00    +0.044 C 
ATOM     18  C   UNL     1     -36.683  24.826   4.623  0.00  0.00    +0.044 C 
ATOM     19  C   UNL     1     -35.114  26.175   1.057  0.00  0.00    +0.085 C 
ATOM     20  C   UNL     1     -37.103  24.098   3.584  0.00  0.00    +0.085 C 
ENDROOT
BRANCH   7  21
ATOM     21  C   UNL     1     -39.727  22.981  -0.060  0.00  0.00    +0.108 C 
BRANCH  21  23
ATOM     22  O   UNL     1     -40.438  20.999   1.124  0.00  0.00    -0.296 OA
ATOM     23  C   UNL     1     -39.592  21.554   0.426  0.00  0.00    +0.155 C 
ATOM     24  C   UNL     1     -38.339  20.831   0.003  0.00  0.00    +0.072 C 
ENDBRANCH  21  23
ENDBRANCH   7  21
BRANCH   8  25
ATOM     25  C   UNL     1     -32.523  28.262   3.847  0.00  0.00    +0.108 C 
BRANCH  25  27
ATOM     26  O   UNL     1     -33.319  30.524   4.143  0.00  0.00    -0.296 OA
ATOM     27  C   UNL     1     -32.533  29.640   4.475  0.00  0.00    +0.155 C 
ATOM     28  C   UNL     1     -31.508  29.876   5.553  0.00  0.00    +0.072 C 
ENDBRANCH  25  27
ENDBRANCH   8  25
TORSDOF 4
ENDMDL
MODEL 7
REMARK VINA RESULT:      -6.0      3.929      6.391
REMARK  Name = 5459239
REMARK  4 active torsions:
REMARK  status: ('A' for Active; 'I' for Inactive)
REMARK    1  A    between atoms: C_7  and  C_21
REMARK    2  A    between atoms: C_8  and  C_25
REMARK    3  A    between atoms: C_21  and  C_23
REMARK    4  A    between atoms: C_25  and  C_27
REMARK                            x       y       z     vdW  Elec       q    Type
REMARK                         _______ _______ _______ _____ _____    ______ ____
ROOT
ATOM      1  O   UNL     1     -40.373  26.469   1.971  0.00  0.00    -0.449 OA
ATOM      2  O   UNL     1     -37.305  22.083   2.510  0.00  0.00    -0.449 OA
ATOM      3  O   UNL     1     -39.110  24.194  -0.379  0.00  0.00    -0.291 OA
ATOM      4  O   UNL     1     -36.974  24.355   4.830  0.00  0.00    -0.291 OA
ATOM      5  O   UNL     1     -38.461  27.450   1.115  0.00  0.00    -0.245 OA
ATOM      6  O   UNL     1     -37.799  21.950   0.254  0.00  0.00    -0.245 OA
ATOM      7  C   UNL     1     -41.226  27.089   0.989  0.00  0.00    +0.177 C 
ATOM      8  C   UNL     1     -35.898  21.844   2.288  0.00  0.00    +0.177 C 
ATOM      9  C   UNL     1     -41.166  26.348  -0.361  0.00  0.00    +0.052 C 
ATOM     10  C   UNL     1     -35.098  22.515   3.416  0.00  0.00    +0.052 C 
ATOM     11  C   UNL     1     -41.417  24.836  -0.303  0.00  0.00    +0.073 C 
ATOM     12  C   UNL     1     -35.115  24.044   3.341  0.00  0.00    +0.073 C 
ATOM     13  C   UNL     1     -40.199  24.061   0.173  0.00  0.00    +0.173 C 
ATOM     14  C   UNL     1     -36.448  24.637   3.755  0.00  0.00    +0.173 C 
ATOM     15  C   UNL     1     -39.037  26.712   1.897  0.00  0.00    +0.341 C 
ATOM     16  C   UNL     1     -38.118  22.110   1.420  0.00  0.00    +0.341 C 
ATOM     17  C   UNL     1     -40.400  23.157   1.345  0.00  0.00    +0.044 C 
ATOM     18  C   UNL     1     -37.089  25.573   2.789  0.00  0.00    +0.044 C 
ATOM     19  C   UNL     1     -39.495  22.345   1.903  0.00  0.00    +0.085 C 
ATOM     20  C   UNL     1     -38.387  25.866   2.919  0.00  0.00    +0.085 C 
ENDROOT
BRANCH   7  21
ATOM     21  C   UNL     1     -42.634  27.115   1.574  0.00  0.00    +0.108 C 
BRANCH  21  23
ATOM     22  O   UNL     1     -42.191  29.028   2.983  0.00  0.00    -0.296 OA
ATOM     23  C   UNL     1     -42.712  27.922   2.853  0.00  0.00    +0.155 C 
ATOM     24  C   UNL     1     -43.477  27.286   3.986  0.00  0.00    +0.072 C 
ENDBRANCH  21  23
ENDBRANCH   7  21
BRANCH   8  25
ATOM     25  C   UNL     1     -35.664  20.336   2.288  0.00  0.00    +0.108 C 
BRANCH  25  27
ATOM     26  O   UNL     1     -35.021  20.147  -0.034  0.00  0.00    -0.296 OA
ATOM     27  C   UNL     1     -34.778  19.891   1.143  0.00  0.00    +0.155 C 
ATOM     28  C   UNL     1     -33.556  19.100   1.529  0.00  0.00    +0.072 C 
ENDBRANCH  25  27
ENDBRANCH   8  25
TORSDOF 4
ENDMDL
MODEL 8
REMARK VINA RESULT:      -5.9      3.072      5.735
REMARK  Name = 5459239
REMARK  4 active torsions:
REMARK  status: ('A' for Active; 'I' for Inactive)
REMARK    1  A    between atoms: C_7  and  C_21
REMARK    2  A    between atoms: C_8  and  C_25
REMARK    3  A    between atoms: C_21  and  C_23
REMARK    4  A    between atoms: C_25  and  C_27
REMARK                            x       y       z     vdW  Elec       q    Type
REMARK                         _______ _______ _______ _____ _____    ______ ____
ROOT
ATOM      1  O   UNL     1     -35.329  20.538   1.404  0.00  0.00    -0.449 OA
ATOM      2  O   UNL     1     -34.461  25.708   2.613  0.00  0.00    -0.449 OA
ATOM      3  O   UNL     1     -36.265  23.507  -0.209  0.00  0.00    -0.291 OA
ATOM      4  O   UNL     1     -34.483  23.633   5.133  0.00  0.00    -0.291 OA
ATOM      5  O   UNL     1     -37.501  20.958   2.078  0.00  0.00    -0.245 OA
ATOM      6  O   UNL     1     -35.454  25.944   0.537  0.00  0.00    -0.245 OA
ATOM      7  C   UNL     1     -35.748  19.735   0.283  0.00  0.00    +0.177 C 
ATOM      8  C   UNL     1     -35.297  26.724   3.206  0.00  0.00    +0.177 C 
ATOM      9  C   UNL     1     -36.197  20.611  -0.903  0.00  0.00    +0.052 C 
ATOM     10  C   UNL     1     -35.453  26.423   4.706  0.00  0.00    +0.052 C 
ATOM     11  C   UNL     1     -35.201  21.689  -1.350  0.00  0.00    +0.073 C 
ATOM     12  C   UNL     1     -36.310  25.186   4.987  0.00  0.00    +0.073 C 
ATOM     13  C   UNL     1     -35.218  22.910  -0.446  0.00  0.00    +0.173 C 
ATOM     14  C   UNL     1     -35.592  23.889   4.667  0.00  0.00    +0.173 C 
ATOM     15  C   UNL     1     -36.294  21.097   2.182  0.00  0.00    +0.341 C 
ATOM     16  C   UNL     1     -34.650  25.428   1.295  0.00  0.00    +0.341 C 
ATOM     17  C   UNL     1     -33.908  23.322   0.144  0.00  0.00    +0.044 C 
ATOM     18  C   UNL     1     -36.297  22.945   3.755  0.00  0.00    +0.044 C 
ATOM     19  C   UNL     1     -33.672  24.386   0.921  0.00  0.00    +0.085 C 
ATOM     20  C   UNL     1     -35.608  21.963   3.165  0.00  0.00    +0.085 C 
ENDROOT
BRANCH   7  21
ATOM     21  C   UNL     1     -34.577  18.827  -0.077  0.00  0.00    +0.108 C 
BRANCH  21  23
ATOM     22  O   UNL     1     -33.212  18.560   1.899  0.00  0.00    -0.296 OA
ATOM     23  C   UNL     1     -33.364  19.077   0.793  0.00  0.00    +0.155 C 
ATOM     24  C   UNL     1     -32.329  20.014   0.225  0.00  0.00    +0.072 C 
ENDBRANCH  21  23
ENDBRANCH   7  21
BRANCH   8  25
ATOM     25  C   UNL     1     -34.625  28.078   2.998  0.00  0.00    +0.108 C 
BRANCH  25  27
ATOM     26  O   UNL     1     -36.478  28.793   1.621  0.00  0.00    -0.296 OA
ATOM     27  C   UNL     1     -35.560  29.096   2.380  0.00  0.00    +0.155 C 
ATOM     28  C   UNL     1     -35.303  30.533   2.753  0.00  0.00    +0.072 C 
ENDBRANCH  25  27
ENDBRANCH   8  25
TORSDOF 4
ENDMDL
MODEL 9
REMARK VINA RESULT:      -5.8      1.901      7.765
REMARK  Name = 5459239
REMARK  4 active torsions:
REMARK  status: ('A' for Active; 'I' for Inactive)
REMARK    1  A    between atoms: C_7  and  C_21
REMARK    2  A    between atoms: C_8  and  C_25
REMARK    3  A    between atoms: C_21  and  C_23
REMARK    4  A    between atoms: C_25  and  C_27
REMARK                            x       y       z     vdW  Elec       q    Type
REMARK                         _______ _______ _______ _____ _____    ______ ____
ROOT
ATOM      1  O   UNL     1     -33.605  27.917   3.585  0.00  0.00    -0.449 OA
ATOM      2  O   UNL     1     -37.614  24.686   2.024  0.00  0.00    -0.449 OA
ATOM      3  O   UNL     1     -34.617  26.807   0.416  0.00  0.00    -0.291 OA
ATOM      4  O   UNL     1     -36.490  24.212   5.052  0.00  0.00    -0.291 OA
ATOM      5  O   UNL     1     -32.237  26.120   3.085  0.00  0.00    -0.245 OA
ATOM      6  O   UNL     1     -36.832  25.378  -0.040  0.00  0.00    -0.245 OA
ATOM      7  C   UNL     1     -32.690  28.873   3.015  0.00  0.00    +0.177 C 
ATOM      8  C   UNL     1     -37.649  23.299   1.624  0.00  0.00    +0.177 C 
ATOM      9  C   UNL     1     -32.800  28.915   1.478  0.00  0.00    +0.052 C 
ATOM     10  C   UNL     1     -37.455  22.419   2.870  0.00  0.00    +0.052 C 
ATOM     11  C   UNL     1     -34.213  29.115   0.916  0.00  0.00    +0.073 C 
ATOM     12  C   UNL     1     -36.036  22.488   3.442  0.00  0.00    +0.073 C 
ATOM     13  C   UNL     1     -35.036  27.837   0.937  0.00  0.00    +0.173 C 
ATOM     14  C   UNL     1     -35.755  23.795   4.159  0.00  0.00    +0.173 C 
ATOM     15  C   UNL     1     -33.268  26.601   3.526  0.00  0.00    +0.341 C 
ATOM     16  C   UNL     1     -37.190  25.595   1.106  0.00  0.00    +0.341 C 
ATOM     17  C   UNL     1     -36.355  27.904   1.636  0.00  0.00    +0.044 C 
ATOM     18  C   UNL     1     -34.546  24.547   3.721  0.00  0.00    +0.044 C 
ATOM     19  C   UNL     1     -37.265  26.929   1.737  0.00  0.00    +0.085 C 
ATOM     20  C   UNL     1     -34.418  25.836   4.052  0.00  0.00    +0.085 C 
ENDROOT
BRANCH   7  21
ATOM     21  C   UNL     1     -33.000  30.222   3.655  0.00  0.00    +0.108 C 
BRANCH  21  23
ATOM     22  O   UNL     1     -32.362  30.031   5.978  0.00  0.00    -0.296 OA
ATOM     23  C   UNL     1     -32.133  30.499   4.865  0.00  0.00    +0.155 C 
ATOM     24  C   UNL     1     -30.947  31.401   4.631  0.00  0.00    +0.072 C 
ENDBRANCH  21  23
ENDBRANCH   7  21
BRANCH   8  25
ATOM     25  C   UNL     1     -39.002  23.022   0.977  0.00  0.00    +0.108 C 
BRANCH  25  27
ATOM     26  O   UNL     1     -40.307  21.123   1.705  0.00  0.00    -0.296 OA
ATOM     27  C   UNL     1     -39.376  21.556   1.029  0.00  0.00    +0.155 C 
ATOM     28  C   UNL     1     -38.530  20.633   0.191  0.00  0.00    +0.072 C 
ENDBRANCH  25  27
ENDBRANCH   8  25
TORSDOF 4
ENDMDL
