MODEL 1
REMARK VINA RESULT:      -6.2      0.000      0.000
REMARK  Name = 189849
REMARK  11 active torsions:
REMARK  status: ('A' for Active; 'I' for Inactive)
REMARK    1  A    between atoms: C_1  and  N_3
REMARK    2  A    between atoms: C_1  and  C_16
REMARK    3  A    between atoms: C_4  and  C_6
REMARK    4  A    between atoms: C_6  and  S_7
REMARK    5  A    between atoms: S_7  and  C_9
REMARK    6  A    between atoms: C_9  and  C_10
REMARK    7  A    between atoms: C_16  and  N_18
REMARK    8  A    between atoms: C_19  and  C_21
REMARK    9  A    between atoms: C_21  and  S_22
REMARK   10  A    between atoms: S_22  and  C_24
REMARK   11  A    between atoms: C_24  and  C_25
REMARK                            x       y       z     vdW  Elec       q    Type
REMARK                         _______ _______ _______ _____ _____    ______ ____
ROOT
ATOM      1  C   UNL     1     -34.664  25.898   5.815  0.00  0.00    +0.111 C 
ENDROOT
BRANCH   1   3
ATOM      2  O   UNL     1     -32.197  27.280   6.431  0.00  0.00    -0.274 OA
ATOM      3  N   UNL     1     -33.890  26.740   4.933  0.00  0.00    -0.302 N 
ATOM      4  C   UNL     1     -32.714  27.363   5.318  0.00  0.00    +0.234 C 
ATOM      5  H   UNL     1     -34.212  26.877   4.013  0.00  0.00    +0.150 HD
BRANCH   4   6
ATOM      6  C   UNL     1     -32.104  28.202   4.220  0.00  0.00    +0.150 C 
BRANCH   6   7
ATOM      7  S   UNL     1     -33.417  28.753   3.105  0.00  0.00    -0.063 S 
BRANCH   7   9
ATOM      8  O   UNL     1     -33.177  30.814   4.719  0.00  0.00    -0.280 OA
ATOM      9  C   UNL     1     -33.635  30.413   3.656  0.00  0.00    +0.222 C 
BRANCH   9  10
ATOM     10  C   UNL     1     -34.439  31.320   2.798  0.00  0.00    +0.045 C 
ATOM     11  C   UNL     1     -35.785  31.043   2.559  0.00  0.00    +0.004 C 
ATOM     12  C   UNL     1     -33.848  32.449   2.230  0.00  0.00    +0.004 C 
ATOM     13  C   UNL     1     -36.540  31.894   1.753  0.00  0.00    +0.000 C 
ATOM     14  C   UNL     1     -34.603  33.301   1.424  0.00  0.00    +0.000 C 
ATOM     15  C   UNL     1     -35.949  33.024   1.186  0.00  0.00    +0.000 C 
ENDBRANCH   9  10
ENDBRANCH   7   9
ENDBRANCH   6   7
ENDBRANCH   4   6
ENDBRANCH   1   3
BRANCH   1  16
ATOM     16  C   UNL     1     -36.131  25.853   5.423  0.00  0.00    +0.111 C 
BRANCH  16  18
ATOM     17  O   UNL     1     -35.892  25.001   2.667  0.00  0.00    -0.274 OA
ATOM     18  N   UNL     1     -36.503  24.579   4.870  0.00  0.00    -0.302 N 
ATOM     19  C   UNL     1     -36.352  24.254   3.528  0.00  0.00    +0.234 C 
ATOM     20  H   UNL     1     -36.883  23.901   5.474  0.00  0.00    +0.150 HD
BRANCH  19  21
ATOM     21  C   UNL     1     -36.833  22.861   3.195  0.00  0.00    +0.150 C 
BRANCH  21  22
ATOM     22  S   UNL     1     -36.289  22.435   1.524  0.00  0.00    -0.063 S 
BRANCH  22  24
ATOM     23  O   UNL     1     -36.371  19.957   2.399  0.00  0.00    -0.280 OA
ATOM     24  C   UNL     1     -35.718  20.788   1.778  0.00  0.00    +0.222 C 
BRANCH  24  25
ATOM     25  C   UNL     1     -34.378  20.436   1.243  0.00  0.00    +0.045 C 
ATOM     26  C   UNL     1     -33.797  19.210   1.567  0.00  0.00    +0.004 C 
ATOM     27  C   UNL     1     -33.701  21.333   0.416  0.00  0.00    +0.004 C 
ATOM     28  C   UNL     1     -32.538  18.880   1.063  0.00  0.00    +0.000 C 
ATOM     29  C   UNL     1     -32.442  21.003  -0.087  0.00  0.00    +0.000 C 
ATOM     30  C   UNL     1     -31.861  19.776   0.237  0.00  0.00    +0.000 C 
ENDBRANCH  24  25
ENDBRANCH  22  24
ENDBRANCH  21  22
ENDBRANCH  19  21
ENDBRANCH  16  18
ENDBRANCH   1  16
TORSDOF 11
ENDMDL
MODEL 2
REMARK VINA RESULT:      -6.1      6.432      8.035
REMARK  Name = 189849
REMARK  11 active torsions:
REMARK  status: ('A' for Active; 'I' for Inactive)
REMARK    1  A    between atoms: C_1  and  N_3
REMARK    2  A    between atoms: C_1  and  C_16
REMARK    3  A    between atoms: C_4  and  C_6
REMARK    4  A    between atoms: C_6  and  S_7
REMARK    5  A    between atoms: S_7  and  C_9
REMARK    6  A    between atoms: C_9  and  C_10
REMARK    7  A    between atoms: C_16  and  N_18
REMARK    8  A    between atoms: C_19  and  C_21
REMARK    9  A    between atoms: C_21  and  S_22
REMARK   10  A    between atoms: S_22  and  C_24
REMARK   11  A    between atoms: C_24  and  C_25
REMARK                            x       y       z     vdW  Elec       q    Type
REMARK                         _______ _______ _______ _____ _____    ______ ____
ROOT
ATOM      1  C   UNL     1     -40.204  26.242   2.776  0.00  0.00    +0.111 C 
ENDROOT
BRANCH   1   3
ATOM      2  O   UNL     1     -41.709  28.070   4.440  0.00  0.00    -0.274 OA
ATOM      3  N   UNL     1     -41.635  26.270   2.972  0.00  0.00    -0.302 N 
ATOM      4  C   UNL     1     -42.270  27.188   3.793  0.00  0.00    +0.234 C 
ATOM      5  H   UNL     1     -42.186  25.605   2.499  0.00  0.00    +0.150 HD
BRANCH   4   6
ATOM      6  C   UNL     1     -43.767  26.997   3.843  0.00  0.00    +0.150 C 
BRANCH   6   7
ATOM      7  S   UNL     1     -44.571  28.510   3.265  0.00  0.00    -0.063 S 
BRANCH   7   9
ATOM      8  O   UNL     1     -46.904  28.612   4.473  0.00  0.00    -0.280 OA
ATOM      9  C   UNL     1     -45.700  28.803   4.587  0.00  0.00    +0.222 C 
BRANCH   9  10
ATOM     10  C   UNL     1     -45.144  29.334   5.857  0.00  0.00    +0.045 C 
ATOM     11  C   UNL     1     -45.648  28.889   7.079  0.00  0.00    +0.004 C 
ATOM     12  C   UNL     1     -44.117  30.279   5.829  0.00  0.00    +0.004 C 
ATOM     13  C   UNL     1     -45.126  29.388   8.272  0.00  0.00    +0.000 C 
ATOM     14  C   UNL     1     -43.596  30.778   7.022  0.00  0.00    +0.000 C 
ATOM     15  C   UNL     1     -44.099  30.333   8.244  0.00  0.00    +0.000 C 
ENDBRANCH   9  10
ENDBRANCH   7   9
ENDBRANCH   6   7
ENDBRANCH   4   6
ENDBRANCH   1   3
BRANCH   1  16
ATOM     16  C   UNL     1     -39.599  24.900   3.152  0.00  0.00    +0.111 C 
BRANCH  16  18
ATOM     17  O   UNL     1     -36.889  25.684   2.502  0.00  0.00    -0.274 OA
ATOM     18  N   UNL     1     -38.493  25.042   4.059  0.00  0.00    -0.302 N 
ATOM     19  C   UNL     1     -37.219  25.425   3.658  0.00  0.00    +0.234 C 
ATOM     20  H   UNL     1     -38.646  24.860   5.014  0.00  0.00    +0.150 HD
BRANCH  19  21
ATOM     21  C   UNL     1     -36.229  25.485   4.798  0.00  0.00    +0.150 C 
BRANCH  21  22
ATOM     22  S   UNL     1     -34.876  24.334   4.463  0.00  0.00    -0.063 S 
BRANCH  22  24
ATOM     23  O   UNL     1     -36.044  22.400   5.808  0.00  0.00    -0.280 OA
ATOM     24  C   UNL     1     -35.696  22.792   4.700  0.00  0.00    +0.222 C 
BRANCH  24  25
ATOM     25  C   UNL     1     -35.923  21.944   3.502  0.00  0.00    +0.045 C 
ATOM     26  C   UNL     1     -34.997  20.958   3.159  0.00  0.00    +0.004 C 
ATOM     27  C   UNL     1     -37.063  22.134   2.720  0.00  0.00    +0.004 C 
ATOM     28  C   UNL     1     -35.212  20.161   2.034  0.00  0.00    +0.000 C 
ATOM     29  C   UNL     1     -37.277  21.338   1.594  0.00  0.00    +0.000 C 
ATOM     30  C   UNL     1     -36.351  20.352   1.251  0.00  0.00    +0.000 C 
ENDBRANCH  24  25
ENDBRANCH  22  24
ENDBRANCH  21  22
ENDBRANCH  19  21
ENDBRANCH  16  18
ENDBRANCH   1  16
TORSDOF 11
ENDMDL
MODEL 3
REMARK VINA RESULT:      -6.1      2.642      3.344
REMARK  Name = 189849
REMARK  11 active torsions:
REMARK  status: ('A' for Active; 'I' for Inactive)
REMARK    1  A    between atoms: C_1  and  N_3
REMARK    2  A    between atoms: C_1  and  C_16
REMARK    3  A    between atoms: C_4  and  C_6
REMARK    4  A    between atoms: C_6  and  S_7
REMARK    5  A    between atoms: S_7  and  C_9
REMARK    6  A    between atoms: C_9  and  C_10
REMARK    7  A    between atoms: C_16  and  N_18
REMARK    8  A    between atoms: C_19  and  C_21
REMARK    9  A    between atoms: C_21  and  S_22
REMARK   10  A    between atoms: S_22  and  C_24
REMARK   11  A    between atoms: C_24  and  C_25
REMARK                            x       y       z     vdW  Elec       q    Type
REMARK                         _______ _______ _______ _____ _____    ______ ____
ROOT
ATOM      1  C   UNL     1     -35.509  26.074   4.663  0.00  0.00    +0.111 C 
ENDROOT
BRANCH   1   3
ATOM      2  O   UNL     1     -35.716  27.963   2.481  0.00  0.00    -0.274 OA
ATOM      3  N   UNL     1     -34.661  26.159   3.496  0.00  0.00    -0.302 N 
ATOM      4  C   UNL     1     -34.838  27.102   2.498  0.00  0.00    +0.234 C 
ATOM      5  H   UNL     1     -33.921  25.516   3.407  0.00  0.00    +0.150 HD
BRANCH   4   6
ATOM      6  C   UNL     1     -33.833  26.971   1.378  0.00  0.00    +0.150 C 
BRANCH   6   7
ATOM      7  S   UNL     1     -32.175  27.254   2.041  0.00  0.00    -0.063 S 
BRANCH   7   9
ATOM      8  O   UNL     1     -32.555  29.848   1.842  0.00  0.00    -0.280 OA
ATOM      9  C   UNL     1     -32.331  28.917   2.605  0.00  0.00    +0.222 C 
BRANCH   9  10
ATOM     10  C   UNL     1     -32.141  29.169   4.056  0.00  0.00    +0.045 C 
ATOM     11  C   UNL     1     -32.044  28.097   4.944  0.00  0.00    +0.004 C 
ATOM     12  C   UNL     1     -32.059  30.478   4.533  0.00  0.00    +0.004 C 
ATOM     13  C   UNL     1     -31.866  28.333   6.306  0.00  0.00    +0.000 C 
ATOM     14  C   UNL     1     -31.881  30.714   5.895  0.00  0.00    +0.000 C 
ATOM     15  C   UNL     1     -31.784  29.643   6.783  0.00  0.00    +0.000 C 
ENDBRANCH   9  10
ENDBRANCH   7   9
ENDBRANCH   6   7
ENDBRANCH   4   6
ENDBRANCH   1   3
BRANCH   1  16
ATOM     16  C   UNL     1     -36.678  25.126   4.455  0.00  0.00    +0.111 C 
BRANCH  16  18
ATOM     17  O   UNL     1     -35.900  22.773   5.951  0.00  0.00    -0.274 OA
ATOM     18  N   UNL     1     -36.255  23.857   3.925  0.00  0.00    -0.302 N 
ATOM     19  C   UNL     1     -35.898  22.776   4.722  0.00  0.00    +0.234 C 
ATOM     20  H   UNL     1     -36.218  23.748   2.948  0.00  0.00    +0.150 HD
BRANCH  19  21
ATOM     21  C   UNL     1     -35.475  21.564   3.926  0.00  0.00    +0.150 C 
BRANCH  21  22
ATOM     22  S   UNL     1     -35.479  21.985   2.168  0.00  0.00    -0.063 S 
BRANCH  22  24
ATOM     23  O   UNL     1     -36.222  19.619   1.296  0.00  0.00    -0.280 OA
ATOM     24  C   UNL     1     -35.281  20.387   1.451  0.00  0.00    +0.222 C 
BRANCH  24  25
ATOM     25  C   UNL     1     -33.907  19.974   1.067  0.00  0.00    +0.045 C 
ATOM     26  C   UNL     1     -33.402  18.747   1.499  0.00  0.00    +0.004 C 
ATOM     27  C   UNL     1     -33.123  20.812   0.275  0.00  0.00    +0.004 C 
ATOM     28  C   UNL     1     -32.112  18.358   1.138  0.00  0.00    +0.000 C 
ATOM     29  C   UNL     1     -31.832  20.423  -0.085  0.00  0.00    +0.000 C 
ATOM     30  C   UNL     1     -31.327  19.196   0.346  0.00  0.00    +0.000 C 
ENDBRANCH  24  25
ENDBRANCH  22  24
ENDBRANCH  21  22
ENDBRANCH  19  21
ENDBRANCH  16  18
ENDBRANCH   1  16
TORSDOF 11
ENDMDL
MODEL 4
REMARK VINA RESULT:      -6.1      5.312      8.723
REMARK  Name = 189849
REMARK  11 active torsions:
REMARK  status: ('A' for Active; 'I' for Inactive)
REMARK    1  A    between atoms: C_1  and  N_3
REMARK    2  A    between atoms: C_1  and  C_16
REMARK    3  A    between atoms: C_4  and  C_6
REMARK    4  A    between atoms: C_6  and  S_7
REMARK    5  A    between atoms: S_7  and  C_9
REMARK    6  A    between atoms: C_9  and  C_10
REMARK    7  A    between atoms: C_16  and  N_18
REMARK    8  A    between atoms: C_19  and  C_21
REMARK    9  A    between atoms: C_21  and  S_22
REMARK   10  A    between atoms: S_22  and  C_24
REMARK   11  A    between atoms: C_24  and  C_25
REMARK                            x       y       z     vdW  Elec       q    Type
REMARK                         _______ _______ _______ _____ _____    ______ ____
ROOT
ATOM      1  C   UNL     1     -39.351  22.771   2.278  0.00  0.00    +0.111 C 
ENDROOT
BRANCH   1   3
ATOM      2  O   UNL     1     -41.644  24.204   1.245  0.00  0.00    -0.274 OA
ATOM      3  N   UNL     1     -39.489  24.200   2.118  0.00  0.00    -0.302 N 
ATOM      4  C   UNL     1     -40.632  24.799   1.611  0.00  0.00    +0.234 C 
ATOM      5  H   UNL     1     -38.737  24.777   2.381  0.00  0.00    +0.150 HD
BRANCH   4   6
ATOM      6  C   UNL     1     -40.521  26.303   1.527  0.00  0.00    +0.150 C 
BRANCH   6   7
ATOM      7  S   UNL     1     -42.175  27.002   1.314  0.00  0.00    -0.063 S 
BRANCH   7   9
ATOM      8  O   UNL     1     -41.947  27.840   3.795  0.00  0.00    -0.280 OA
ATOM      9  C   UNL     1     -42.649  27.233   2.995  0.00  0.00    +0.222 C 
BRANCH   9  10
ATOM     10  C   UNL     1     -43.931  26.627   3.436  0.00  0.00    +0.045 C 
ATOM     11  C   UNL     1     -44.450  26.930   4.695  0.00  0.00    +0.004 C 
ATOM     12  C   UNL     1     -44.618  25.754   2.591  0.00  0.00    +0.004 C 
ATOM     13  C   UNL     1     -45.654  26.361   5.109  0.00  0.00    +0.000 C 
ATOM     14  C   UNL     1     -45.821  25.185   3.005  0.00  0.00    +0.000 C 
ATOM     15  C   UNL     1     -46.340  25.489   4.263  0.00  0.00    +0.000 C 
ENDBRANCH   9  10
ENDBRANCH   7   9
ENDBRANCH   6   7
ENDBRANCH   4   6
ENDBRANCH   1   3
BRANCH   1  16
ATOM     16  C   UNL     1     -37.901  22.352   2.455  0.00  0.00    +0.111 C 
BRANCH  16  18
ATOM     17  O   UNL     1     -35.407  21.601   3.717  0.00  0.00    -0.274 OA
ATOM     18  N   UNL     1     -37.313  22.928   3.634  0.00  0.00    -0.302 N 
ATOM     19  C   UNL     1     -36.106  22.502   4.173  0.00  0.00    +0.234 C 
ATOM     20  H   UNL     1     -37.791  23.663   4.083  0.00  0.00    +0.150 HD
BRANCH  19  21
ATOM     21  C   UNL     1     -35.714  23.256   5.423  0.00  0.00    +0.150 C 
BRANCH  21  22
ATOM     22  S   UNL     1     -36.015  25.020   5.164  0.00  0.00    -0.063 S 
BRANCH  22  24
ATOM     23  O   UNL     1     -34.216  24.983   3.247  0.00  0.00    -0.280 OA
ATOM     24  C   UNL     1     -34.539  25.480   4.319  0.00  0.00    +0.222 C 
BRANCH  24  25
ATOM     25  C   UNL     1     -33.657  26.481   4.974  0.00  0.00    +0.045 C 
ATOM     26  C   UNL     1     -33.039  27.471   4.211  0.00  0.00    +0.004 C 
ATOM     27  C   UNL     1     -33.449  26.429   6.353  0.00  0.00    +0.004 C 
ATOM     28  C   UNL     1     -32.212  28.412   4.827  0.00  0.00    +0.000 C 
ATOM     29  C   UNL     1     -32.621  27.369   6.968  0.00  0.00    +0.000 C 
ATOM     30  C   UNL     1     -32.003  28.360   6.205  0.00  0.00    +0.000 C 
ENDBRANCH  24  25
ENDBRANCH  22  24
ENDBRANCH  21  22
ENDBRANCH  19  21
ENDBRANCH  16  18
ENDBRANCH   1  16
TORSDOF 11
ENDMDL
MODEL 5
REMARK VINA RESULT:      -6.1      4.820      9.702
REMARK  Name = 189849
REMARK  11 active torsions:
REMARK  status: ('A' for Active; 'I' for Inactive)
REMARK    1  A    between atoms: C_1  and  N_3
REMARK    2  A    between atoms: C_1  and  C_16
REMARK    3  A    between atoms: C_4  and  C_6
REMARK    4  A    between atoms: C_6  and  S_7
REMARK    5  A    between atoms: S_7  and  C_9
REMARK    6  A    between atoms: C_9  and  C_10
REMARK    7  A    between atoms: C_16  and  N_18
REMARK    8  A    between atoms: C_19  and  C_21
REMARK    9  A    between atoms: C_21  and  S_22
REMARK   10  A    between atoms: S_22  and  C_24
REMARK   11  A    between atoms: C_24  and  C_25
REMARK                            x       y       z     vdW  Elec       q    Type
REMARK                         _______ _______ _______ _____ _____    ______ ____
ROOT
ATOM      1  C   UNL     1     -39.891  19.868  -1.235  0.00  0.00    +0.111 C 
ENDROOT
BRANCH   1   3
ATOM      2  O   UNL     1     -38.581  17.324  -0.806  0.00  0.00    -0.274 OA
ATOM      3  N   UNL     1     -38.560  19.646  -0.720  0.00  0.00    -0.302 N 
ATOM      4  C   UNL     1     -38.015  18.384  -0.547  0.00  0.00    +0.234 C 
ATOM      5  H   UNL     1     -38.013  20.429  -0.480  0.00  0.00    +0.150 HD
BRANCH   4   6
ATOM      6  C   UNL     1     -36.616  18.419   0.023  0.00  0.00    +0.150 C 
BRANCH   6   7
ATOM      7  S   UNL     1     -36.127  20.143   0.271  0.00  0.00    -0.063 S 
BRANCH   7   9
ATOM      8  O   UNL     1     -35.136  20.129   2.707  0.00  0.00    -0.280 OA
ATOM      9  C   UNL     1     -34.896  19.953   1.518  0.00  0.00    +0.222 C 
BRANCH   9  10
ATOM     10  C   UNL     1     -33.521  19.605   1.077  0.00  0.00    +0.045 C 
ATOM     11  C   UNL     1     -32.955  18.387   1.454  0.00  0.00    +0.004 C 
ATOM     12  C   UNL     1     -32.796  20.496   0.285  0.00  0.00    +0.004 C 
ATOM     13  C   UNL     1     -31.665  18.060   1.040  0.00  0.00    +0.000 C 
ATOM     14  C   UNL     1     -31.505  20.169  -0.129  0.00  0.00    +0.000 C 
ATOM     15  C   UNL     1     -30.939  18.951   0.247  0.00  0.00    +0.000 C 
ENDBRANCH   9  10
ENDBRANCH   7   9
ENDBRANCH   6   7
ENDBRANCH   4   6
ENDBRANCH   1   3
BRANCH   1  16
ATOM     16  C   UNL     1     -40.582  21.038  -0.555  0.00  0.00    +0.111 C 
BRANCH  16  18
ATOM     17  O   UNL     1     -40.172  21.654   2.244  0.00  0.00    -0.274 OA
ATOM     18  N   UNL     1     -39.639  21.970   0.003  0.00  0.00    -0.302 N 
ATOM     19  C   UNL     1     -39.511  22.204   1.366  0.00  0.00    +0.234 C 
ATOM     20  H   UNL     1     -39.055  22.468  -0.613  0.00  0.00    +0.150 HD
BRANCH  19  21
ATOM     21  C   UNL     1     -38.462  23.241   1.696  0.00  0.00    +0.150 C 
BRANCH  21  22
ATOM     22  S   UNL     1     -39.139  24.396   2.910  0.00  0.00    -0.063 S 
BRANCH  22  24
ATOM     23  O   UNL     1     -38.110  26.731   2.276  0.00  0.00    -0.280 OA
ATOM     24  C   UNL     1     -37.922  25.670   2.859  0.00  0.00    +0.222 C 
BRANCH  24  25
ATOM     25  C   UNL     1     -36.621  25.402   3.523  0.00  0.00    +0.045 C 
ATOM     26  C   UNL     1     -35.461  25.275   2.759  0.00  0.00    +0.004 C 
ATOM     27  C   UNL     1     -36.560  25.279   4.911  0.00  0.00    +0.004 C 
ATOM     28  C   UNL     1     -34.238  25.025   3.383  0.00  0.00    +0.000 C 
ATOM     29  C   UNL     1     -35.337  25.027   5.536  0.00  0.00    +0.000 C 
ATOM     30  C   UNL     1     -34.176  24.900   4.771  0.00  0.00    +0.000 C 
ENDBRANCH  24  25
ENDBRANCH  22  24
ENDBRANCH  21  22
ENDBRANCH  19  21
ENDBRANCH  16  18
ENDBRANCH   1  16
TORSDOF 11
ENDMDL
MODEL 6
REMARK VINA RESULT:      -6.1      3.203      4.862
REMARK  Name = 189849
REMARK  11 active torsions:
REMARK  status: ('A' for Active; 'I' for Inactive)
REMARK    1  A    between atoms: C_1  and  N_3
REMARK    2  A    between atoms: C_1  and  C_16
REMARK    3  A    between atoms: C_4  and  C_6
REMARK    4  A    between atoms: C_6  and  S_7
REMARK    5  A    between atoms: S_7  and  C_9
REMARK    6  A    between atoms: C_9  and  C_10
REMARK    7  A    between atoms: C_16  and  N_18
REMARK    8  A    between atoms: C_19  and  C_21
REMARK    9  A    between atoms: C_21  and  S_22
REMARK   10  A    between atoms: S_22  and  C_24
REMARK   11  A    between atoms: C_24  and  C_25
REMARK                            x       y       z     vdW  Elec       q    Type
REMARK                         _______ _______ _______ _____ _____    ______ ____
ROOT
ATOM      1  C   UNL     1     -37.915  26.175   0.584  0.00  0.00    +0.111 C 
ENDROOT
BRANCH   1   3
ATOM      2  O   UNL     1     -35.083  25.919   1.122  0.00  0.00    -0.274 OA
ATOM      3  N   UNL     1     -37.170  26.791   1.657  0.00  0.00    -0.302 N 
ATOM      4  C   UNL     1     -35.808  26.609   1.836  0.00  0.00    +0.234 C 
ATOM      5  H   UNL     1     -37.652  27.369   2.291  0.00  0.00    +0.150 HD
BRANCH   4   6
ATOM      6  C   UNL     1     -35.268  27.346   3.039  0.00  0.00    +0.150 C 
BRANCH   6   7
ATOM      7  S   UNL     1     -34.658  28.964   2.511  0.00  0.00    -0.063 S 
BRANCH   7   9
ATOM      8  O   UNL     1     -32.132  28.417   2.031  0.00  0.00    -0.280 OA
ATOM      9  C   UNL     1     -32.941  28.796   2.869  0.00  0.00    +0.222 C 
BRANCH   9  10
ATOM     10  C   UNL     1     -32.497  29.097   4.255  0.00  0.00    +0.045 C 
ATOM     11  C   UNL     1     -32.311  30.419   4.657  0.00  0.00    +0.004 C 
ATOM     12  C   UNL     1     -32.268  28.055   5.155  0.00  0.00    +0.004 C 
ATOM     13  C   UNL     1     -31.895  30.701   5.957  0.00  0.00    +0.000 C 
ATOM     14  C   UNL     1     -31.852  28.337   6.456  0.00  0.00    +0.000 C 
ATOM     15  C   UNL     1     -31.665  29.660   6.858  0.00  0.00    +0.000 C 
ENDBRANCH   9  10
ENDBRANCH   7   9
ENDBRANCH   6   7
ENDBRANCH   4   6
ENDBRANCH   1   3
BRANCH   1  16
ATOM     16  C   UNL     1     -38.933  25.170   1.096  0.00  0.00    +0.111 C 
BRANCH  16  18
ATOM     17  O   UNL     1     -40.271  22.776   2.023  0.00  0.00    -0.274 OA
ATOM     18  N   UNL     1     -38.367  23.855   1.239  0.00  0.00    -0.302 N 
ATOM     19  C   UNL     1     -39.087  22.758   1.695  0.00  0.00    +0.234 C 
ATOM     20  H   UNL     1     -37.421  23.726   1.001  0.00  0.00    +0.150 HD
BRANCH  19  21
ATOM     21  C   UNL     1     -38.262  21.495   1.771  0.00  0.00    +0.150 C 
BRANCH  21  22
ATOM     22  S   UNL     1     -36.562  21.873   1.284  0.00  0.00    -0.063 S 
BRANCH  22  24
ATOM     23  O   UNL     1     -35.204  20.058   2.615  0.00  0.00    -0.280 OA
ATOM     24  C   UNL     1     -35.675  21.188   2.644  0.00  0.00    +0.222 C 
BRANCH  24  25
ATOM     25  C   UNL     1     -35.545  22.021   3.867  0.00  0.00    +0.045 C 
ATOM     26  C   UNL     1     -35.228  21.423   5.087  0.00  0.00    +0.004 C 
ATOM     27  C   UNL     1     -35.740  23.400   3.795  0.00  0.00    +0.004 C 
ATOM     28  C   UNL     1     -35.106  22.206   6.236  0.00  0.00    +0.000 C 
ATOM     29  C   UNL     1     -35.618  24.183   4.944  0.00  0.00    +0.000 C 
ATOM     30  C   UNL     1     -35.301  23.585   6.164  0.00  0.00    +0.000 C 
ENDBRANCH  24  25
ENDBRANCH  22  24
ENDBRANCH  21  22
ENDBRANCH  19  21
ENDBRANCH  16  18
ENDBRANCH   1  16
TORSDOF 11
ENDMDL
MODEL 7
REMARK VINA RESULT:      -6.0      7.021      8.499
REMARK  Name = 189849
REMARK  11 active torsions:
REMARK  status: ('A' for Active; 'I' for Inactive)
REMARK    1  A    between atoms: C_1  and  N_3
REMARK    2  A    between atoms: C_1  and  C_16
REMARK    3  A    between atoms: C_4  and  C_6
REMARK    4  A    between atoms: C_6  and  S_7
REMARK    5  A    between atoms: S_7  and  C_9
REMARK    6  A    between atoms: C_9  and  C_10
REMARK    7  A    between atoms: C_16  and  N_18
REMARK    8  A    between atoms: C_19  and  C_21
REMARK    9  A    between atoms: C_21  and  S_22
REMARK   10  A    between atoms: S_22  and  C_24
REMARK   11  A    between atoms: C_24  and  C_25
REMARK                            x       y       z     vdW  Elec       q    Type
REMARK                         _______ _______ _______ _____ _____    ______ ____
ROOT
ATOM      1  C   UNL     1     -41.531  26.618   3.821  0.00  0.00    +0.111 C 
ENDROOT
BRANCH   1   3
ATOM      2  O   UNL     1     -42.384  29.205   2.843  0.00  0.00    -0.274 OA
ATOM      3  N   UNL     1     -42.850  27.198   3.919  0.00  0.00    -0.302 N 
ATOM      4  C   UNL     1     -43.167  28.451   3.418  0.00  0.00    +0.234 C 
ATOM      5  H   UNL     1     -43.560  26.679   4.362  0.00  0.00    +0.150 HD
BRANCH   4   6
ATOM      6  C   UNL     1     -44.606  28.837   3.662  0.00  0.00    +0.150 C 
BRANCH   6   7
ATOM      7  S   UNL     1     -44.919  28.843   5.443  0.00  0.00    -0.063 S 
BRANCH   7   9
ATOM      8  O   UNL     1     -43.068  30.576   6.136  0.00  0.00    -0.280 OA
ATOM      9  C   UNL     1     -44.255  30.415   5.884  0.00  0.00    +0.222 C 
BRANCH   9  10
ATOM     10  C   UNL     1     -45.202  31.555   5.981  0.00  0.00    +0.045 C 
ATOM     11  C   UNL     1     -46.204  31.550   6.951  0.00  0.00    +0.004 C 
ATOM     12  C   UNL     1     -45.089  32.634   5.102  0.00  0.00    +0.004 C 
ATOM     13  C   UNL     1     -47.093  32.620   7.042  0.00  0.00    +0.000 C 
ATOM     14  C   UNL     1     -45.977  33.704   5.193  0.00  0.00    +0.000 C 
ATOM     15  C   UNL     1     -46.980  33.698   6.163  0.00  0.00    +0.000 C 
ENDBRANCH   9  10
ENDBRANCH   7   9
ENDBRANCH   6   7
ENDBRANCH   4   6
ENDBRANCH   1   3
BRANCH   1  16
ATOM     16  C   UNL     1     -41.309  25.919   2.491  0.00  0.00    +0.111 C 
BRANCH  16  18
ATOM     17  O   UNL     1     -38.713  26.998   1.802  0.00  0.00    -0.274 OA
ATOM     18  N   UNL     1     -40.056  25.215   2.454  0.00  0.00    -0.302 N 
ATOM     19  C   UNL     1     -38.851  25.816   2.110  0.00  0.00    +0.234 C 
ATOM     20  H   UNL     1     -40.051  24.258   2.685  0.00  0.00    +0.150 HD
BRANCH  19  21
ATOM     21  C   UNL     1     -37.682  24.859   2.130  0.00  0.00    +0.150 C 
BRANCH  21  22
ATOM     22  S   UNL     1     -36.144  25.810   2.135  0.00  0.00    -0.063 S 
BRANCH  22  24
ATOM     23  O   UNL     1     -34.081  24.322   1.472  0.00  0.00    -0.280 OA
ATOM     24  C   UNL     1     -34.962  24.514   2.301  0.00  0.00    +0.222 C 
BRANCH  24  25
ATOM     25  C   UNL     1     -35.088  23.618   3.478  0.00  0.00    +0.045 C 
ATOM     26  C   UNL     1     -34.960  24.136   4.768  0.00  0.00    +0.004 C 
ATOM     27  C   UNL     1     -35.336  22.257   3.295  0.00  0.00    +0.004 C 
ATOM     28  C   UNL     1     -35.080  23.293   5.873  0.00  0.00    +0.000 C 
ATOM     29  C   UNL     1     -35.455  21.414   4.401  0.00  0.00    +0.000 C 
ATOM     30  C   UNL     1     -35.327  21.933   5.690  0.00  0.00    +0.000 C 
ENDBRANCH  24  25
ENDBRANCH  22  24
ENDBRANCH  21  22
ENDBRANCH  19  21
ENDBRANCH  16  18
ENDBRANCH   1  16
TORSDOF 11
ENDMDL
MODEL 8
REMARK VINA RESULT:      -6.0      2.539     10.301
REMARK  Name = 189849
REMARK  11 active torsions:
REMARK  status: ('A' for Active; 'I' for Inactive)
REMARK    1  A    between atoms: C_1  and  N_3
REMARK    2  A    between atoms: C_1  and  C_16
REMARK    3  A    between atoms: C_4  and  C_6
REMARK    4  A    between atoms: C_6  and  S_7
REMARK    5  A    between atoms: S_7  and  C_9
REMARK    6  A    between atoms: C_9  and  C_10
REMARK    7  A    between atoms: C_16  and  N_18
REMARK    8  A    between atoms: C_19  and  C_21
REMARK    9  A    between atoms: C_21  and  S_22
REMARK   10  A    between atoms: S_22  and  C_24
REMARK   11  A    between atoms: C_24  and  C_25
REMARK                            x       y       z     vdW  Elec       q    Type
REMARK                         _______ _______ _______ _____ _____    ______ ____
ROOT
ATOM      1  C   UNL     1     -34.739  27.825   2.837  0.00  0.00    +0.111 C 
ENDROOT
BRANCH   1   3
ATOM      2  O   UNL     1     -33.347  25.636   4.119  0.00  0.00    -0.274 OA
ATOM      3  N   UNL     1     -35.152  27.097   4.014  0.00  0.00    -0.302 N 
ATOM      4  C   UNL     1     -34.416  26.058   4.559  0.00  0.00    +0.234 C 
ATOM      5  H   UNL     1     -35.996  27.352   4.451  0.00  0.00    +0.150 HD
BRANCH   4   6
ATOM      6  C   UNL     1     -35.069  25.448   5.777  0.00  0.00    +0.150 C 
BRANCH   6   7
ATOM      7  S   UNL     1     -35.275  23.672   5.506  0.00  0.00    -0.063 S 
BRANCH   7   9
ATOM      8  O   UNL     1     -37.361  24.571   4.182  0.00  0.00    -0.280 OA
ATOM      9  C   UNL     1     -36.528  23.677   4.266  0.00  0.00    +0.222 C 
BRANCH   9  10
ATOM     10  C   UNL     1     -36.569  22.525   3.329  0.00  0.00    +0.045 C 
ATOM     11  C   UNL     1     -35.525  21.601   3.313  0.00  0.00    +0.004 C 
ATOM     12  C   UNL     1     -37.654  22.367   2.465  0.00  0.00    +0.004 C 
ATOM     13  C   UNL     1     -35.564  20.519   2.434  0.00  0.00    +0.000 C 
ATOM     14  C   UNL     1     -37.693  21.286   1.586  0.00  0.00    +0.000 C 
ATOM     15  C   UNL     1     -36.649  20.361   1.570  0.00  0.00    +0.000 C 
ENDBRANCH   9  10
ENDBRANCH   7   9
ENDBRANCH   6   7
ENDBRANCH   4   6
ENDBRANCH   1   3
BRANCH   1  16
ATOM     16  C   UNL     1     -33.515  28.687   3.094  0.00  0.00    +0.111 C 
BRANCH  16  18
ATOM     17  O   UNL     1     -34.806  31.050   4.158  0.00  0.00    -0.274 OA
ATOM     18  N   UNL     1     -33.623  29.978   2.468  0.00  0.00    -0.302 N 
ATOM     19  C   UNL     1     -34.264  31.061   3.055  0.00  0.00    +0.234 C 
ATOM     20  H   UNL     1     -33.220  30.099   1.578  0.00  0.00    +0.150 HD
BRANCH  19  21
ATOM     21  C   UNL     1     -34.255  32.299   2.188  0.00  0.00    +0.150 C 
BRANCH  21  22
ATOM     22  S   UNL     1     -35.102  31.933   0.633  0.00  0.00    -0.063 S 
BRANCH  22  24
ATOM     23  O   UNL     1     -37.506  31.100   1.298  0.00  0.00    -0.280 OA
ATOM     24  C   UNL     1     -36.784  32.077   1.138  0.00  0.00    +0.222 C 
BRANCH  24  25
ATOM     25  C   UNL     1     -37.326  33.446   1.332  0.00  0.00    +0.045 C 
ATOM     26  C   UNL     1     -38.523  33.631   2.026  0.00  0.00    +0.004 C 
ATOM     27  C   UNL     1     -36.639  34.547   0.821  0.00  0.00    +0.004 C 
ATOM     28  C   UNL     1     -39.032  34.918   2.209  0.00  0.00    +0.000 C 
ATOM     29  C   UNL     1     -37.148  35.834   1.003  0.00  0.00    +0.000 C 
ATOM     30  C   UNL     1     -38.345  36.018   1.697  0.00  0.00    +0.000 C 
ENDBRANCH  24  25
ENDBRANCH  22  24
ENDBRANCH  21  22
ENDBRANCH  19  21
ENDBRANCH  16  18
ENDBRANCH   1  16
TORSDOF 11
ENDMDL
MODEL 9
REMARK VINA RESULT:      -6.0      7.421      8.974
REMARK  Name = 189849
REMARK  11 active torsions:
REMARK  status: ('A' for Active; 'I' for Inactive)
REMARK    1  A    between atoms: C_1  and  N_3
REMARK    2  A    between atoms: C_1  and  C_16
REMARK    3  A    between atoms: C_4  and  C_6
REMARK    4  A    between atoms: C_6  and  S_7
REMARK    5  A    between atoms: S_7  and  C_9
REMARK    6  A    between atoms: C_9  and  C_10
REMARK    7  A    between atoms: C_16  and  N_18
REMARK    8  A    between atoms: C_19  and  C_21
REMARK    9  A    between atoms: C_21  and  S_22
REMARK   10  A    between atoms: S_22  and  C_24
REMARK   11  A    between atoms: C_24  and  C_25
REMARK                            x       y       z     vdW  Elec       q    Type
REMARK                         _______ _______ _______ _____ _____    ______ ____
ROOT
ATOM      1  C   UNL     1     -43.025  26.611   3.922  0.00  0.00    +0.111 C 
ENDROOT
BRANCH   1   3
ATOM      2  O   UNL     1     -42.846  29.264   5.065  0.00  0.00    -0.274 OA
ATOM      3  N   UNL     1     -44.065  27.612   3.974  0.00  0.00    -0.302 N 
ATOM      4  C   UNL     1     -43.886  28.862   4.545  0.00  0.00    +0.234 C 
ATOM      5  H   UNL     1     -44.943  27.397   3.585  0.00  0.00    +0.150 HD
BRANCH   4   6
ATOM      6  C   UNL     1     -45.129  29.719   4.489  0.00  0.00    +0.150 C 
BRANCH   6   7
ATOM      7  S   UNL     1     -44.701  31.325   3.777  0.00  0.00    -0.063 S 
BRANCH   7   9
ATOM      8  O   UNL     1     -43.574  33.179   5.262  0.00  0.00    -0.280 OA
ATOM      9  C   UNL     1     -44.373  32.251   5.241  0.00  0.00    +0.222 C 
BRANCH   9  10
ATOM     10  C   UNL     1     -45.077  31.842   6.483  0.00  0.00    +0.045 C 
ATOM     11  C   UNL     1     -46.421  32.171   6.663  0.00  0.00    +0.004 C 
ATOM     12  C   UNL     1     -44.395  31.129   7.469  0.00  0.00    +0.004 C 
ATOM     13  C   UNL     1     -47.082  31.788   7.829  0.00  0.00    +0.000 C 
ATOM     14  C   UNL     1     -45.057  30.745   8.635  0.00  0.00    +0.000 C 
ATOM     15  C   UNL     1     -46.400  31.074   8.816  0.00  0.00    +0.000 C 
ENDBRANCH   9  10
ENDBRANCH   7   9
ENDBRANCH   6   7
ENDBRANCH   4   6
ENDBRANCH   1   3
BRANCH   1  16
ATOM     16  C   UNL     1     -41.843  27.054   3.076  0.00  0.00    +0.111 C 
BRANCH  16  18
ATOM     17  O   UNL     1     -40.506  24.845   1.768  0.00  0.00    -0.274 OA
ATOM     18  N   UNL     1     -40.620  26.414   3.480  0.00  0.00    -0.302 N 
ATOM     19  C   UNL     1     -40.048  25.354   2.789  0.00  0.00    +0.234 C 
ATOM     20  H   UNL     1     -40.166  26.744   4.288  0.00  0.00    +0.150 HD
BRANCH  19  21
ATOM     21  C   UNL     1     -38.775  24.847   3.425  0.00  0.00    +0.150 C 
BRANCH  21  22
ATOM     22  S   UNL     1     -37.387  25.851   2.846  0.00  0.00    -0.063 S 
BRANCH  22  24
ATOM     23  O   UNL     1     -35.718  26.528   4.760  0.00  0.00    -0.280 OA
ATOM     24  C   UNL     1     -36.235  25.598   4.154  0.00  0.00    +0.222 C 
BRANCH  24  25
ATOM     25  C   UNL     1     -35.870  24.196   4.485  0.00  0.00    +0.045 C 
ATOM     26  C   UNL     1     -35.807  23.235   3.475  0.00  0.00    +0.004 C 
ATOM     27  C   UNL     1     -35.589  23.842   5.805  0.00  0.00    +0.004 C 
ATOM     28  C   UNL     1     -35.462  21.919   3.786  0.00  0.00    +0.000 C 
ATOM     29  C   UNL     1     -35.246  22.525   6.115  0.00  0.00    +0.000 C 
ATOM     30  C   UNL     1     -35.183  21.564   5.106  0.00  0.00    +0.000 C 
ENDBRANCH  24  25
ENDBRANCH  22  24
ENDBRANCH  21  22
ENDBRANCH  19  21
ENDBRANCH  16  18
ENDBRANCH   1  16
TORSDOF 11
ENDMDL
