MODEL 1
REMARK VINA RESULT:      -6.3      0.000      0.000
REMARK  Name = 191367
REMARK  15 active torsions:
REMARK  status: ('A' for Active; 'I' for Inactive)
REMARK    1  A    between atoms: O_1  and  C_7
REMARK    2  A    between atoms: O_1  and  P_17
REMARK    3  A    between atoms: C_3  and  O_8
REMARK    4  A    between atoms: C_4  and  O_10
REMARK    5  A    between atoms: C_5  and  O_12
REMARK    6  A    between atoms: C_6  and  C_14
REMARK    7  A    between atoms: C_14  and  O_15
REMARK    8  A    between atoms: P_17  and  O_19
REMARK    9  A    between atoms: P_17  and  O_21
REMARK   10  A    between atoms: O_21  and  C_22
REMARK   11  A    between atoms: C_22  and  C_23
REMARK   12  A    between atoms: C_23  and  C_24
REMARK   13  A    between atoms: C_24  and  C_26
REMARK   14  A    between atoms: C_26  and  C_27
REMARK   15  A    between atoms: C_27  and  C_28
REMARK                            x       y       z     vdW  Elec       q    Type
REMARK                         _______ _______ _______ _____ _____    ______ ____
ROOT
ATOM      1  O   UNL     1     -34.270  24.873   4.693  0.00  0.00    -0.245 OA
ENDROOT
BRANCH   1   7
ATOM      2  O   UNL     1     -36.629  24.686   4.878  0.00  0.00    -0.326 OA
ATOM      3  C   UNL     1     -35.484  22.204   3.987  0.00  0.00    +0.172 C 
ATOM      4  C   UNL     1     -36.816  22.718   3.437  0.00  0.00    +0.169 C 
ATOM      5  C   UNL     1     -35.221  22.765   5.386  0.00  0.00    +0.197 C 
ATOM      6  C   UNL     1     -36.872  24.247   3.539  0.00  0.00    +0.176 C 
ATOM      7  C   UNL     1     -35.357  24.285   5.401  0.00  0.00    +0.274 C 
BRANCH   3   8
ATOM      8  O   UNL     1     -35.492  20.781   4.056  0.00  0.00    -0.379 OA
ATOM      9  H   UNL     1     -34.648  20.469   4.421  0.00  0.00    +0.211 HD
ENDBRANCH   3   8
BRANCH   4  10
ATOM     10  O   UNL     1     -36.944  22.342   2.068  0.00  0.00    -0.379 OA
ATOM     11  H   UNL     1     -37.648  22.867   1.654  0.00  0.00    +0.211 HD
ENDBRANCH   4  10
BRANCH   5  12
ATOM     12  O   UNL     1     -36.174  22.236   6.309  0.00  0.00    -0.378 OA
ATOM     13  H   UNL     1     -35.715  21.700   6.977  0.00  0.00    +0.211 HD
ENDBRANCH   5  12
BRANCH   6  14
ATOM     14  C   UNL     1     -38.240  24.786   3.127  0.00  0.00    +0.169 C 
BRANCH  14  15
ATOM     15  O   UNL     1     -38.368  26.110   3.612  0.00  0.00    -0.379 OA
ATOM     16  H   UNL     1     -37.841  26.708   3.059  0.00  0.00    +0.211 HD
ENDBRANCH  14  15
ENDBRANCH   6  14
ENDBRANCH   1   7
BRANCH   1  17
ATOM     17  P   UNL     1     -34.024  26.471   4.764  0.00  0.00    +0.478 P 
ATOM     18  O   UNL     1     -33.068  27.005   3.737  0.00  0.00    -0.227 OA
BRANCH  17  19
ATOM     19  O   UNL     1     -35.510  27.105   4.677  0.00  0.00    -0.302 OA
ATOM     20  H   UNL     1     -35.810  27.101   3.754  0.00  0.00    +0.222 HD
ENDBRANCH  17  19
BRANCH  17  21
ATOM     21  O   UNL     1     -33.597  26.759   6.297  0.00  0.00    -0.273 OA
BRANCH  21  22
ATOM     22  C   UNL     1     -32.245  27.110   6.566  0.00  0.00    +0.154 C 
BRANCH  22  23
ATOM     23  C   UNL     1     -32.175  28.608   6.844  0.00  0.00    +0.033 C 
BRANCH  23  24
ATOM     24  C   UNL     1     -31.176  29.363   5.948  0.00  0.00    +0.003 C 
ATOM     25  C   UNL     1     -29.786  29.430   6.591  0.00  0.00    +0.000 C 
BRANCH  24  26
ATOM     26  C   UNL     1     -31.656  30.801   5.643  0.00  0.00    +0.005 C 
BRANCH  26  27
ATOM     27  C   UNL     1     -31.978  31.098   4.170  0.00  0.00    +0.025 C 
BRANCH  27  28
ATOM     28  C   UNL     1     -33.400  30.772   3.810  0.00  0.00    -0.035 C 
ATOM     29  C   UNL     1     -34.213  31.415   2.950  0.00  0.00    -0.048 C 
ATOM     30  C   UNL     1     -35.631  31.033   2.635  0.00  0.00    +0.026 C 
ATOM     31  C   UNL     1     -33.720  32.627   2.202  0.00  0.00    +0.026 C 
ENDBRANCH  27  28
ENDBRANCH  26  27
ENDBRANCH  24  26
ENDBRANCH  23  24
ENDBRANCH  22  23
ENDBRANCH  21  22
ENDBRANCH  17  21
ENDBRANCH   1  17
TORSDOF 15
ENDMDL
MODEL 2
REMARK VINA RESULT:      -6.3      1.094      3.095
REMARK  Name = 191367
REMARK  15 active torsions:
REMARK  status: ('A' for Active; 'I' for Inactive)
REMARK    1  A    between atoms: O_1  and  C_7
REMARK    2  A    between atoms: O_1  and  P_17
REMARK    3  A    between atoms: C_3  and  O_8
REMARK    4  A    between atoms: C_4  and  O_10
REMARK    5  A    between atoms: C_5  and  O_12
REMARK    6  A    between atoms: C_6  and  C_14
REMARK    7  A    between atoms: C_14  and  O_15
REMARK    8  A    between atoms: P_17  and  O_19
REMARK    9  A    between atoms: P_17  and  O_21
REMARK   10  A    between atoms: O_21  and  C_22
REMARK   11  A    between atoms: C_22  and  C_23
REMARK   12  A    between atoms: C_23  and  C_24
REMARK   13  A    between atoms: C_24  and  C_26
REMARK   14  A    between atoms: C_26  and  C_27
REMARK   15  A    between atoms: C_27  and  C_28
REMARK                            x       y       z     vdW  Elec       q    Type
REMARK                         _______ _______ _______ _____ _____    ______ ____
ROOT
ATOM      1  O   UNL     1     -34.367  24.878   4.508  0.00  0.00    -0.245 OA
ENDROOT
BRANCH   1   7
ATOM      2  O   UNL     1     -36.704  24.690   4.876  0.00  0.00    -0.326 OA
ATOM      3  C   UNL     1     -35.653  22.251   3.774  0.00  0.00    +0.172 C 
ATOM      4  C   UNL     1     -37.022  22.795   3.361  0.00  0.00    +0.169 C 
ATOM      5  C   UNL     1     -35.273  22.741   5.172  0.00  0.00    +0.197 C 
ATOM      6  C   UNL     1     -37.059  24.318   3.542  0.00  0.00    +0.176 C 
ATOM      7  C   UNL     1     -35.396  24.260   5.273  0.00  0.00    +0.274 C 
BRANCH   3   8
ATOM      8  O   UNL     1     -35.666  20.826   3.775  0.00  0.00    -0.379 OA
ATOM      9  H   UNL     1     -34.896  20.495   3.285  0.00  0.00    +0.211 HD
ENDBRANCH   3   8
BRANCH   4  10
ATOM     10  O   UNL     1     -37.264  22.488   1.991  0.00  0.00    -0.379 OA
ATOM     11  H   UNL     1     -36.433  22.546   1.495  0.00  0.00    +0.211 HD
ENDBRANCH   4  10
BRANCH   5  12
ATOM     12  O   UNL     1     -36.151  22.171   6.144  0.00  0.00    -0.378 OA
ATOM     13  H   UNL     1     -36.360  22.835   6.821  0.00  0.00    +0.211 HD
ENDBRANCH   5  12
BRANCH   6  14
ATOM     14  C   UNL     1     -38.452  24.880   3.270  0.00  0.00    +0.169 C 
BRANCH  14  15
ATOM     15  O   UNL     1     -38.429  26.276   3.506  0.00  0.00    -0.379 OA
ATOM     16  H   UNL     1     -37.862  26.464   4.270  0.00  0.00    +0.211 HD
ENDBRANCH  14  15
ENDBRANCH   6  14
ENDBRANCH   1   7
BRANCH   1  17
ATOM     17  P   UNL     1     -33.896  26.388   4.851  0.00  0.00    +0.478 P 
ATOM     18  O   UNL     1     -33.717  26.672   6.314  0.00  0.00    -0.227 OA
BRANCH  17  19
ATOM     19  O   UNL     1     -32.555  26.596   3.969  0.00  0.00    -0.302 OA
ATOM     20  H   UNL     1     -32.114  27.417   4.240  0.00  0.00    +0.222 HD
ENDBRANCH  17  19
BRANCH  17  21
ATOM     21  O   UNL     1     -34.971  27.339   4.106  0.00  0.00    -0.273 OA
BRANCH  21  22
ATOM     22  C   UNL     1     -35.101  27.231   2.693  0.00  0.00    +0.154 C 
BRANCH  22  23
ATOM     23  C   UNL     1     -35.352  28.621   2.118  0.00  0.00    +0.033 C 
BRANCH  23  24
ATOM     24  C   UNL     1     -34.726  29.760   2.944  0.00  0.00    +0.003 C 
ATOM     25  C   UNL     1     -35.522  31.062   2.796  0.00  0.00    +0.000 C 
BRANCH  24  26
ATOM     26  C   UNL     1     -33.258  30.023   2.535  0.00  0.00    +0.005 C 
BRANCH  26  27
ATOM     27  C   UNL     1     -32.494  31.030   3.407  0.00  0.00    +0.025 C 
BRANCH  27  28
ATOM     28  C   UNL     1     -32.478  30.646   4.860  0.00  0.00    -0.035 C 
ATOM     29  C   UNL     1     -31.587  29.874   5.511  0.00  0.00    -0.048 C 
ATOM     30  C   UNL     1     -31.631  29.528   6.972  0.00  0.00    +0.026 C 
ATOM     31  C   UNL     1     -30.418  29.276   4.771  0.00  0.00    +0.026 C 
ENDBRANCH  27  28
ENDBRANCH  26  27
ENDBRANCH  24  26
ENDBRANCH  23  24
ENDBRANCH  22  23
ENDBRANCH  21  22
ENDBRANCH  17  21
ENDBRANCH   1  17
TORSDOF 15
ENDMDL
MODEL 3
REMARK VINA RESULT:      -6.2      1.698      3.688
REMARK  Name = 191367
REMARK  15 active torsions:
REMARK  status: ('A' for Active; 'I' for Inactive)
REMARK    1  A    between atoms: O_1  and  C_7
REMARK    2  A    between atoms: O_1  and  P_17
REMARK    3  A    between atoms: C_3  and  O_8
REMARK    4  A    between atoms: C_4  and  O_10
REMARK    5  A    between atoms: C_5  and  O_12
REMARK    6  A    between atoms: C_6  and  C_14
REMARK    7  A    between atoms: C_14  and  O_15
REMARK    8  A    between atoms: P_17  and  O_19
REMARK    9  A    between atoms: P_17  and  O_21
REMARK   10  A    between atoms: O_21  and  C_22
REMARK   11  A    between atoms: C_22  and  C_23
REMARK   12  A    between atoms: C_23  and  C_24
REMARK   13  A    between atoms: C_24  and  C_26
REMARK   14  A    between atoms: C_26  and  C_27
REMARK   15  A    between atoms: C_27  and  C_28
REMARK                            x       y       z     vdW  Elec       q    Type
REMARK                         _______ _______ _______ _____ _____    ______ ____
ROOT
ATOM      1  O   UNL     1     -34.275  24.870   4.682  0.00  0.00    -0.245 OA
ENDROOT
BRANCH   1   7
ATOM      2  O   UNL     1     -36.625  24.660   4.935  0.00  0.00    -0.326 OA
ATOM      3  C   UNL     1     -35.488  22.203   3.966  0.00  0.00    +0.172 C 
ATOM      4  C   UNL     1     -36.841  22.716   3.465  0.00  0.00    +0.169 C 
ATOM      5  C   UNL     1     -35.188  22.742   5.366  0.00  0.00    +0.197 C 
ATOM      6  C   UNL     1     -36.906  24.242   3.597  0.00  0.00    +0.176 C 
ATOM      7  C   UNL     1     -35.335  24.261   5.412  0.00  0.00    +0.274 C 
BRANCH   3   8
ATOM      8  O   UNL     1     -35.483  20.779   4.010  0.00  0.00    -0.379 OA
ATOM      9  H   UNL     1     -34.568  20.461   4.077  0.00  0.00    +0.211 HD
ENDBRANCH   3   8
BRANCH   4  10
ATOM     10  O   UNL     1     -37.007  22.363   2.095  0.00  0.00    -0.379 OA
ATOM     11  H   UNL     1     -37.834  22.746   1.761  0.00  0.00    +0.211 HD
ENDBRANCH   4  10
BRANCH   5  12
ATOM     12  O   UNL     1     -36.108  22.189   6.308  0.00  0.00    -0.378 OA
ATOM     13  H   UNL     1     -35.953  22.583   7.182  0.00  0.00    +0.211 HD
ENDBRANCH   5  12
BRANCH   6  14
ATOM     14  C   UNL     1     -38.290  24.776   3.236  0.00  0.00    +0.169 C 
BRANCH  14  15
ATOM     15  O   UNL     1     -38.384  26.118   3.676  0.00  0.00    -0.379 OA
ATOM     16  H   UNL     1     -39.318  26.375   3.735  0.00  0.00    +0.211 HD
ENDBRANCH  14  15
ENDBRANCH   6  14
ENDBRANCH   1   7
BRANCH   1  17
ATOM     17  P   UNL     1     -34.047  26.470   4.766  0.00  0.00    +0.478 P 
ATOM     18  O   UNL     1     -33.166  27.035   3.689  0.00  0.00    -0.227 OA
BRANCH  17  19
ATOM     19  O   UNL     1     -35.544  27.084   4.784  0.00  0.00    -0.302 OA
ATOM     20  H   UNL     1     -35.497  28.047   4.898  0.00  0.00    +0.222 HD
ENDBRANCH  17  19
BRANCH  17  21
ATOM     21  O   UNL     1     -33.527  26.739   6.273  0.00  0.00    -0.273 OA
BRANCH  21  22
ATOM     22  C   UNL     1     -32.178  27.153   6.457  0.00  0.00    +0.154 C 
BRANCH  22  23
ATOM     23  C   UNL     1     -32.159  28.659   6.702  0.00  0.00    +0.033 C 
BRANCH  23  24
ATOM     24  C   UNL     1     -30.935  29.373   6.101  0.00  0.00    +0.003 C 
ATOM     25  C   UNL     1     -31.309  30.751   5.541  0.00  0.00    +0.000 C 
BRANCH  24  26
ATOM     26  C   UNL     1     -30.282  28.537   4.975  0.00  0.00    +0.005 C 
BRANCH  26  27
ATOM     27  C   UNL     1     -28.747  28.580   4.919  0.00  0.00    +0.025 C 
BRANCH  27  28
ATOM     28  C   UNL     1     -28.108  27.395   5.585  0.00  0.00    -0.035 C 
ATOM     29  C   UNL     1     -27.666  27.286   6.853  0.00  0.00    -0.048 C 
ATOM     30  C   UNL     1     -27.034  26.064   7.457  0.00  0.00    +0.026 C 
ATOM     31  C   UNL     1     -27.790  28.449   7.802  0.00  0.00    +0.026 C 
ENDBRANCH  27  28
ENDBRANCH  26  27
ENDBRANCH  24  26
ENDBRANCH  23  24
ENDBRANCH  22  23
ENDBRANCH  21  22
ENDBRANCH  17  21
ENDBRANCH   1  17
TORSDOF 15
ENDMDL
MODEL 4
REMARK VINA RESULT:      -6.2      1.297      3.455
REMARK  Name = 191367
REMARK  15 active torsions:
REMARK  status: ('A' for Active; 'I' for Inactive)
REMARK    1  A    between atoms: O_1  and  C_7
REMARK    2  A    between atoms: O_1  and  P_17
REMARK    3  A    between atoms: C_3  and  O_8
REMARK    4  A    between atoms: C_4  and  O_10
REMARK    5  A    between atoms: C_5  and  O_12
REMARK    6  A    between atoms: C_6  and  C_14
REMARK    7  A    between atoms: C_14  and  O_15
REMARK    8  A    between atoms: P_17  and  O_19
REMARK    9  A    between atoms: P_17  and  O_21
REMARK   10  A    between atoms: O_21  and  C_22
REMARK   11  A    between atoms: C_22  and  C_23
REMARK   12  A    between atoms: C_23  and  C_24
REMARK   13  A    between atoms: C_24  and  C_26
REMARK   14  A    between atoms: C_26  and  C_27
REMARK   15  A    between atoms: C_27  and  C_28
REMARK                            x       y       z     vdW  Elec       q    Type
REMARK                         _______ _______ _______ _____ _____    ______ ____
ROOT
ATOM      1  O   UNL     1     -34.289  24.767   4.631  0.00  0.00    -0.245 OA
ENDROOT
BRANCH   1   7
ATOM      2  O   UNL     1     -36.637  24.599   4.939  0.00  0.00    -0.326 OA
ATOM      3  C   UNL     1     -35.580  22.153   3.858  0.00  0.00    +0.172 C 
ATOM      4  C   UNL     1     -36.933  22.711   3.411  0.00  0.00    +0.169 C 
ATOM      5  C   UNL     1     -35.232  22.637   5.267  0.00  0.00    +0.197 C 
ATOM      6  C   UNL     1     -36.961  24.234   3.595  0.00  0.00    +0.176 C 
ATOM      7  C   UNL     1     -35.344  24.157   5.368  0.00  0.00    +0.274 C 
BRANCH   3   8
ATOM      8  O   UNL     1     -35.605  20.729   3.855  0.00  0.00    -0.379 OA
ATOM      9  H   UNL     1     -36.397  20.420   3.386  0.00  0.00    +0.211 HD
ENDBRANCH   3   8
BRANCH   4  10
ATOM     10  O   UNL     1     -37.143  22.409   2.034  0.00  0.00    -0.379 OA
ATOM     11  H   UNL     1     -37.748  21.655   1.958  0.00  0.00    +0.211 HD
ENDBRANCH   4  10
BRANCH   5  12
ATOM     12  O   UNL     1     -36.140  22.072   6.214  0.00  0.00    -0.378 OA
ATOM     13  H   UNL     1     -35.692  21.968   7.069  0.00  0.00    +0.211 HD
ENDBRANCH   5  12
BRANCH   6  14
ATOM     14  C   UNL     1     -38.342  24.809   3.289  0.00  0.00    +0.169 C 
BRANCH  14  15
ATOM     15  O   UNL     1     -38.347  26.179   3.644  0.00  0.00    -0.379 OA
ATOM     16  H   UNL     1     -39.238  26.435   3.930  0.00  0.00    +0.211 HD
ENDBRANCH  14  15
ENDBRANCH   6  14
ENDBRANCH   1   7
BRANCH   1  17
ATOM     17  P   UNL     1     -33.987  26.348   4.805  0.00  0.00    +0.478 P 
ATOM     18  O   UNL     1     -35.035  27.254   4.226  0.00  0.00    -0.227 OA
BRANCH  17  19
ATOM     19  O   UNL     1     -33.756  26.535   6.395  0.00  0.00    -0.302 OA
ATOM     20  H   UNL     1     -34.398  25.994   6.881  0.00  0.00    +0.222 HD
ENDBRANCH  17  19
BRANCH  17  21
ATOM     21  O   UNL     1     -32.504  26.558   4.196  0.00  0.00    -0.273 OA
BRANCH  21  22
ATOM     22  C   UNL     1     -32.291  27.639   3.296  0.00  0.00    +0.154 C 
BRANCH  22  23
ATOM     23  C   UNL     1     -31.415  28.681   3.984  0.00  0.00    +0.033 C 
BRANCH  23  24
ATOM     24  C   UNL     1     -32.170  29.959   4.394  0.00  0.00    +0.003 C 
ATOM     25  C   UNL     1     -31.710  31.170   3.574  0.00  0.00    +0.000 C 
BRANCH  24  26
ATOM     26  C   UNL     1     -31.984  30.274   5.897  0.00  0.00    +0.005 C 
BRANCH  26  27
ATOM     27  C   UNL     1     -31.229  29.213   6.711  0.00  0.00    +0.025 C 
BRANCH  27  28
ATOM     28  C   UNL     1     -29.880  29.687   7.174  0.00  0.00    -0.035 C 
ATOM     29  C   UNL     1     -28.705  29.029   7.142  0.00  0.00    -0.048 C 
ATOM     30  C   UNL     1     -27.388  29.566   7.623  0.00  0.00    +0.026 C 
ATOM     31  C   UNL     1     -28.634  27.631   6.583  0.00  0.00    +0.026 C 
ENDBRANCH  27  28
ENDBRANCH  26  27
ENDBRANCH  24  26
ENDBRANCH  23  24
ENDBRANCH  22  23
ENDBRANCH  21  22
ENDBRANCH  17  21
ENDBRANCH   1  17
TORSDOF 15
ENDMDL
MODEL 5
REMARK VINA RESULT:      -6.1      2.502      3.715
REMARK  Name = 191367
REMARK  15 active torsions:
REMARK  status: ('A' for Active; 'I' for Inactive)
REMARK    1  A    between atoms: O_1  and  C_7
REMARK    2  A    between atoms: O_1  and  P_17
REMARK    3  A    between atoms: C_3  and  O_8
REMARK    4  A    between atoms: C_4  and  O_10
REMARK    5  A    between atoms: C_5  and  O_12
REMARK    6  A    between atoms: C_6  and  C_14
REMARK    7  A    between atoms: C_14  and  O_15
REMARK    8  A    between atoms: P_17  and  O_19
REMARK    9  A    between atoms: P_17  and  O_21
REMARK   10  A    between atoms: O_21  and  C_22
REMARK   11  A    between atoms: C_22  and  C_23
REMARK   12  A    between atoms: C_23  and  C_24
REMARK   13  A    between atoms: C_24  and  C_26
REMARK   14  A    between atoms: C_26  and  C_27
REMARK   15  A    between atoms: C_27  and  C_28
REMARK                            x       y       z     vdW  Elec       q    Type
REMARK                         _______ _______ _______ _____ _____    ______ ____
ROOT
ATOM      1  O   UNL     1     -34.451  24.886   4.414  0.00  0.00    -0.245 OA
ENDROOT
BRANCH   1   7
ATOM      2  O   UNL     1     -36.777  24.674   4.840  0.00  0.00    -0.326 OA
ATOM      3  C   UNL     1     -35.746  22.275   3.637  0.00  0.00    +0.172 C 
ATOM      4  C   UNL     1     -37.128  22.824   3.278  0.00  0.00    +0.169 C 
ATOM      5  C   UNL     1     -35.330  22.725   5.039  0.00  0.00    +0.197 C 
ATOM      6  C   UNL     1     -37.167  24.340   3.506  0.00  0.00    +0.176 C 
ATOM      7  C   UNL     1     -35.457  24.240   5.188  0.00  0.00    +0.274 C 
BRANCH   3   8
ATOM      8  O   UNL     1     -35.752  20.851   3.596  0.00  0.00    -0.379 OA
ATOM      9  H   UNL     1     -36.412  20.548   2.951  0.00  0.00    +0.211 HD
ENDBRANCH   3   8
BRANCH   4  10
ATOM     10  O   UNL     1     -37.406  22.557   1.906  0.00  0.00    -0.379 OA
ATOM     11  H   UNL     1     -37.731  23.365   1.479  0.00  0.00    +0.211 HD
ENDBRANCH   4  10
BRANCH   5  12
ATOM     12  O   UNL     1     -36.178  22.121   6.017  0.00  0.00    -0.378 OA
ATOM     13  H   UNL     1     -36.377  22.766   6.715  0.00  0.00    +0.211 HD
ENDBRANCH   5  12
BRANCH   6  14
ATOM     14  C   UNL     1     -38.570  24.903   3.289  0.00  0.00    +0.169 C 
BRANCH  14  15
ATOM     15  O   UNL     1     -38.520  26.309   3.447  0.00  0.00    -0.379 OA
ATOM     16  H   UNL     1     -37.602  26.585   3.595  0.00  0.00    +0.211 HD
ENDBRANCH  14  15
ENDBRANCH   6  14
ENDBRANCH   1   7
BRANCH   1  17
ATOM     17  P   UNL     1     -33.979  26.388   4.788  0.00  0.00    +0.478 P 
ATOM     18  O   UNL     1     -33.806  26.643   6.258  0.00  0.00    -0.227 OA
BRANCH  17  19
ATOM     19  O   UNL     1     -32.635  26.611   3.916  0.00  0.00    -0.302 OA
ATOM     20  H   UNL     1     -32.271  25.749   3.657  0.00  0.00    +0.222 HD
ENDBRANCH  17  19
BRANCH  17  21
ATOM     21  O   UNL     1     -35.049  27.356   4.058  0.00  0.00    -0.273 OA
BRANCH  21  22
ATOM     22  C   UNL     1     -34.722  27.875   2.774  0.00  0.00    +0.154 C 
BRANCH  22  23
ATOM     23  C   UNL     1     -34.884  29.392   2.805  0.00  0.00    +0.033 C 
BRANCH  23  24
ATOM     24  C   UNL     1     -35.937  29.926   1.817  0.00  0.00    +0.003 C 
ATOM     25  C   UNL     1     -35.490  29.733   0.363  0.00  0.00    +0.000 C 
BRANCH  24  26
ATOM     26  C   UNL     1     -36.232  31.426   2.053  0.00  0.00    +0.005 C 
BRANCH  26  27
ATOM     27  C   UNL     1     -37.304  32.044   1.143  0.00  0.00    +0.025 C 
BRANCH  27  28
ATOM     28  C   UNL     1     -38.190  33.019   1.867  0.00  0.00    -0.035 C 
ATOM     29  C   UNL     1     -38.101  34.362   1.904  0.00  0.00    -0.048 C 
ATOM     30  C   UNL     1     -39.026  35.279   2.652  0.00  0.00    +0.026 C 
ATOM     31  C   UNL     1     -37.007  35.071   1.150  0.00  0.00    +0.026 C 
ENDBRANCH  27  28
ENDBRANCH  26  27
ENDBRANCH  24  26
ENDBRANCH  23  24
ENDBRANCH  22  23
ENDBRANCH  21  22
ENDBRANCH  17  21
ENDBRANCH   1  17
TORSDOF 15
ENDMDL
MODEL 6
REMARK VINA RESULT:      -6.0      2.117      3.143
REMARK  Name = 191367
REMARK  15 active torsions:
REMARK  status: ('A' for Active; 'I' for Inactive)
REMARK    1  A    between atoms: O_1  and  C_7
REMARK    2  A    between atoms: O_1  and  P_17
REMARK    3  A    between atoms: C_3  and  O_8
REMARK    4  A    between atoms: C_4  and  O_10
REMARK    5  A    between atoms: C_5  and  O_12
REMARK    6  A    between atoms: C_6  and  C_14
REMARK    7  A    between atoms: C_14  and  O_15
REMARK    8  A    between atoms: P_17  and  O_19
REMARK    9  A    between atoms: P_17  and  O_21
REMARK   10  A    between atoms: O_21  and  C_22
REMARK   11  A    between atoms: C_22  and  C_23
REMARK   12  A    between atoms: C_23  and  C_24
REMARK   13  A    between atoms: C_24  and  C_26
REMARK   14  A    between atoms: C_26  and  C_27
REMARK   15  A    between atoms: C_27  and  C_28
REMARK                            x       y       z     vdW  Elec       q    Type
REMARK                         _______ _______ _______ _____ _____    ______ ____
ROOT
ATOM      1  O   UNL     1     -34.577  24.882   4.290  0.00  0.00    -0.245 OA
ENDROOT
BRANCH   1   7
ATOM      2  O   UNL     1     -36.913  24.554   4.555  0.00  0.00    -0.326 OA
ATOM      3  C   UNL     1     -35.637  22.116   3.724  0.00  0.00    +0.172 C 
ATOM      4  C   UNL     1     -37.015  22.522   3.196  0.00  0.00    +0.169 C 
ATOM      5  C   UNL     1     -35.371  22.748   5.092  0.00  0.00    +0.197 C 
ATOM      6  C   UNL     1     -37.166  24.048   3.242  0.00  0.00    +0.176 C 
ATOM      7  C   UNL     1     -35.603  24.256   5.053  0.00  0.00    +0.274 C 
BRANCH   3   8
ATOM      8  O   UNL     1     -35.552  20.699   3.848  0.00  0.00    -0.379 OA
ATOM      9  H   UNL     1     -35.318  20.312   2.990  0.00  0.00    +0.211 HD
ENDBRANCH   3   8
BRANCH   4  10
ATOM     10  O   UNL     1     -37.157  22.085   1.848  0.00  0.00    -0.379 OA
ATOM     11  H   UNL     1     -37.545  21.195   1.836  0.00  0.00    +0.211 HD
ENDBRANCH   4  10
BRANCH   5  12
ATOM     12  O   UNL     1     -36.261  22.197   6.064  0.00  0.00    -0.378 OA
ATOM     13  H   UNL     1     -36.216  21.227   6.033  0.00  0.00    +0.211 HD
ENDBRANCH   5  12
BRANCH   6  14
ATOM     14  C   UNL     1     -38.577  24.482   2.853  0.00  0.00    +0.169 C 
BRANCH  14  15
ATOM     15  O   UNL     1     -39.251  24.921   4.018  0.00  0.00    -0.379 OA
ATOM     16  H   UNL     1     -39.809  25.684   3.800  0.00  0.00    +0.211 HD
ENDBRANCH  14  15
ENDBRANCH   6  14
ENDBRANCH   1   7
BRANCH   1  17
ATOM     17  P   UNL     1     -34.008  26.332   4.730  0.00  0.00    +0.478 P 
ATOM     18  O   UNL     1     -33.954  26.561   6.213  0.00  0.00    -0.227 OA
BRANCH  17  19
ATOM     19  O   UNL     1     -32.572  26.436   3.992  0.00  0.00    -0.302 OA
ATOM     20  H   UNL     1     -32.557  27.221   3.423  0.00  0.00    +0.222 HD
ENDBRANCH  17  19
BRANCH  17  21
ATOM     21  O   UNL     1     -34.911  27.398   3.916  0.00  0.00    -0.273 OA
BRANCH  21  22
ATOM     22  C   UNL     1     -34.277  28.206   2.931  0.00  0.00    +0.154 C 
BRANCH  22  23
ATOM     23  C   UNL     1     -35.310  29.161   2.343  0.00  0.00    +0.033 C 
BRANCH  23  24
ATOM     24  C   UNL     1     -35.277  30.572   2.960  0.00  0.00    +0.003 C 
ATOM     25  C   UNL     1     -36.239  31.522   2.236  0.00  0.00    +0.000 C 
BRANCH  24  26
ATOM     26  C   UNL     1     -33.855  31.177   2.924  0.00  0.00    +0.005 C 
BRANCH  26  27
ATOM     27  C   UNL     1     -33.641  32.314   1.912  0.00  0.00    +0.025 C 
BRANCH  27  28
ATOM     28  C   UNL     1     -32.773  33.416   2.452  0.00  0.00    -0.035 C 
ATOM     29  C   UNL     1     -32.968  34.746   2.377  0.00  0.00    -0.048 C 
ATOM     30  C   UNL     1     -32.055  35.797   2.942  0.00  0.00    +0.026 C 
ATOM     31  C   UNL     1     -34.188  35.297   1.686  0.00  0.00    +0.026 C 
ENDBRANCH  27  28
ENDBRANCH  26  27
ENDBRANCH  24  26
ENDBRANCH  23  24
ENDBRANCH  22  23
ENDBRANCH  21  22
ENDBRANCH  17  21
ENDBRANCH   1  17
TORSDOF 15
ENDMDL
MODEL 7
REMARK VINA RESULT:      -6.0      1.179      2.029
REMARK  Name = 191367
REMARK  15 active torsions:
REMARK  status: ('A' for Active; 'I' for Inactive)
REMARK    1  A    between atoms: O_1  and  C_7
REMARK    2  A    between atoms: O_1  and  P_17
REMARK    3  A    between atoms: C_3  and  O_8
REMARK    4  A    between atoms: C_4  and  O_10
REMARK    5  A    between atoms: C_5  and  O_12
REMARK    6  A    between atoms: C_6  and  C_14
REMARK    7  A    between atoms: C_14  and  O_15
REMARK    8  A    between atoms: P_17  and  O_19
REMARK    9  A    between atoms: P_17  and  O_21
REMARK   10  A    between atoms: O_21  and  C_22
REMARK   11  A    between atoms: C_22  and  C_23
REMARK   12  A    between atoms: C_23  and  C_24
REMARK   13  A    between atoms: C_24  and  C_26
REMARK   14  A    between atoms: C_26  and  C_27
REMARK   15  A    between atoms: C_27  and  C_28
REMARK                            x       y       z     vdW  Elec       q    Type
REMARK                         _______ _______ _______ _____ _____    ______ ____
ROOT
ATOM      1  O   UNL     1     -34.234  24.718   4.803  0.00  0.00    -0.245 OA
ENDROOT
BRANCH   1   7
ATOM      2  O   UNL     1     -36.593  24.572   5.019  0.00  0.00    -0.326 OA
ATOM      3  C   UNL     1     -35.524  22.138   3.924  0.00  0.00    +0.172 C 
ATOM      4  C   UNL     1     -36.853  22.722   3.439  0.00  0.00    +0.169 C 
ATOM      5  C   UNL     1     -35.224  22.586   5.355  0.00  0.00    +0.197 C 
ATOM      6  C   UNL     1     -36.871  24.240   3.657  0.00  0.00    +0.176 C 
ATOM      7  C   UNL     1     -35.322  24.104   5.486  0.00  0.00    +0.274 C 
BRANCH   3   8
ATOM      8  O   UNL     1     -35.565  20.714   3.888  0.00  0.00    -0.379 OA
ATOM      9  H   UNL     1     -35.415  20.409   2.979  0.00  0.00    +0.211 HD
ENDBRANCH   3   8
BRANCH   4  10
ATOM     10  O   UNL     1     -37.015  22.453   2.049  0.00  0.00    -0.379 OA
ATOM     11  H   UNL     1     -37.899  22.085   1.892  0.00  0.00    +0.211 HD
ENDBRANCH   4  10
BRANCH   5  12
ATOM     12  O   UNL     1     -36.172  22.011   6.255  0.00  0.00    -0.378 OA
ATOM     13  H   UNL     1     -36.688  21.331   5.792  0.00  0.00    +0.211 HD
ENDBRANCH   5  12
BRANCH   6  14
ATOM     14  C   UNL     1     -38.233  24.838   3.313  0.00  0.00    +0.169 C 
BRANCH  14  15
ATOM     15  O   UNL     1     -38.212  26.217   3.631  0.00  0.00    -0.379 OA
ATOM     16  H   UNL     1     -37.510  26.389   4.277  0.00  0.00    +0.211 HD
ENDBRANCH  14  15
ENDBRANCH   6  14
ENDBRANCH   1   7
BRANCH   1  17
ATOM     17  P   UNL     1     -34.036  26.323   4.870  0.00  0.00    +0.478 P 
ATOM     18  O   UNL     1     -35.200  27.122   4.357  0.00  0.00    -0.227 OA
BRANCH  17  19
ATOM     19  O   UNL     1     -33.667  26.613   6.419  0.00  0.00    -0.302 OA
ATOM     20  H   UNL     1     -34.476  26.832   6.908  0.00  0.00    +0.222 HD
ENDBRANCH  17  19
BRANCH  17  21
ATOM     21  O   UNL     1     -32.638  26.603   4.106  0.00  0.00    -0.273 OA
BRANCH  21  22
ATOM     22  C   UNL     1     -32.477  27.843   3.427  0.00  0.00    +0.154 C 
BRANCH  22  23
ATOM     23  C   UNL     1     -31.458  28.687   4.187  0.00  0.00    +0.033 C 
BRANCH  23  24
ATOM     24  C   UNL     1     -31.866  30.163   4.346  0.00  0.00    +0.003 C 
ATOM     25  C   UNL     1     -31.969  30.559   5.824  0.00  0.00    +0.000 C 
BRANCH  24  26
ATOM     26  C   UNL     1     -33.216  30.460   3.654  0.00  0.00    +0.005 C 
BRANCH  26  27
ATOM     27  C   UNL     1     -33.163  31.471   2.498  0.00  0.00    +0.025 C 
BRANCH  27  28
ATOM     28  C   UNL     1     -32.354  32.693   2.831  0.00  0.00    -0.035 C 
ATOM     29  C   UNL     1     -32.629  33.980   2.549  0.00  0.00    -0.048 C 
ATOM     30  C   UNL     1     -31.771  35.158   2.913  0.00  0.00    +0.026 C 
ATOM     31  C   UNL     1     -33.891  34.342   1.810  0.00  0.00    +0.026 C 
ENDBRANCH  27  28
ENDBRANCH  26  27
ENDBRANCH  24  26
ENDBRANCH  23  24
ENDBRANCH  22  23
ENDBRANCH  21  22
ENDBRANCH  17  21
ENDBRANCH   1  17
TORSDOF 15
ENDMDL
MODEL 8
REMARK VINA RESULT:      -5.9      3.327      5.794
REMARK  Name = 191367
REMARK  15 active torsions:
REMARK  status: ('A' for Active; 'I' for Inactive)
REMARK    1  A    between atoms: O_1  and  C_7
REMARK    2  A    between atoms: O_1  and  P_17
REMARK    3  A    between atoms: C_3  and  O_8
REMARK    4  A    between atoms: C_4  and  O_10
REMARK    5  A    between atoms: C_5  and  O_12
REMARK    6  A    between atoms: C_6  and  C_14
REMARK    7  A    between atoms: C_14  and  O_15
REMARK    8  A    between atoms: P_17  and  O_19
REMARK    9  A    between atoms: P_17  and  O_21
REMARK   10  A    between atoms: O_21  and  C_22
REMARK   11  A    between atoms: C_22  and  C_23
REMARK   12  A    between atoms: C_23  and  C_24
REMARK   13  A    between atoms: C_24  and  C_26
REMARK   14  A    between atoms: C_26  and  C_27
REMARK   15  A    between atoms: C_27  and  C_28
REMARK                            x       y       z     vdW  Elec       q    Type
REMARK                         _______ _______ _______ _____ _____    ______ ____
ROOT
ATOM      1  O   UNL     1     -34.247  24.705   4.700  0.00  0.00    -0.245 OA
ENDROOT
BRANCH   1   7
ATOM      2  O   UNL     1     -36.599  24.557   4.981  0.00  0.00    -0.326 OA
ATOM      3  C   UNL     1     -35.550  22.100   3.917  0.00  0.00    +0.172 C 
ATOM      4  C   UNL     1     -36.893  22.669   3.453  0.00  0.00    +0.169 C 
ATOM      5  C   UNL     1     -35.214  22.584   5.329  0.00  0.00    +0.197 C 
ATOM      6  C   UNL     1     -36.911  24.191   3.634  0.00  0.00    +0.176 C 
ATOM      7  C   UNL     1     -35.315  24.104   5.426  0.00  0.00    +0.274 C 
BRANCH   3   8
ATOM      8  O   UNL     1     -35.587  20.676   3.916  0.00  0.00    -0.379 OA
ATOM      9  H   UNL     1     -35.357  20.345   4.799  0.00  0.00    +0.211 HD
ENDBRANCH   3   8
BRANCH   4  10
ATOM     10  O   UNL     1     -37.090  22.366   2.075  0.00  0.00    -0.379 OA
ATOM     11  H   UNL     1     -37.772  22.951   1.709  0.00  0.00    +0.211 HD
ENDBRANCH   4  10
BRANCH   5  12
ATOM     12  O   UNL     1     -36.138  22.028   6.267  0.00  0.00    -0.378 OA
ATOM     13  H   UNL     1     -35.651  21.539   6.950  0.00  0.00    +0.211 HD
ENDBRANCH   5  12
BRANCH   6  14
ATOM     14  C   UNL     1     -38.283  24.778   3.311  0.00  0.00    +0.169 C 
BRANCH  14  15
ATOM     15  O   UNL     1     -38.265  26.160   3.615  0.00  0.00    -0.379 OA
ATOM     16  H   UNL     1     -37.410  26.537   3.354  0.00  0.00    +0.211 HD
ENDBRANCH  14  15
ENDBRANCH   6  14
ENDBRANCH   1   7
BRANCH   1  17
ATOM     17  P   UNL     1     -34.060  26.313   4.713  0.00  0.00    +0.478 P 
ATOM     18  O   UNL     1     -35.275  27.089   4.294  0.00  0.00    -0.227 OA
BRANCH  17  19
ATOM     19  O   UNL     1     -33.552  26.641   6.214  0.00  0.00    -0.302 OA
ATOM     20  H   UNL     1     -33.915  27.495   6.499  0.00  0.00    +0.222 HD
ENDBRANCH  17  19
BRANCH  17  21
ATOM     21  O   UNL     1     -32.743  26.586   3.817  0.00  0.00    -0.273 OA
BRANCH  21  22
ATOM     22  C   UNL     1     -32.546  25.798   2.648  0.00  0.00    +0.154 C 
BRANCH  22  23
ATOM     23  C   UNL     1     -33.230  26.489   1.473  0.00  0.00    +0.033 C 
BRANCH  23  24
ATOM     24  C   UNL     1     -34.160  25.568   0.663  0.00  0.00    +0.003 C 
ATOM     25  C   UNL     1     -35.621  26.024   0.758  0.00  0.00    +0.000 C 
BRANCH  24  26
ATOM     26  C   UNL     1     -34.063  24.099   1.136  0.00  0.00    +0.005 C 
BRANCH  26  27
ATOM     27  C   UNL     1     -34.243  23.034   0.043  0.00  0.00    +0.025 C 
BRANCH  27  28
ATOM     28  C   UNL     1     -33.041  22.144  -0.103  0.00  0.00    -0.035 C 
ATOM     29  C   UNL     1     -32.915  20.847   0.235  0.00  0.00    -0.048 C 
ATOM     30  C   UNL     1     -31.678  20.013   0.059  0.00  0.00    +0.026 C 
ATOM     31  C   UNL     1     -34.076  20.105   0.844  0.00  0.00    +0.026 C 
ENDBRANCH  27  28
ENDBRANCH  26  27
ENDBRANCH  24  26
ENDBRANCH  23  24
ENDBRANCH  22  23
ENDBRANCH  21  22
ENDBRANCH  17  21
ENDBRANCH   1  17
TORSDOF 15
ENDMDL
MODEL 9
REMARK VINA RESULT:      -5.8      4.635      8.968
REMARK  Name = 191367
REMARK  15 active torsions:
REMARK  status: ('A' for Active; 'I' for Inactive)
REMARK    1  A    between atoms: O_1  and  C_7
REMARK    2  A    between atoms: O_1  and  P_17
REMARK    3  A    between atoms: C_3  and  O_8
REMARK    4  A    between atoms: C_4  and  O_10
REMARK    5  A    between atoms: C_5  and  O_12
REMARK    6  A    between atoms: C_6  and  C_14
REMARK    7  A    between atoms: C_14  and  O_15
REMARK    8  A    between atoms: P_17  and  O_19
REMARK    9  A    between atoms: P_17  and  O_21
REMARK   10  A    between atoms: O_21  and  C_22
REMARK   11  A    between atoms: C_22  and  C_23
REMARK   12  A    between atoms: C_23  and  C_24
REMARK   13  A    between atoms: C_24  and  C_26
REMARK   14  A    between atoms: C_26  and  C_27
REMARK   15  A    between atoms: C_27  and  C_28
REMARK                            x       y       z     vdW  Elec       q    Type
REMARK                         _______ _______ _______ _____ _____    ______ ____
ROOT
ATOM      1  O   UNL     1     -36.233  22.571   2.160  0.00  0.00    -0.245 OA
ENDROOT
BRANCH   1   7
ATOM      2  O   UNL     1     -36.778  22.500   4.469  0.00  0.00    -0.326 OA
ATOM      3  C   UNL     1     -35.861  25.122   3.724  0.00  0.00    +0.172 C 
ATOM      4  C   UNL     1     -35.488  24.492   5.068  0.00  0.00    +0.169 C 
ATOM      5  C   UNL     1     -37.173  24.538   3.196  0.00  0.00    +0.197 C 
ATOM      6  C   UNL     1     -35.516  22.962   4.958  0.00  0.00    +0.176 C 
ATOM      7  C   UNL     1     -37.126  23.012   3.177  0.00  0.00    +0.274 C 
BRANCH   3   8
ATOM      8  O   UNL     1     -36.008  26.532   3.862  0.00  0.00    -0.379 OA
ATOM      9  H   UNL     1     -35.134  26.939   3.978  0.00  0.00    +0.211 HD
ENDBRANCH   3   8
BRANCH   4  10
ATOM     10  O   UNL     1     -34.177  24.904   5.442  0.00  0.00    -0.379 OA
ATOM     11  H   UNL     1     -34.183  25.205   6.364  0.00  0.00    +0.211 HD
ENDBRANCH   4  10
BRANCH   5  12
ATOM     12  O   UNL     1     -38.255  24.928   4.043  0.00  0.00    -0.378 OA
ATOM     13  H   UNL     1     -38.565  24.158   4.547  0.00  0.00    +0.211 HD
ENDBRANCH   5  12
BRANCH   6  14
ATOM     14  C   UNL     1     -35.284  22.299   6.313  0.00  0.00    +0.169 C 
BRANCH  14  15
ATOM     15  O   UNL     1     -35.438  20.900   6.162  0.00  0.00    -0.379 OA
ATOM     16  H   UNL     1     -35.304  20.659   5.232  0.00  0.00    +0.211 HD
ENDBRANCH  14  15
ENDBRANCH   6  14
ENDBRANCH   1   7
BRANCH   1  17
ATOM     17  P   UNL     1     -36.040  20.988   1.882  0.00  0.00    +0.478 P 
ATOM     18  O   UNL     1     -34.947  20.339   2.682  0.00  0.00    -0.227 OA
BRANCH  17  19
ATOM     19  O   UNL     1     -37.508  20.357   2.135  0.00  0.00    -0.302 OA
ATOM     20  H   UNL     1     -37.771  19.828   1.365  0.00  0.00    +0.222 HD
ENDBRANCH  17  19
BRANCH  17  21
ATOM     21  O   UNL     1     -35.865  20.865   0.279  0.00  0.00    -0.273 OA
BRANCH  21  22
ATOM     22  C   UNL     1     -34.674  20.272  -0.226  0.00  0.00    +0.154 C 
BRANCH  22  23
ATOM     23  C   UNL     1     -33.568  21.323  -0.226  0.00  0.00    +0.033 C 
BRANCH  23  24
ATOM     24  C   UNL     1     -32.166  20.752   0.052  0.00  0.00    +0.003 C 
ATOM     25  C   UNL     1     -31.306  20.734  -1.218  0.00  0.00    +0.000 C 
BRANCH  24  26
ATOM     26  C   UNL     1     -32.236  19.318   0.628  0.00  0.00    +0.005 C 
BRANCH  26  27
ATOM     27  C   UNL     1     -31.296  18.293  -0.024  0.00  0.00    +0.025 C 
BRANCH  27  28
ATOM     28  C   UNL     1     -30.259  17.768   0.929  0.00  0.00    -0.035 C 
ATOM     29  C   UNL     1     -28.930  17.986   0.921  0.00  0.00    -0.048 C 
ATOM     30  C   UNL     1     -27.945  17.427   1.909  0.00  0.00    +0.026 C 
ATOM     31  C   UNL     1     -28.310  18.857  -0.141  0.00  0.00    +0.026 C 
ENDBRANCH  27  28
ENDBRANCH  26  27
ENDBRANCH  24  26
ENDBRANCH  23  24
ENDBRANCH  22  23
ENDBRANCH  21  22
ENDBRANCH  17  21
ENDBRANCH   1  17
TORSDOF 15
ENDMDL
