MODEL 1
REMARK VINA RESULT:      -6.6      0.000      0.000
REMARK  Name = 5284195
REMARK  11 active torsions:
REMARK  status: ('A' for Active; 'I' for Inactive)
REMARK    1  A    between atoms: C_6  and  C_26
REMARK    2  A    between atoms: C_7  and  O_20
REMARK    3  A    between atoms: C_11  and  O_22
REMARK    4  A    between atoms: C_19  and  O_24
REMARK    5  A    between atoms: C_26  and  C_28
REMARK    6  A    between atoms: C_28  and  C_29
REMARK    7  A    between atoms: C_29  and  C_30
REMARK    8  A    between atoms: C_30  and  O_31
REMARK    9  A    between atoms: C_30  and  C_33
REMARK   10  A    between atoms: C_33  and  C_35
REMARK   11  A    between atoms: C_35  and  O_36
REMARK                            x       y       z     vdW  Elec       q    Type
REMARK                         _______ _______ _______ _____ _____    ______ ____
ROOT
ATOM      1  C   UNL     1     -36.218  22.763   2.661  0.00  0.00    +0.025 C 
ATOM      2  C   UNL     1     -37.727  22.525   2.408  0.00  0.00    +0.005 C 
ATOM      3  C   UNL     1     -38.018  21.872   1.048  0.00  0.00    +0.027 C 
ATOM      4  C   UNL     1     -37.268  20.497   0.980  0.00  0.00    +0.005 C 
ATOM      5  C   UNL     1     -37.528  19.755  -0.389  0.00  0.00    +0.000 C 
ATOM      6  C   UNL     1     -36.321  23.487   4.031  0.00  0.00    +0.002 C 
ATOM      7  C   UNL     1     -35.500  21.397   2.659  0.00  0.00    +0.110 C 
ATOM      8  C   UNL     1     -35.762  20.633   1.345  0.00  0.00    +0.029 C 
ATOM      9  C   UNL     1     -39.072  19.606  -0.560  0.00  0.00    +0.005 C 
ATOM     10  C   UNL     1     -38.363  23.881   2.710  0.00  0.00    +0.000 C 
ATOM     11  C   UNL     1     -39.528  21.714   0.772  0.00  0.00    +0.110 C 
ATOM     12  C   UNL     1     -37.504  24.463   3.845  0.00  0.00    +0.000 C 
ATOM     13  C   UNL     1     -39.795  20.962  -0.534  0.00  0.00    +0.029 C 
ATOM     14  C   UNL     1     -36.919  18.324  -0.361  0.00  0.00    +0.002 C 
ATOM     15  C   UNL     1     -35.549  23.685   1.607  0.00  0.00    +0.002 C 
ATOM     16  C   UNL     1     -39.465  18.788  -1.802  0.00  0.00    +0.029 C 
ATOM     17  C   UNL     1     -36.886  20.534  -1.568  0.00  0.00    +0.000 C 
ATOM     18  C   UNL     1     -37.308  17.467  -1.573  0.00  0.00    +0.029 C 
ATOM     19  C   UNL     1     -38.818  17.402  -1.791  0.00  0.00    +0.111 C 
ENDROOT
BRANCH   7  20
ATOM     20  O   UNL     1     -35.941  20.565   3.731  0.00  0.00    -0.384 OA
ATOM     21  H   UNL     1     -36.910  20.568   3.766  0.00  0.00    +0.210 HD
ENDBRANCH   7  20
BRANCH  11  22
ATOM     22  O   UNL     1     -40.171  20.998   1.826  0.00  0.00    -0.384 OA
ATOM     23  H   UNL     1     -40.154  21.530   2.636  0.00  0.00    +0.210 HD
ENDBRANCH  11  22
BRANCH  19  24
ATOM     24  O   UNL     1     -39.416  16.631  -0.749  0.00  0.00    -0.384 OA
ATOM     25  H   UNL     1     -40.356  16.859  -0.676  0.00  0.00    +0.210 HD
ENDBRANCH  19  24
BRANCH   6  26
ATOM     26  C   UNL     1     -35.056  24.172   4.530  0.00  0.00    +0.000 C 
ATOM     27  C   UNL     1     -34.403  23.330   5.630  0.00  0.00    +0.000 C 
BRANCH  26  28
ATOM     28  C   UNL     1     -35.382  25.603   5.008  0.00  0.00    +0.002 C 
BRANCH  28  29
ATOM     29  C   UNL     1     -34.166  26.362   5.562  0.00  0.00    +0.029 C 
BRANCH  29  30
ATOM     30  C   UNL     1     -33.429  27.142   4.462  0.00  0.00    +0.113 C 
BRANCH  30  31
ATOM     31  O   UNL     1     -34.366  28.017   3.830  0.00  0.00    -0.384 OA
ATOM     32  H   UNL     1     -34.577  27.681   2.945  0.00  0.00    +0.210 HD
ENDBRANCH  30  31
BRANCH  30  33
ATOM     33  C   UNL     1     -32.220  27.969   4.956  0.00  0.00    +0.056 C 
ATOM     34  C   UNL     1     -32.139  28.000   6.485  0.00  0.00    +0.005 C 
BRANCH  33  35
ATOM     35  C   UNL     1     -32.193  29.392   4.377  0.00  0.00    +0.139 C 
BRANCH  35  36
ATOM     36  O   UNL     1     -32.913  30.291   5.213  0.00  0.00    -0.382 OA
ATOM     37  H   UNL     1     -33.443  30.889   4.665  0.00  0.00    +0.210 HD
ENDBRANCH  35  36
ENDBRANCH  33  35
ENDBRANCH  30  33
ENDBRANCH  29  30
ENDBRANCH  28  29
ENDBRANCH  26  28
ENDBRANCH   6  26
TORSDOF 11
ENDMDL
MODEL 2
REMARK VINA RESULT:      -6.5      2.831     10.876
REMARK  Name = 5284195
REMARK  11 active torsions:
REMARK  status: ('A' for Active; 'I' for Inactive)
REMARK    1  A    between atoms: C_6  and  C_26
REMARK    2  A    between atoms: C_7  and  O_20
REMARK    3  A    between atoms: C_11  and  O_22
REMARK    4  A    between atoms: C_19  and  O_24
REMARK    5  A    between atoms: C_26  and  C_28
REMARK    6  A    between atoms: C_28  and  C_29
REMARK    7  A    between atoms: C_29  and  C_30
REMARK    8  A    between atoms: C_30  and  O_31
REMARK    9  A    between atoms: C_30  and  C_33
REMARK   10  A    between atoms: C_33  and  C_35
REMARK   11  A    between atoms: C_35  and  O_36
REMARK                            x       y       z     vdW  Elec       q    Type
REMARK                         _______ _______ _______ _____ _____    ______ ____
ROOT
ATOM      1  C   UNL     1     -33.777  27.270   3.851  0.00  0.00    +0.025 C 
ATOM      2  C   UNL     1     -33.135  28.072   5.009  0.00  0.00    +0.005 C 
ATOM      3  C   UNL     1     -31.938  28.926   4.564  0.00  0.00    +0.027 C 
ATOM      4  C   UNL     1     -32.418  29.927   3.458  0.00  0.00    +0.005 C 
ATOM      5  C   UNL     1     -31.243  30.853   2.956  0.00  0.00    +0.000 C 
ATOM      6  C   UNL     1     -34.847  26.494   4.667  0.00  0.00    +0.002 C 
ATOM      7  C   UNL     1     -34.308  28.268   2.800  0.00  0.00    +0.110 C 
ATOM      8  C   UNL     1     -33.187  29.209   2.312  0.00  0.00    +0.029 C 
ATOM      9  C   UNL     1     -30.645  31.578   4.203  0.00  0.00    +0.005 C 
ATOM     10  C   UNL     1     -32.909  27.021   6.095  0.00  0.00    +0.000 C 
ATOM     11  C   UNL     1     -31.256  29.657   5.739  0.00  0.00    +0.110 C 
ATOM     12  C   UNL     1     -34.088  26.047   5.938  0.00  0.00    +0.000 C 
ATOM     13  C   UNL     1     -30.138  30.588   5.263  0.00  0.00    +0.029 C 
ATOM     14  C   UNL     1     -31.782  31.949   1.991  0.00  0.00    +0.002 C 
ATOM     15  C   UNL     1     -32.798  26.284   3.159  0.00  0.00    +0.002 C 
ATOM     16  C   UNL     1     -29.563  32.609   3.839  0.00  0.00    +0.029 C 
ATOM     17  C   UNL     1     -30.173  30.023   2.199  0.00  0.00    +0.000 C 
ATOM     18  C   UNL     1     -30.739  33.013   1.624  0.00  0.00    +0.029 C 
ATOM     19  C   UNL     1     -30.088  33.651   2.849  0.00  0.00    +0.111 C 
ENDROOT
BRANCH   7  20
ATOM     20  O   UNL     1     -35.353  29.085   3.325  0.00  0.00    -0.384 OA
ATOM     21  H   UNL     1     -35.518  28.845   4.250  0.00  0.00    +0.210 HD
ENDBRANCH   7  20
BRANCH  11  22
ATOM     22  O   UNL     1     -32.195  30.443   6.471  0.00  0.00    -0.384 OA
ATOM     23  H   UNL     1     -33.063  30.011   6.455  0.00  0.00    +0.210 HD
ENDBRANCH  11  22
BRANCH  19  24
ATOM     24  O   UNL     1     -31.043  34.473   3.520  0.00  0.00    -0.384 OA
ATOM     25  H   UNL     1     -30.663  35.352   3.673  0.00  0.00    +0.210 HD
ENDBRANCH  19  24
BRANCH   6  26
ATOM     26  C   UNL     1     -35.540  25.343   3.951  0.00  0.00    +0.000 C 
ATOM     27  C   UNL     1     -36.839  25.834   3.305  0.00  0.00    +0.000 C 
BRANCH  26  28
ATOM     28  C   UNL     1     -35.781  24.177   4.933  0.00  0.00    +0.002 C 
BRANCH  28  29
ATOM     29  C   UNL     1     -34.976  22.911   4.599  0.00  0.00    +0.029 C 
BRANCH  29  30
ATOM     30  C   UNL     1     -35.809  21.898   3.799  0.00  0.00    +0.113 C 
BRANCH  30  31
ATOM     31  O   UNL     1     -37.141  22.403   3.687  0.00  0.00    -0.384 OA
ATOM     32  H   UNL     1     -37.760  21.664   3.577  0.00  0.00    +0.210 HD
ENDBRANCH  30  31
BRANCH  30  33
ATOM     33  C   UNL     1     -35.267  21.589   2.384  0.00  0.00    +0.056 C 
ATOM     34  C   UNL     1     -35.631  22.690   1.383  0.00  0.00    +0.005 C 
BRANCH  33  35
ATOM     35  C   UNL     1     -35.701  20.209   1.865  0.00  0.00    +0.139 C 
BRANCH  35  36
ATOM     36  O   UNL     1     -36.825  19.728   2.593  0.00  0.00    -0.382 OA
ATOM     37  H   UNL     1     -36.905  20.218   3.426  0.00  0.00    +0.210 HD
ENDBRANCH  35  36
ENDBRANCH  33  35
ENDBRANCH  30  33
ENDBRANCH  29  30
ENDBRANCH  28  29
ENDBRANCH  26  28
ENDBRANCH   6  26
TORSDOF 11
ENDMDL
MODEL 3
REMARK VINA RESULT:      -6.3      1.458      1.955
REMARK  Name = 5284195
REMARK  11 active torsions:
REMARK  status: ('A' for Active; 'I' for Inactive)
REMARK    1  A    between atoms: C_6  and  C_26
REMARK    2  A    between atoms: C_7  and  O_20
REMARK    3  A    between atoms: C_11  and  O_22
REMARK    4  A    between atoms: C_19  and  O_24
REMARK    5  A    between atoms: C_26  and  C_28
REMARK    6  A    between atoms: C_28  and  C_29
REMARK    7  A    between atoms: C_29  and  C_30
REMARK    8  A    between atoms: C_30  and  O_31
REMARK    9  A    between atoms: C_30  and  C_33
REMARK   10  A    between atoms: C_33  and  C_35
REMARK   11  A    between atoms: C_35  and  O_36
REMARK                            x       y       z     vdW  Elec       q    Type
REMARK                         _______ _______ _______ _____ _____    ______ ____
ROOT
ATOM      1  C   UNL     1     -36.041  22.174   2.226  0.00  0.00    +0.025 C 
ATOM      2  C   UNL     1     -37.262  21.665   1.421  0.00  0.00    +0.005 C 
ATOM      3  C   UNL     1     -36.874  20.961   0.112  0.00  0.00    +0.027 C 
ATOM      4  C   UNL     1     -35.946  19.745   0.451  0.00  0.00    +0.005 C 
ATOM      5  C   UNL     1     -35.512  18.958  -0.848  0.00  0.00    +0.000 C 
ATOM      6  C   UNL     1     -36.798  22.876   3.385  0.00  0.00    +0.002 C 
ATOM      7  C   UNL     1     -35.169  20.961   2.613  0.00  0.00    +0.110 C 
ATOM      8  C   UNL     1     -34.755  20.153   1.366  0.00  0.00    +0.029 C 
ATOM      9  C   UNL     1     -36.813  18.531  -1.597  0.00  0.00    +0.005 C 
ATOM     10  C   UNL     1     -38.177  22.886   1.342  0.00  0.00    +0.000 C 
ATOM     11  C   UNL     1     -38.100  20.530  -0.720  0.00  0.00    +0.110 C 
ATOM     12  C   UNL     1     -37.951  23.622   2.673  0.00  0.00    +0.000 C 
ATOM     13  C   UNL     1     -37.696  19.734  -1.964  0.00  0.00    +0.029 C 
ATOM     14  C   UNL     1     -34.740  17.661  -0.471  0.00  0.00    +0.002 C 
ATOM     15  C   UNL     1     -35.166  23.194   1.450  0.00  0.00    +0.002 C 
ATOM     16  C   UNL     1     -36.537  17.647  -2.826  0.00  0.00    +0.029 C 
ATOM     17  C   UNL     1     -34.590  19.832  -1.738  0.00  0.00    +0.000 C 
ATOM     18  C   UNL     1     -34.467  16.739  -1.667  0.00  0.00    +0.029 C 
ATOM     19  C   UNL     1     -35.731  16.401  -2.454  0.00  0.00    +0.111 C 
ENDROOT
BRANCH   7  20
ATOM     20  O   UNL     1     -35.859  20.070   3.488  0.00  0.00    -0.384 OA
ATOM     21  H   UNL     1     -35.729  20.354   4.406  0.00  0.00    +0.210 HD
ENDBRANCH   7  20
BRANCH  11  22
ATOM     22  O   UNL     1     -38.984  19.717   0.049  0.00  0.00    -0.384 OA
ATOM     23  H   UNL     1     -39.875  19.755  -0.333  0.00  0.00    +0.210 HD
ENDBRANCH  11  22
BRANCH  19  24
ATOM     24  O   UNL     1     -36.562  15.541  -1.673  0.00  0.00    -0.384 OA
ATOM     25  H   UNL     1     -37.490  15.674  -1.921  0.00  0.00    +0.210 HD
ENDBRANCH  19  24
BRANCH   6  26
ATOM     26  C   UNL     1     -35.969  23.783   4.284  0.00  0.00    +0.000 C 
ATOM     27  C   UNL     1     -35.495  23.006   5.516  0.00  0.00    +0.000 C 
BRANCH  26  28
ATOM     28  C   UNL     1     -36.781  25.039   4.664  0.00  0.00    +0.002 C 
BRANCH  28  29
ATOM     29  C   UNL     1     -35.920  26.190   5.207  0.00  0.00    +0.029 C 
BRANCH  29  30
ATOM     30  C   UNL     1     -34.862  26.642   4.189  0.00  0.00    +0.113 C 
BRANCH  30  31
ATOM     31  O   UNL     1     -35.209  27.952   3.734  0.00  0.00    -0.384 OA
ATOM     32  H   UNL     1     -35.318  27.941   2.770  0.00  0.00    +0.210 HD
ENDBRANCH  30  31
BRANCH  30  33
ATOM     33  C   UNL     1     -33.413  26.665   4.730  0.00  0.00    +0.056 C 
ATOM     34  C   UNL     1     -33.377  26.621   6.260  0.00  0.00    +0.005 C 
BRANCH  33  35
ATOM     35  C   UNL     1     -32.593  27.849   4.194  0.00  0.00    +0.139 C 
BRANCH  35  36
ATOM     36  O   UNL     1     -32.913  29.043   4.901  0.00  0.00    -0.382 OA
ATOM     37  H   UNL     1     -32.496  29.022   5.776  0.00  0.00    +0.210 HD
ENDBRANCH  35  36
ENDBRANCH  33  35
ENDBRANCH  30  33
ENDBRANCH  29  30
ENDBRANCH  28  29
ENDBRANCH  26  28
ENDBRANCH   6  26
TORSDOF 11
ENDMDL
MODEL 4
REMARK VINA RESULT:      -6.2      3.434      5.144
REMARK  Name = 5284195
REMARK  11 active torsions:
REMARK  status: ('A' for Active; 'I' for Inactive)
REMARK    1  A    between atoms: C_6  and  C_26
REMARK    2  A    between atoms: C_7  and  O_20
REMARK    3  A    between atoms: C_11  and  O_22
REMARK    4  A    between atoms: C_19  and  O_24
REMARK    5  A    between atoms: C_26  and  C_28
REMARK    6  A    between atoms: C_28  and  C_29
REMARK    7  A    between atoms: C_29  and  C_30
REMARK    8  A    between atoms: C_30  and  O_31
REMARK    9  A    between atoms: C_30  and  C_33
REMARK   10  A    between atoms: C_33  and  C_35
REMARK   11  A    between atoms: C_35  and  O_36
REMARK                            x       y       z     vdW  Elec       q    Type
REMARK                         _______ _______ _______ _____ _____    ______ ____
ROOT
ATOM      1  C   UNL     1     -35.681  21.684   1.345  0.00  0.00    +0.025 C 
ATOM      2  C   UNL     1     -34.482  21.988   0.413  0.00  0.00    +0.005 C 
ATOM      3  C   UNL     1     -33.394  20.905   0.452  0.00  0.00    +0.027 C 
ATOM      4  C   UNL     1     -34.032  19.537   0.029  0.00  0.00    +0.005 C 
ATOM      5  C   UNL     1     -32.969  18.369   0.031  0.00  0.00    +0.000 C 
ATOM      6  C   UNL     1     -36.495  22.986   1.115  0.00  0.00    +0.002 C 
ATOM      7  C   UNL     1     -36.343  20.370   0.877  0.00  0.00    +0.110 C 
ATOM      8  C   UNL     1     -35.321  19.216   0.839  0.00  0.00    +0.029 C 
ATOM      9  C   UNL     1     -31.794  18.798  -0.902  0.00  0.00    +0.005 C 
ATOM     10  C   UNL     1     -34.092  23.419   0.782  0.00  0.00    +0.000 C 
ATOM     11  C   UNL     1     -32.169  21.257  -0.418  0.00  0.00    +0.110 C 
ATOM     12  C   UNL     1     -35.423  24.100   1.140  0.00  0.00    +0.000 C 
ATOM     13  C   UNL     1     -31.147  20.118  -0.455  0.00  0.00    +0.029 C 
ATOM     14  C   UNL     1     -33.584  17.067  -0.558  0.00  0.00    +0.002 C 
ATOM     15  C   UNL     1     -35.287  21.544   2.840  0.00  0.00    +0.002 C 
ATOM     16  C   UNL     1     -30.738  17.694  -1.087  0.00  0.00    +0.029 C 
ATOM     17  C   UNL     1     -32.485  18.069   1.474  0.00  0.00    +0.000 C 
ATOM     18  C   UNL     1     -32.557  15.949  -0.781  0.00  0.00    +0.029 C 
ATOM     19  C   UNL     1     -31.362  16.401  -1.616  0.00  0.00    +0.111 C 
ENDROOT
BRANCH   7  20
ATOM     20  O   UNL     1     -36.898  20.492  -0.431  0.00  0.00    -0.384 OA
ATOM     21  H   UNL     1     -36.219  20.823  -1.041  0.00  0.00    +0.210 HD
ENDBRANCH   7  20
BRANCH  11  22
ATOM     22  O   UNL     1     -32.556  21.539  -1.762  0.00  0.00    -0.384 OA
ATOM     23  H   UNL     1     -32.170  22.384  -2.040  0.00  0.00    +0.210 HD
ENDBRANCH  11  22
BRANCH  19  24
ATOM     24  O   UNL     1     -31.778  16.618  -2.964  0.00  0.00    -0.384 OA
ATOM     25  H   UNL     1     -31.819  15.768  -3.431  0.00  0.00    +0.210 HD
ENDBRANCH  19  24
BRANCH   6  26
ATOM     26  C   UNL     1     -37.645  23.244   2.079  0.00  0.00    +0.000 C 
ATOM     27  C   UNL     1     -38.978  22.906   1.406  0.00  0.00    +0.000 C 
BRANCH  26  28
ATOM     28  C   UNL     1     -37.598  24.703   2.581  0.00  0.00    +0.002 C 
BRANCH  28  29
ATOM     29  C   UNL     1     -37.383  24.829   4.097  0.00  0.00    +0.029 C 
BRANCH  29  30
ATOM     30  C   UNL     1     -36.229  25.787   4.433  0.00  0.00    +0.113 C 
BRANCH  30  31
ATOM     31  O   UNL     1     -36.673  26.679   5.457  0.00  0.00    -0.384 OA
ATOM     32  H   UNL     1     -37.621  26.546   5.614  0.00  0.00    +0.210 HD
ENDBRANCH  30  31
BRANCH  30  33
ATOM     33  C   UNL     1     -34.929  25.092   4.898  0.00  0.00    +0.056 C 
ATOM     34  C   UNL     1     -35.213  23.755   5.588  0.00  0.00    +0.005 C 
BRANCH  33  35
ATOM     35  C   UNL     1     -34.055  25.992   5.786  0.00  0.00    +0.139 C 
BRANCH  35  36
ATOM     36  O   UNL     1     -33.736  27.206   5.113  0.00  0.00    -0.382 OA
ATOM     37  H   UNL     1     -34.527  27.547   4.670  0.00  0.00    +0.210 HD
ENDBRANCH  35  36
ENDBRANCH  33  35
ENDBRANCH  30  33
ENDBRANCH  29  30
ENDBRANCH  28  29
ENDBRANCH  26  28
ENDBRANCH   6  26
TORSDOF 11
ENDMDL
MODEL 5
REMARK VINA RESULT:      -6.0      3.535      5.744
REMARK  Name = 5284195
REMARK  11 active torsions:
REMARK  status: ('A' for Active; 'I' for Inactive)
REMARK    1  A    between atoms: C_6  and  C_26
REMARK    2  A    between atoms: C_7  and  O_20
REMARK    3  A    between atoms: C_11  and  O_22
REMARK    4  A    between atoms: C_19  and  O_24
REMARK    5  A    between atoms: C_26  and  C_28
REMARK    6  A    between atoms: C_28  and  C_29
REMARK    7  A    between atoms: C_29  and  C_30
REMARK    8  A    between atoms: C_30  and  O_31
REMARK    9  A    between atoms: C_30  and  C_33
REMARK   10  A    between atoms: C_33  and  C_35
REMARK   11  A    between atoms: C_35  and  O_36
REMARK                            x       y       z     vdW  Elec       q    Type
REMARK                         _______ _______ _______ _____ _____    ______ ____
ROOT
ATOM      1  C   UNL     1     -37.024  22.522   1.629  0.00  0.00    +0.025 C 
ATOM      2  C   UNL     1     -37.417  21.084   1.210  0.00  0.00    +0.005 C 
ATOM      3  C   UNL     1     -36.408  20.435   0.250  0.00  0.00    +0.027 C 
ATOM      4  C   UNL     1     -35.005  20.395   0.947  0.00  0.00    +0.005 C 
ATOM      5  C   UNL     1     -33.912  19.728   0.026  0.00  0.00    +0.000 C 
ATOM      6  C   UNL     1     -38.271  22.867   2.487  0.00  0.00    +0.002 C 
ATOM      7  C   UNL     1     -35.674  22.462   2.374  0.00  0.00    +0.110 C 
ATOM      8  C   UNL     1     -34.591  21.785   1.509  0.00  0.00    +0.029 C 
ATOM      9  C   UNL     1     -34.428  18.308  -0.368  0.00  0.00    +0.005 C 
ATOM     10  C   UNL     1     -38.867  21.226   0.748  0.00  0.00    +0.000 C 
ATOM     11  C   UNL     1     -36.851  19.035  -0.224  0.00  0.00    +0.110 C 
ATOM     12  C   UNL     1     -39.454  22.319   1.656  0.00  0.00    +0.000 C 
ATOM     13  C   UNL     1     -35.783  18.360  -1.089  0.00  0.00    +0.029 C 
ATOM     14  C   UNL     1     -32.577  19.543   0.804  0.00  0.00    +0.002 C 
ATOM     15  C   UNL     1     -36.896  23.505   0.435  0.00  0.00    +0.002 C 
ATOM     16  C   UNL     1     -33.399  17.494  -1.172  0.00  0.00    +0.029 C 
ATOM     17  C   UNL     1     -33.630  20.608  -1.220  0.00  0.00    +0.000 C 
ATOM     18  C   UNL     1     -31.532  18.714   0.044  0.00  0.00    +0.029 C 
ATOM     19  C   UNL     1     -32.072  17.364  -0.421  0.00  0.00    +0.111 C 
ENDROOT
BRANCH   7  20
ATOM     20  O   UNL     1     -35.772  21.723   3.591  0.00  0.00    -0.384 OA
ATOM     21  H   UNL     1     -34.882  21.495   3.903  0.00  0.00    +0.210 HD
ENDBRANCH   7  20
BRANCH  11  22
ATOM     22  O   UNL     1     -37.120  18.177   0.884  0.00  0.00    -0.384 OA
ATOM     23  H   UNL     1     -38.079  18.101   1.010  0.00  0.00    +0.210 HD
ENDBRANCH  11  22
BRANCH  19  24
ATOM     24  O   UNL     1     -32.274  16.517   0.710  0.00  0.00    -0.384 OA
ATOM     25  H   UNL     1     -33.017  15.918   0.539  0.00  0.00    +0.210 HD
ENDBRANCH  19  24
BRANCH   6  26
ATOM     26  C   UNL     1     -38.442  24.329   2.875  0.00  0.00    +0.000 C 
ATOM     27  C   UNL     1     -37.542  24.663   4.069  0.00  0.00    +0.000 C 
BRANCH  26  28
ATOM     28  C   UNL     1     -39.928  24.631   3.162  0.00  0.00    +0.002 C 
BRANCH  28  29
ATOM     29  C   UNL     1     -40.339  26.075   2.837  0.00  0.00    +0.029 C 
BRANCH  29  30
ATOM     30  C   UNL     1     -41.614  26.490   3.588  0.00  0.00    +0.113 C 
BRANCH  30  31
ATOM     31  O   UNL     1     -41.292  27.586   4.446  0.00  0.00    -0.384 OA
ATOM     32  H   UNL     1     -40.718  28.209   3.973  0.00  0.00    +0.210 HD
ENDBRANCH  30  31
BRANCH  30  33
ATOM     33  C   UNL     1     -42.797  26.893   2.677  0.00  0.00    +0.056 C 
ATOM     34  C   UNL     1     -43.351  25.696   1.899  0.00  0.00    +0.005 C 
BRANCH  33  35
ATOM     35  C   UNL     1     -42.453  28.053   1.729  0.00  0.00    +0.139 C 
BRANCH  35  36
ATOM     36  O   UNL     1     -42.357  29.278   2.447  0.00  0.00    -0.382 OA
ATOM     37  H   UNL     1     -41.444  29.602   2.412  0.00  0.00    +0.210 HD
ENDBRANCH  35  36
ENDBRANCH  33  35
ENDBRANCH  30  33
ENDBRANCH  29  30
ENDBRANCH  28  29
ENDBRANCH  26  28
ENDBRANCH   6  26
TORSDOF 11
ENDMDL
MODEL 6
REMARK VINA RESULT:      -6.0      2.406      4.443
REMARK  Name = 5284195
REMARK  11 active torsions:
REMARK  status: ('A' for Active; 'I' for Inactive)
REMARK    1  A    between atoms: C_6  and  C_26
REMARK    2  A    between atoms: C_7  and  O_20
REMARK    3  A    between atoms: C_11  and  O_22
REMARK    4  A    between atoms: C_19  and  O_24
REMARK    5  A    between atoms: C_26  and  C_28
REMARK    6  A    between atoms: C_28  and  C_29
REMARK    7  A    between atoms: C_29  and  C_30
REMARK    8  A    between atoms: C_30  and  O_31
REMARK    9  A    between atoms: C_30  and  C_33
REMARK   10  A    between atoms: C_33  and  C_35
REMARK   11  A    between atoms: C_35  and  O_36
REMARK                            x       y       z     vdW  Elec       q    Type
REMARK                         _______ _______ _______ _____ _____    ______ ____
ROOT
ATOM      1  C   UNL     1     -37.352  22.120   1.424  0.00  0.00    +0.025 C 
ATOM      2  C   UNL     1     -37.606  20.675   0.930  0.00  0.00    +0.005 C 
ATOM      3  C   UNL     1     -36.483  20.136   0.030  0.00  0.00    +0.027 C 
ATOM      4  C   UNL     1     -35.136  20.171   0.830  0.00  0.00    +0.005 C 
ATOM      5  C   UNL     1     -33.931  19.620  -0.027  0.00  0.00    +0.000 C 
ATOM      6  C   UNL     1     -38.682  22.341   2.196  0.00  0.00    +0.002 C 
ATOM      7  C   UNL     1     -36.060  22.130   2.268  0.00  0.00    +0.110 C 
ATOM      8  C   UNL     1     -34.869  21.566   1.467  0.00  0.00    +0.029 C 
ATOM      9  C   UNL     1     -34.309  18.182  -0.504  0.00  0.00    +0.005 C 
ATOM     10  C   UNL     1     -39.024  20.729   0.364  0.00  0.00    +0.000 C 
ATOM     11  C   UNL     1     -36.784  18.727  -0.522  0.00  0.00    +0.110 C 
ATOM     12  C   UNL     1     -39.756  21.742   1.259  0.00  0.00    +0.000 C 
ATOM     13  C   UNL     1     -35.608  18.163  -1.324  0.00  0.00    +0.029 C 
ATOM     14  C   UNL     1     -32.647  19.502   0.844  0.00  0.00    +0.002 C 
ATOM     15  C   UNL     1     -37.211  23.154   0.275  0.00  0.00    +0.002 C 
ATOM     16  C   UNL     1     -33.165  17.476  -1.253  0.00  0.00    +0.029 C 
ATOM     17  C   UNL     1     -33.624  20.565  -1.218  0.00  0.00    +0.000 C 
ATOM     18  C   UNL     1     -31.490  18.780   0.141  0.00  0.00    +0.029 C 
ATOM     19  C   UNL     1     -31.892  17.413  -0.408  0.00  0.00    +0.111 C 
ENDROOT
BRANCH   7  20
ATOM     20  O   UNL     1     -36.192  21.340   3.449  0.00  0.00    -0.384 OA
ATOM     21  H   UNL     1     -35.943  21.871   4.222  0.00  0.00    +0.210 HD
ENDBRANCH   7  20
BRANCH  11  22
ATOM     22  O   UNL     1     -37.069  17.811   0.535  0.00  0.00    -0.384 OA
ATOM     23  H   UNL     1     -37.997  17.902   0.800  0.00  0.00    +0.210 HD
ENDBRANCH  11  22
BRANCH  19  24
ATOM     24  O   UNL     1     -32.113  16.512   0.677  0.00  0.00    -0.384 OA
ATOM     25  H   UNL     1     -32.693  15.791   0.387  0.00  0.00    +0.210 HD
ENDBRANCH  19  24
BRANCH   6  26
ATOM     26  C   UNL     1     -38.990  23.772   2.616  0.00  0.00    +0.000 C 
ATOM     27  C   UNL     1     -40.023  24.386   1.667  0.00  0.00    +0.000 C 
BRANCH  26  28
ATOM     28  C   UNL     1     -37.688  24.599   2.675  0.00  0.00    +0.002 C 
BRANCH  28  29
ATOM     29  C   UNL     1     -37.447  25.277   4.032  0.00  0.00    +0.029 C 
BRANCH  29  30
ATOM     30  C   UNL     1     -35.974  25.676   4.218  0.00  0.00    +0.113 C 
BRANCH  30  31
ATOM     31  O   UNL     1     -35.887  27.102   4.161  0.00  0.00    -0.384 OA
ATOM     32  H   UNL     1     -35.052  27.358   3.739  0.00  0.00    +0.210 HD
ENDBRANCH  30  31
BRANCH  30  33
ATOM     33  C   UNL     1     -35.334  25.184   5.537  0.00  0.00    +0.056 C 
ATOM     34  C   UNL     1     -34.155  26.066   5.961  0.00  0.00    +0.005 C 
BRANCH  33  35
ATOM     35  C   UNL     1     -34.922  23.704   5.486  0.00  0.00    +0.139 C 
BRANCH  35  36
ATOM     36  O   UNL     1     -35.973  22.872   5.963  0.00  0.00    -0.382 OA
ATOM     37  H   UNL     1     -35.668  21.953   5.997  0.00  0.00    +0.210 HD
ENDBRANCH  35  36
ENDBRANCH  33  35
ENDBRANCH  30  33
ENDBRANCH  29  30
ENDBRANCH  28  29
ENDBRANCH  26  28
ENDBRANCH   6  26
TORSDOF 11
ENDMDL
MODEL 7
REMARK VINA RESULT:      -5.9      4.368      8.234
REMARK  Name = 5284195
REMARK  11 active torsions:
REMARK  status: ('A' for Active; 'I' for Inactive)
REMARK    1  A    between atoms: C_6  and  C_26
REMARK    2  A    between atoms: C_7  and  O_20
REMARK    3  A    between atoms: C_11  and  O_22
REMARK    4  A    between atoms: C_19  and  O_24
REMARK    5  A    between atoms: C_26  and  C_28
REMARK    6  A    between atoms: C_28  and  C_29
REMARK    7  A    between atoms: C_29  and  C_30
REMARK    8  A    between atoms: C_30  and  O_31
REMARK    9  A    between atoms: C_30  and  C_33
REMARK   10  A    between atoms: C_33  and  C_35
REMARK   11  A    between atoms: C_35  and  O_36
REMARK                            x       y       z     vdW  Elec       q    Type
REMARK                         _______ _______ _______ _____ _____    ______ ____
ROOT
ATOM      1  C   UNL     1     -40.227  25.429   1.649  0.00  0.00    +0.025 C 
ATOM      2  C   UNL     1     -40.110  23.888   1.557  0.00  0.00    +0.005 C 
ATOM      3  C   UNL     1     -38.668  23.380   1.710  0.00  0.00    +0.027 C 
ATOM      4  C   UNL     1     -38.114  23.849   3.098  0.00  0.00    +0.005 C 
ATOM      5  C   UNL     1     -36.634  23.354   3.337  0.00  0.00    +0.000 C 
ATOM      6  C   UNL     1     -41.748  25.567   1.371  0.00  0.00    +0.002 C 
ATOM      7  C   UNL     1     -39.742  25.875   3.045  0.00  0.00    +0.110 C 
ATOM      8  C   UNL     1     -38.309  25.377   3.320  0.00  0.00    +0.029 C 
ATOM      9  C   UNL     1     -36.625  21.800   3.181  0.00  0.00    +0.005 C 
ATOM     10  C   UNL     1     -40.866  23.544   0.275  0.00  0.00    +0.000 C 
ATOM     11  C   UNL     1     -38.552  21.851   1.536  0.00  0.00    +0.110 C 
ATOM     12  C   UNL     1     -42.002  24.579   0.210  0.00  0.00    +0.000 C 
ATOM     13  C   UNL     1     -37.130  21.351   1.801  0.00  0.00    +0.029 C 
ATOM     14  C   UNL     1     -36.173  23.682   4.786  0.00  0.00    +0.002 C 
ATOM     15  C   UNL     1     -39.405  26.181   0.568  0.00  0.00    +0.002 C 
ATOM     16  C   UNL     1     -35.261  21.170   3.509  0.00  0.00    +0.029 C 
ATOM     17  C   UNL     1     -35.657  24.042   2.348  0.00  0.00    +0.000 C 
ATOM     18  C   UNL     1     -34.826  23.049   5.161  0.00  0.00    +0.029 C 
ATOM     19  C   UNL     1     -34.791  21.543   4.916  0.00  0.00    +0.111 C 
ENDROOT
BRANCH   7  20
ATOM     20  O   UNL     1     -40.577  25.365   4.084  0.00  0.00    -0.384 OA
ATOM     21  H   UNL     1     -41.424  25.079   3.707  0.00  0.00    +0.210 HD
ENDBRANCH   7  20
BRANCH  11  22
ATOM     22  O   UNL     1     -39.429  21.164   2.428  0.00  0.00    -0.384 OA
ATOM     23  H   UNL     1     -40.197  21.723   2.622  0.00  0.00    +0.210 HD
ENDBRANCH  11  22
BRANCH  19  24
ATOM     24  O   UNL     1     -35.636  20.888   5.863  0.00  0.00    -0.384 OA
ATOM     25  H   UNL     1     -36.104  20.158   5.429  0.00  0.00    +0.210 HD
ENDBRANCH  19  24
BRANCH   6  26
ATOM     26  C   UNL     1     -42.258  26.972   1.079  0.00  0.00    +0.000 C 
ATOM     27  C   UNL     1     -42.455  27.740   2.389  0.00  0.00    +0.000 C 
BRANCH  26  28
ATOM     28  C   UNL     1     -43.554  26.902   0.244  0.00  0.00    +0.002 C 
BRANCH  28  29
ATOM     29  C   UNL     1     -44.809  27.346   1.012  0.00  0.00    +0.029 C 
BRANCH  29  30
ATOM     30  C   UNL     1     -45.696  26.151   1.396  0.00  0.00    +0.113 C 
BRANCH  30  31
ATOM     31  O   UNL     1     -45.424  25.082   0.487  0.00  0.00    -0.384 OA
ATOM     32  H   UNL     1     -45.330  25.436  -0.411  0.00  0.00    +0.210 HD
ENDBRANCH  30  31
BRANCH  30  33
ATOM     33  C   UNL     1     -45.505  25.644   2.844  0.00  0.00    +0.056 C 
ATOM     34  C   UNL     1     -46.373  24.416   3.136  0.00  0.00    +0.005 C 
BRANCH  33  35
ATOM     35  C   UNL     1     -45.733  26.740   3.896  0.00  0.00    +0.139 C 
BRANCH  35  36
ATOM     36  O   UNL     1     -44.736  26.680   4.910  0.00  0.00    -0.382 OA
ATOM     37  H   UNL     1     -43.880  26.461   4.510  0.00  0.00    +0.210 HD
ENDBRANCH  35  36
ENDBRANCH  33  35
ENDBRANCH  30  33
ENDBRANCH  29  30
ENDBRANCH  28  29
ENDBRANCH  26  28
ENDBRANCH   6  26
TORSDOF 11
ENDMDL
MODEL 8
REMARK VINA RESULT:      -5.9      2.777      5.388
REMARK  Name = 5284195
REMARK  11 active torsions:
REMARK  status: ('A' for Active; 'I' for Inactive)
REMARK    1  A    between atoms: C_6  and  C_26
REMARK    2  A    between atoms: C_7  and  O_20
REMARK    3  A    between atoms: C_11  and  O_22
REMARK    4  A    between atoms: C_19  and  O_24
REMARK    5  A    between atoms: C_26  and  C_28
REMARK    6  A    between atoms: C_28  and  C_29
REMARK    7  A    between atoms: C_29  and  C_30
REMARK    8  A    between atoms: C_30  and  O_31
REMARK    9  A    between atoms: C_30  and  C_33
REMARK   10  A    between atoms: C_33  and  C_35
REMARK   11  A    between atoms: C_35  and  O_36
REMARK                            x       y       z     vdW  Elec       q    Type
REMARK                         _______ _______ _______ _____ _____    ______ ____
ROOT
ATOM      1  C   UNL     1     -33.461  26.756   3.511  0.00  0.00    +0.025 C 
ATOM      2  C   UNL     1     -33.800  25.571   4.448  0.00  0.00    +0.005 C 
ATOM      3  C   UNL     1     -34.875  24.634   3.876  0.00  0.00    +0.027 C 
ATOM      4  C   UNL     1     -34.371  24.069   2.504  0.00  0.00    +0.005 C 
ATOM      5  C   UNL     1     -35.419  23.083   1.855  0.00  0.00    +0.000 C 
ATOM      6  C   UNL     1     -32.450  27.498   4.426  0.00  0.00    +0.002 C 
ATOM      7  C   UNL     1     -32.902  26.190   2.188  0.00  0.00    +0.110 C 
ATOM      8  C   UNL     1     -33.893  25.197   1.546  0.00  0.00    +0.029 C 
ATOM      9  C   UNL     1     -35.716  21.957   2.896  0.00  0.00    +0.005 C 
ATOM     10  C   UNL     1     -34.066  26.240   5.796  0.00  0.00    +0.000 C 
ATOM     11  C   UNL     1     -35.262  23.503   4.852  0.00  0.00    +0.110 C 
ATOM     12  C   UNL     1     -33.106  27.441   5.824  0.00  0.00    +0.000 C 
ATOM     13  C   UNL     1     -36.250  22.517   4.223  0.00  0.00    +0.029 C 
ATOM     14  C   UNL     1     -34.823  22.405   0.589  0.00  0.00    +0.002 C 
ATOM     15  C   UNL     1     -34.679  27.665   3.194  0.00  0.00    +0.002 C 
ATOM     16  C   UNL     1     -36.637  20.855   2.344  0.00  0.00    +0.029 C 
ATOM     17  C   UNL     1     -36.706  23.843   1.440  0.00  0.00    +0.000 C 
ATOM     18  C   UNL     1     -35.702  21.281   0.022  0.00  0.00    +0.029 C 
ATOM     19  C   UNL     1     -36.068  20.232   1.069  0.00  0.00    +0.111 C 
ENDROOT
BRANCH   7  20
ATOM     20  O   UNL     1     -31.671  25.496   2.386  0.00  0.00    -0.384 OA
ATOM     21  H   UNL     1     -31.574  24.811   1.707  0.00  0.00    +0.210 HD
ENDBRANCH   7  20
BRANCH  11  22
ATOM     22  O   UNL     1     -34.113  22.764   5.265  0.00  0.00    -0.384 OA
ATOM     23  H   UNL     1     -34.392  21.913   5.637  0.00  0.00    +0.210 HD
ENDBRANCH  11  22
BRANCH  19  24
ATOM     24  O   UNL     1     -34.905  19.477   1.413  0.00  0.00    -0.384 OA
ATOM     25  H   UNL     1     -35.167  18.693   1.919  0.00  0.00    +0.210 HD
ENDBRANCH  19  24
BRANCH   6  26
ATOM     26  C   UNL     1     -32.067  28.911   4.005  0.00  0.00    +0.000 C 
ATOM     27  C   UNL     1     -30.927  28.862   2.983  0.00  0.00    +0.000 C 
BRANCH  26  28
ATOM     28  C   UNL     1     -31.703  29.753   5.246  0.00  0.00    +0.002 C 
BRANCH  28  29
ATOM     29  C   UNL     1     -30.195  30.006   5.400  0.00  0.00    +0.029 C 
BRANCH  29  30
ATOM     30  C   UNL     1     -29.668  29.513   6.757  0.00  0.00    +0.113 C 
BRANCH  30  31
ATOM     31  O   UNL     1     -30.787  29.302   7.621  0.00  0.00    -0.384 OA
ATOM     32  H   UNL     1     -30.712  28.431   8.040  0.00  0.00    +0.210 HD
ENDBRANCH  30  31
BRANCH  30  33
ATOM     33  C   UNL     1     -28.830  28.215   6.691  0.00  0.00    +0.056 C 
ATOM     34  C   UNL     1     -27.712  28.206   7.738  0.00  0.00    +0.005 C 
BRANCH  33  35
ATOM     35  C   UNL     1     -28.270  27.935   5.288  0.00  0.00    +0.139 C 
BRANCH  35  36
ATOM     36  O   UNL     1     -27.960  26.555   5.136  0.00  0.00    -0.382 OA
ATOM     37  H   UNL     1     -28.780  26.048   5.037  0.00  0.00    +0.210 HD
ENDBRANCH  35  36
ENDBRANCH  33  35
ENDBRANCH  30  33
ENDBRANCH  29  30
ENDBRANCH  28  29
ENDBRANCH  26  28
ENDBRANCH   6  26
TORSDOF 11
ENDMDL
MODEL 9
REMARK VINA RESULT:      -5.9      4.474      7.316
REMARK  Name = 5284195
REMARK  11 active torsions:
REMARK  status: ('A' for Active; 'I' for Inactive)
REMARK    1  A    between atoms: C_6  and  C_26
REMARK    2  A    between atoms: C_7  and  O_20
REMARK    3  A    between atoms: C_11  and  O_22
REMARK    4  A    between atoms: C_19  and  O_24
REMARK    5  A    between atoms: C_26  and  C_28
REMARK    6  A    between atoms: C_28  and  C_29
REMARK    7  A    between atoms: C_29  and  C_30
REMARK    8  A    between atoms: C_30  and  O_31
REMARK    9  A    between atoms: C_30  and  C_33
REMARK   10  A    between atoms: C_33  and  C_35
REMARK   11  A    between atoms: C_35  and  O_36
REMARK                            x       y       z     vdW  Elec       q    Type
REMARK                         _______ _______ _______ _____ _____    ______ ____
ROOT
ATOM      1  C   UNL     1     -40.206  25.458   1.648  0.00  0.00    +0.025 C 
ATOM      2  C   UNL     1     -40.088  23.918   1.542  0.00  0.00    +0.005 C 
ATOM      3  C   UNL     1     -38.649  23.408   1.706  0.00  0.00    +0.027 C 
ATOM      4  C   UNL     1     -38.110  23.864   3.105  0.00  0.00    +0.005 C 
ATOM      5  C   UNL     1     -36.633  23.365   3.356  0.00  0.00    +0.000 C 
ATOM      6  C   UNL     1     -41.724  25.599   1.354  0.00  0.00    +0.002 C 
ATOM      7  C   UNL     1     -39.737  25.890   3.053  0.00  0.00    +0.110 C 
ATOM      8  C   UNL     1     -38.307  25.390   3.340  0.00  0.00    +0.029 C 
ATOM      9  C   UNL     1     -36.623  21.814   3.186  0.00  0.00    +0.005 C 
ATOM     10  C   UNL     1     -40.830  23.586   0.249  0.00  0.00    +0.000 C 
ATOM     11  C   UNL     1     -38.532  21.881   1.520  0.00  0.00    +0.110 C 
ATOM     12  C   UNL     1     -41.965  24.622   0.181  0.00  0.00    +0.000 C 
ATOM     13  C   UNL     1     -37.113  21.377   1.796  0.00  0.00    +0.029 C 
ATOM     14  C   UNL     1     -36.188  23.680   4.813  0.00  0.00    +0.002 C 
ATOM     15  C   UNL     1     -39.372  26.220   0.583  0.00  0.00    +0.002 C 
ATOM     16  C   UNL     1     -35.262  21.180   3.522  0.00  0.00    +0.029 C 
ATOM     17  C   UNL     1     -35.644  24.062   2.384  0.00  0.00    +0.000 C 
ATOM     18  C   UNL     1     -34.845  23.043   5.196  0.00  0.00    +0.029 C 
ATOM     19  C   UNL     1     -34.808  21.539   4.938  0.00  0.00    +0.111 C 
ENDROOT
BRANCH   7  20
ATOM     20  O   UNL     1     -40.584  25.372   4.078  0.00  0.00    -0.384 OA
ATOM     21  H   UNL     1     -40.324  25.749   4.933  0.00  0.00    +0.210 HD
ENDBRANCH   7  20
BRANCH  11  22
ATOM     22  O   UNL     1     -39.418  21.185   2.395  0.00  0.00    -0.384 OA
ATOM     23  H   UNL     1     -39.392  21.594   3.274  0.00  0.00    +0.210 HD
ENDBRANCH  11  22
BRANCH  19  24
ATOM     24  O   UNL     1     -35.663  20.876   5.870  0.00  0.00    -0.384 OA
ATOM     25  H   UNL     1     -35.288  20.010   6.094  0.00  0.00    +0.210 HD
ENDBRANCH  19  24
BRANCH   6  26
ATOM     26  C   UNL     1     -42.230  27.007   1.070  0.00  0.00    +0.000 C 
ATOM     27  C   UNL     1     -43.347  27.370   2.053  0.00  0.00    +0.000 C 
BRANCH  26  28
ATOM     28  C   UNL     1     -42.688  27.119  -0.400  0.00  0.00    +0.002 C 
BRANCH  28  29
ATOM     29  C   UNL     1     -42.360  28.473  -1.048  0.00  0.00    +0.029 C 
BRANCH  29  30
ATOM     30  C   UNL     1     -41.338  29.269  -0.222  0.00  0.00    +0.113 C 
BRANCH  30  31
ATOM     31  O   UNL     1     -40.204  29.536  -1.051  0.00  0.00    -0.384 OA
ATOM     32  H   UNL     1     -40.474  30.095  -1.797  0.00  0.00    +0.210 HD
ENDBRANCH  30  31
BRANCH  30  33
ATOM     33  C   UNL     1     -41.870  30.604   0.350  0.00  0.00    +0.056 C 
ATOM     34  C   UNL     1     -43.239  30.967  -0.231  0.00  0.00    +0.005 C 
BRANCH  33  35
ATOM     35  C   UNL     1     -40.876  31.764   0.182  0.00  0.00    +0.139 C 
BRANCH  35  36
ATOM     36  O   UNL     1     -39.777  31.619   1.075  0.00  0.00    -0.382 OA
ATOM     37  H   UNL     1     -39.474  30.699   1.068  0.00  0.00    +0.210 HD
ENDBRANCH  35  36
ENDBRANCH  33  35
ENDBRANCH  30  33
ENDBRANCH  29  30
ENDBRANCH  28  29
ENDBRANCH  26  28
ENDBRANCH   6  26
TORSDOF 11
ENDMDL
