MODEL 1
REMARK VINA RESULT:      -6.5      0.000      0.000
REMARK  Name = 5283763
REMARK  12 active torsions:
REMARK  status: ('A' for Active; 'I' for Inactive)
REMARK    1  A    between atoms: C_2  and  C_24
REMARK    2  A    between atoms: C_11  and  C_12
REMARK    3  A    between atoms: C_16  and  O_20
REMARK    4  A    between atoms: C_17  and  O_22
REMARK    5  A    between atoms: C_24  and  C_26
REMARK    6  A    between atoms: C_26  and  C_27
REMARK    7  A    between atoms: C_27  and  O_28
REMARK    8  A    between atoms: C_27  and  C_30
REMARK    9  A    between atoms: C_30  and  C_31
REMARK   10  A    between atoms: C_31  and  O_33
REMARK   11  A    between atoms: C_31  and  C_35
REMARK   12  A    between atoms: C_35  and  O_36
REMARK                            x       y       z     vdW  Elec       q    Type
REMARK                         _______ _______ _______ _____ _____    ______ ____
ROOT
ATOM      1  C   UNL     1     -35.419  25.400   2.954  0.00  0.00    +0.003 C 
ATOM      2  C   UNL     1     -36.240  24.276   3.633  0.00  0.00    +0.000 C 
ATOM      3  C   UNL     1     -34.907  26.139   4.214  0.00  0.00    +0.018 C 
ATOM      4  C   UNL     1     -35.359  23.839   4.825  0.00  0.00    +0.000 C 
ATOM      5  C   UNL     1     -34.392  25.005   5.103  0.00  0.00    +0.004 C 
ATOM      6  C   UNL     1     -36.260  26.385   2.117  0.00  0.00    +0.001 C 
ATOM      7  C   UNL     1     -34.058  27.326   3.846  0.00  0.00    -0.045 C 
ATOM      8  C   UNL     1     -34.278  24.818   2.080  0.00  0.00    +0.000 C 
ATOM      9  C   UNL     1     -35.460  27.648   1.752  0.00  0.00    +0.004 C 
ATOM     10  C   UNL     1     -34.789  28.315   2.963  0.00  0.00    +0.022 C 
ATOM     11  C   UNL     1     -32.793  27.521   4.243  0.00  0.00    -0.009 C 
ENDROOT
BRANCH  11  12
ATOM     12  C   UNL     1     -32.018  28.679   3.872  0.00  0.00    -0.005 C 
ATOM     13  C   UNL     1     -31.159  29.289   4.704  0.00  0.00    -0.021 C 
ATOM     14  C   UNL     1     -30.332  30.472   4.268  0.00  0.00    +0.055 C 
ATOM     15  C   UNL     1     -30.925  28.838   6.075  0.00  0.00    +0.000 C 
ATOM     16  C   UNL     1     -28.849  30.295   4.602  0.00  0.00    +0.118 C 
ATOM     17  C   UNL     1     -29.475  28.716   6.484  0.00  0.00    +0.135 C 
ATOM     18  C   UNL     1     -28.661  29.950   6.083  0.00  0.00    +0.063 C 
ATOM     19  C   UNL     1     -31.924  28.602   6.940  0.00  0.00    -0.003 C 
BRANCH  16  20
ATOM     20  O   UNL     1     -28.170  31.511   4.309  0.00  0.00    -0.384 OA
ATOM     21  H   UNL     1     -27.467  31.655   4.963  0.00  0.00    +0.210 HD
ENDBRANCH  16  20
BRANCH  17  22
ATOM     22  O   UNL     1     -28.930  27.557   5.853  0.00  0.00    -0.380 OA
ATOM     23  H   UNL     1     -28.133  27.803   5.356  0.00  0.00    +0.211 HD
ENDBRANCH  17  22
ENDBRANCH  11  12
BRANCH   2  24
ATOM     24  C   UNL     1     -36.658  23.112   2.747  0.00  0.00    +0.002 C 
ATOM     25  C   UNL     1     -38.187  23.052   2.647  0.00  0.00    +0.000 C 
BRANCH  24  26
ATOM     26  C   UNL     1     -36.059  21.793   3.288  0.00  0.00    +0.029 C 
BRANCH  26  27
ATOM     27  C   UNL     1     -35.930  20.665   2.252  0.00  0.00    +0.113 C 
BRANCH  27  28
ATOM     28  O   UNL     1     -36.853  19.635   2.588  0.00  0.00    -0.384 OA
ATOM     29  H   UNL     1     -37.656  20.030   2.963  0.00  0.00    +0.210 HD
ENDBRANCH  27  28
BRANCH  27  30
ATOM     30  C   UNL     1     -34.490  20.113   2.237  0.00  0.00    +0.059 C 
BRANCH  30  31
ATOM     31  C   UNL     1     -34.103  19.259   1.005  0.00  0.00    +0.118 C 
ATOM     32  C   UNL     1     -32.938  18.336   1.390  0.00  0.00    +0.032 C 
BRANCH  31  33
ATOM     33  O   UNL     1     -35.212  18.427   0.657  0.00  0.00    -0.384 OA
ATOM     34  H   UNL     1     -34.887  17.578   0.319  0.00  0.00    +0.210 HD
ENDBRANCH  31  33
BRANCH  31  35
ATOM     35  C   UNL     1     -33.735  20.100  -0.226  0.00  0.00    +0.164 C 
BRANCH  35  36
ATOM     36  O   UNL     1     -32.633  20.950   0.051  0.00  0.00    -0.380 OA
ATOM     37  H   UNL     1     -32.925  21.875   0.029  0.00  0.00    +0.211 HD
ENDBRANCH  35  36
ENDBRANCH  31  35
ENDBRANCH  30  31
ENDBRANCH  27  30
ENDBRANCH  26  27
ENDBRANCH  24  26
ENDBRANCH   2  24
TORSDOF 12
ENDMDL
MODEL 2
REMARK VINA RESULT:      -6.3      1.305      1.616
REMARK  Name = 5283763
REMARK  12 active torsions:
REMARK  status: ('A' for Active; 'I' for Inactive)
REMARK    1  A    between atoms: C_2  and  C_24
REMARK    2  A    between atoms: C_11  and  C_12
REMARK    3  A    between atoms: C_16  and  O_20
REMARK    4  A    between atoms: C_17  and  O_22
REMARK    5  A    between atoms: C_24  and  C_26
REMARK    6  A    between atoms: C_26  and  C_27
REMARK    7  A    between atoms: C_27  and  O_28
REMARK    8  A    between atoms: C_27  and  C_30
REMARK    9  A    between atoms: C_30  and  C_31
REMARK   10  A    between atoms: C_31  and  O_33
REMARK   11  A    between atoms: C_31  and  C_35
REMARK   12  A    between atoms: C_35  and  O_36
REMARK                            x       y       z     vdW  Elec       q    Type
REMARK                         _______ _______ _______ _____ _____    ______ ____
ROOT
ATOM      1  C   UNL     1     -34.870  26.045   3.367  0.00  0.00    +0.003 C 
ATOM      2  C   UNL     1     -35.987  25.254   4.091  0.00  0.00    +0.000 C 
ATOM      3  C   UNL     1     -34.413  26.963   4.528  0.00  0.00    +0.018 C 
ATOM      4  C   UNL     1     -35.396  24.969   5.490  0.00  0.00    +0.000 C 
ATOM      5  C   UNL     1     -34.270  25.996   5.705  0.00  0.00    +0.004 C 
ATOM      6  C   UNL     1     -35.366  26.933   2.208  0.00  0.00    +0.001 C 
ATOM      7  C   UNL     1     -33.301  27.880   4.096  0.00  0.00    -0.045 C 
ATOM      8  C   UNL     1     -33.750  25.101   2.856  0.00  0.00    +0.000 C 
ATOM      9  C   UNL     1     -34.287  27.932   1.754  0.00  0.00    +0.004 C 
ATOM     10  C   UNL     1     -33.684  28.743   2.912  0.00  0.00    +0.022 C 
ATOM     11  C   UNL     1     -32.096  27.956   4.675  0.00  0.00    -0.009 C 
ENDROOT
BRANCH  11  12
ATOM     12  C   UNL     1     -31.060  28.856   4.233  0.00  0.00    -0.005 C 
ATOM     13  C   UNL     1     -30.299  29.575   5.073  0.00  0.00    -0.021 C 
ATOM     14  C   UNL     1     -29.196  30.475   4.576  0.00  0.00    +0.055 C 
ATOM     15  C   UNL     1     -30.447  29.515   6.526  0.00  0.00    +0.000 C 
ATOM     16  C   UNL     1     -27.875  30.228   5.309  0.00  0.00    +0.118 C 
ATOM     17  C   UNL     1     -29.163  29.346   7.307  0.00  0.00    +0.135 C 
ATOM     18  C   UNL     1     -28.070  30.306   6.827  0.00  0.00    +0.063 C 
ATOM     19  C   UNL     1     -31.631  29.659   7.141  0.00  0.00    -0.003 C 
BRANCH  16  20
ATOM     20  O   UNL     1     -26.938  31.218   4.900  0.00  0.00    -0.384 OA
ATOM     21  H   UNL     1     -26.753  31.816   5.642  0.00  0.00    +0.210 HD
ENDBRANCH  16  20
BRANCH  17  22
ATOM     22  O   UNL     1     -28.719  27.998   7.148  0.00  0.00    -0.380 OA
ATOM     23  H   UNL     1     -27.762  27.989   6.989  0.00  0.00    +0.211 HD
ENDBRANCH  17  22
ENDBRANCH  11  12
BRANCH   2  24
ATOM     24  C   UNL     1     -36.492  24.000   3.392  0.00  0.00    +0.002 C 
ATOM     25  C   UNL     1     -37.949  24.194   2.954  0.00  0.00    +0.000 C 
BRANCH  24  26
ATOM     26  C   UNL     1     -36.322  22.774   4.318  0.00  0.00    +0.029 C 
BRANCH  26  27
ATOM     27  C   UNL     1     -35.959  21.464   3.601  0.00  0.00    +0.113 C 
BRANCH  27  28
ATOM     28  O   UNL     1     -35.214  20.650   4.501  0.00  0.00    -0.384 OA
ATOM     29  H   UNL     1     -35.717  20.528   5.320  0.00  0.00    +0.210 HD
ENDBRANCH  27  28
BRANCH  27  30
ATOM     30  C   UNL     1     -35.135  21.758   2.332  0.00  0.00    +0.059 C 
BRANCH  30  31
ATOM     31  C   UNL     1     -34.852  20.546   1.411  0.00  0.00    +0.118 C 
ATOM     32  C   UNL     1     -33.729  20.920   0.433  0.00  0.00    +0.032 C 
BRANCH  31  33
ATOM     33  O   UNL     1     -34.379  19.461   2.212  0.00  0.00    -0.384 OA
ATOM     34  H   UNL     1     -35.085  19.168   2.809  0.00  0.00    +0.210 HD
ENDBRANCH  31  33
BRANCH  31  35
ATOM     35  C   UNL     1     -36.092  20.065   0.642  0.00  0.00    +0.164 C 
BRANCH  35  36
ATOM     36  O   UNL     1     -36.233  18.656   0.737  0.00  0.00    -0.380 OA
ATOM     37  H   UNL     1     -37.159  18.414   0.580  0.00  0.00    +0.211 HD
ENDBRANCH  35  36
ENDBRANCH  31  35
ENDBRANCH  30  31
ENDBRANCH  27  30
ENDBRANCH  26  27
ENDBRANCH  24  26
ENDBRANCH   2  24
TORSDOF 12
ENDMDL
MODEL 3
REMARK VINA RESULT:      -6.1      2.214      9.431
REMARK  Name = 5283763
REMARK  12 active torsions:
REMARK  status: ('A' for Active; 'I' for Inactive)
REMARK    1  A    between atoms: C_2  and  C_24
REMARK    2  A    between atoms: C_11  and  C_12
REMARK    3  A    between atoms: C_16  and  O_20
REMARK    4  A    between atoms: C_17  and  O_22
REMARK    5  A    between atoms: C_24  and  C_26
REMARK    6  A    between atoms: C_26  and  C_27
REMARK    7  A    between atoms: C_27  and  O_28
REMARK    8  A    between atoms: C_27  and  C_30
REMARK    9  A    between atoms: C_30  and  C_31
REMARK   10  A    between atoms: C_31  and  O_33
REMARK   11  A    between atoms: C_31  and  C_35
REMARK   12  A    between atoms: C_35  and  O_36
REMARK                            x       y       z     vdW  Elec       q    Type
REMARK                         _______ _______ _______ _____ _____    ______ ____
ROOT
ATOM      1  C   UNL     1     -34.490  26.414   4.334  0.00  0.00    +0.003 C 
ATOM      2  C   UNL     1     -33.653  27.664   4.702  0.00  0.00    +0.000 C 
ATOM      3  C   UNL     1     -35.475  27.054   3.324  0.00  0.00    +0.018 C 
ATOM      4  C   UNL     1     -33.454  28.390   3.353  0.00  0.00    +0.000 C 
ATOM      5  C   UNL     1     -34.560  27.875   2.414  0.00  0.00    +0.004 C 
ATOM      6  C   UNL     1     -35.304  25.826   5.504  0.00  0.00    +0.001 C 
ATOM      7  C   UNL     1     -36.448  26.038   2.789  0.00  0.00    -0.045 C 
ATOM      8  C   UNL     1     -33.605  25.306   3.707  0.00  0.00    +0.000 C 
ATOM      9  C   UNL     1     -36.356  24.814   5.014  0.00  0.00    +0.004 C 
ATOM     10  C   UNL     1     -37.244  25.359   3.884  0.00  0.00    +0.022 C 
ATOM     11  C   UNL     1     -36.622  25.746   1.494  0.00  0.00    -0.009 C 
ENDROOT
BRANCH  11  12
ATOM     12  C   UNL     1     -37.573  24.770   1.024  0.00  0.00    -0.005 C 
ATOM     13  C   UNL     1     -37.279  23.469   0.867  0.00  0.00    -0.021 C 
ATOM     14  C   UNL     1     -38.312  22.468   0.414  0.00  0.00    +0.055 C 
ATOM     15  C   UNL     1     -35.960  22.912   1.160  0.00  0.00    +0.000 C 
ATOM     16  C   UNL     1     -38.363  21.238   1.323  0.00  0.00    +0.118 C 
ATOM     17  C   UNL     1     -35.953  21.652   1.995  0.00  0.00    +0.135 C 
ATOM     18  C   UNL     1     -36.968  20.623   1.488  0.00  0.00    +0.063 C 
ATOM     19  C   UNL     1     -34.826  23.443   0.677  0.00  0.00    -0.003 C 
BRANCH  16  20
ATOM     20  O   UNL     1     -39.238  20.279   0.740  0.00  0.00    -0.384 OA
ATOM     21  H   UNL     1     -38.777  19.814   0.023  0.00  0.00    +0.210 HD
ENDBRANCH  16  20
BRANCH  17  22
ATOM     22  O   UNL     1     -36.265  22.007   3.343  0.00  0.00    -0.380 OA
ATOM     23  H   UNL     1     -37.222  21.933   3.484  0.00  0.00    +0.211 HD
ENDBRANCH  17  22
ENDBRANCH  11  12
BRANCH   2  24
ATOM     24  C   UNL     1     -32.346  27.412   5.439  0.00  0.00    +0.002 C 
ATOM     25  C   UNL     1     -32.590  27.403   6.952  0.00  0.00    +0.000 C 
BRANCH  24  26
ATOM     26  C   UNL     1     -31.294  28.467   5.026  0.00  0.00    +0.029 C 
BRANCH  26  27
ATOM     27  C   UNL     1     -30.975  29.520   6.099  0.00  0.00    +0.113 C 
BRANCH  27  28
ATOM     28  O   UNL     1     -31.843  30.632   5.911  0.00  0.00    -0.384 OA
ATOM     29  H   UNL     1     -31.955  31.102   6.752  0.00  0.00    +0.210 HD
ENDBRANCH  27  28
BRANCH  27  30
ATOM     30  C   UNL     1     -29.502  29.964   5.994  0.00  0.00    +0.059 C 
BRANCH  30  31
ATOM     31  C   UNL     1     -28.536  29.362   7.044  0.00  0.00    +0.118 C 
ATOM     32  C   UNL     1     -27.351  30.321   7.232  0.00  0.00    +0.032 C 
BRANCH  31  33
ATOM     33  O   UNL     1     -29.218  29.272   8.296  0.00  0.00    -0.384 OA
ATOM     34  H   UNL     1     -29.785  28.485   8.301  0.00  0.00    +0.210 HD
ENDBRANCH  31  33
BRANCH  31  35
ATOM     35  C   UNL     1     -28.033  27.959   6.674  0.00  0.00    +0.164 C 
BRANCH  35  36
ATOM     36  O   UNL     1     -28.885  26.957   7.207  0.00  0.00    -0.380 OA
ATOM     37  H   UNL     1     -29.547  26.708   6.543  0.00  0.00    +0.211 HD
ENDBRANCH  35  36
ENDBRANCH  31  35
ENDBRANCH  30  31
ENDBRANCH  27  30
ENDBRANCH  26  27
ENDBRANCH  24  26
ENDBRANCH   2  24
TORSDOF 12
ENDMDL
MODEL 4
REMARK VINA RESULT:      -6.1      8.463     12.616
REMARK  Name = 5283763
REMARK  12 active torsions:
REMARK  status: ('A' for Active; 'I' for Inactive)
REMARK    1  A    between atoms: C_2  and  C_24
REMARK    2  A    between atoms: C_11  and  C_12
REMARK    3  A    between atoms: C_16  and  O_20
REMARK    4  A    between atoms: C_17  and  O_22
REMARK    5  A    between atoms: C_24  and  C_26
REMARK    6  A    between atoms: C_26  and  C_27
REMARK    7  A    between atoms: C_27  and  O_28
REMARK    8  A    between atoms: C_27  and  C_30
REMARK    9  A    between atoms: C_30  and  C_31
REMARK   10  A    between atoms: C_31  and  O_33
REMARK   11  A    between atoms: C_31  and  C_35
REMARK   12  A    between atoms: C_35  and  O_36
REMARK                            x       y       z     vdW  Elec       q    Type
REMARK                         _______ _______ _______ _____ _____    ______ ____
ROOT
ATOM      1  C   UNL     1     -44.589  27.950   2.813  0.00  0.00    +0.003 C 
ATOM      2  C   UNL     1     -45.016  29.425   2.619  0.00  0.00    +0.000 C 
ATOM      3  C   UNL     1     -43.874  27.710   1.460  0.00  0.00    +0.018 C 
ATOM      4  C   UNL     1     -43.790  30.082   1.944  0.00  0.00    +0.000 C 
ATOM      5  C   UNL     1     -42.973  28.938   1.316  0.00  0.00    +0.004 C 
ATOM      6  C   UNL     1     -45.763  26.957   2.927  0.00  0.00    +0.001 C 
ATOM      7  C   UNL     1     -43.345  26.305   1.361  0.00  0.00    -0.045 C 
ATOM      8  C   UNL     1     -43.651  27.788   4.037  0.00  0.00    +0.000 C 
ATOM      9  C   UNL     1     -45.293  25.499   2.781  0.00  0.00    +0.004 C 
ATOM     10  C   UNL     1     -44.429  25.260   1.532  0.00  0.00    +0.022 C 
ATOM     11  C   UNL     1     -42.066  25.976   1.140  0.00  0.00    -0.009 C 
ENDROOT
BRANCH  11  12
ATOM     12  C   UNL     1     -41.604  24.614   1.044  0.00  0.00    -0.005 C 
ATOM     13  C   UNL     1     -40.334  24.247   1.279  0.00  0.00    -0.021 C 
ATOM     14  C   UNL     1     -39.895  22.806   1.211  0.00  0.00    +0.055 C 
ATOM     15  C   UNL     1     -39.290  25.198   1.656  0.00  0.00    +0.000 C 
ATOM     16  C   UNL     1     -39.111  22.381   2.455  0.00  0.00    +0.118 C 
ATOM     17  C   UNL     1     -38.434  24.795   2.836  0.00  0.00    +0.135 C 
ATOM     18  C   UNL     1     -37.951  23.346   2.724  0.00  0.00    +0.063 C 
ATOM     19  C   UNL     1     -39.059  26.330   0.972  0.00  0.00    -0.003 C 
BRANCH  16  20
ATOM     20  O   UNL     1     -38.599  21.071   2.242  0.00  0.00    -0.384 OA
ATOM     21  H   UNL     1     -39.331  20.433   2.246  0.00  0.00    +0.210 HD
ENDBRANCH  16  20
BRANCH  17  22
ATOM     22  O   UNL     1     -39.211  24.950   4.024  0.00  0.00    -0.380 OA
ATOM     23  H   UNL     1     -39.120  24.157   4.576  0.00  0.00    +0.211 HD
ENDBRANCH  17  22
ENDBRANCH  11  12
BRANCH   2  24
ATOM     24  C   UNL     1     -45.476  30.167   3.864  0.00  0.00    +0.002 C 
ATOM     25  C   UNL     1     -47.004  30.291   3.866  0.00  0.00    +0.000 C 
BRANCH  24  26
ATOM     26  C   UNL     1     -44.781  31.546   3.946  0.00  0.00    +0.029 C 
BRANCH  26  27
ATOM     27  C   UNL     1     -44.491  32.045   5.371  0.00  0.00    +0.113 C 
BRANCH  27  28
ATOM     28  O   UNL     1     -43.388  32.943   5.318  0.00  0.00    -0.384 OA
ATOM     29  H   UNL     1     -43.110  33.167   6.219  0.00  0.00    +0.210 HD
ENDBRANCH  27  28
BRANCH  27  30
ATOM     30  C   UNL     1     -44.173  30.856   6.300  0.00  0.00    +0.059 C 
BRANCH  30  31
ATOM     31  C   UNL     1     -45.177  30.609   7.453  0.00  0.00    +0.118 C 
ATOM     32  C   UNL     1     -46.338  31.605   7.319  0.00  0.00    +0.032 C 
BRANCH  31  33
ATOM     33  O   UNL     1     -45.721  29.295   7.313  0.00  0.00    -0.384 OA
ATOM     34  H   UNL     1     -45.876  29.107   6.374  0.00  0.00    +0.210 HD
ENDBRANCH  31  33
BRANCH  31  35
ATOM     35  C   UNL     1     -44.541  30.715   8.846  0.00  0.00    +0.164 C 
BRANCH  35  36
ATOM     36  O   UNL     1     -43.144  30.474   8.787  0.00  0.00    -0.380 OA
ATOM     37  H   UNL     1     -42.896  30.229   7.881  0.00  0.00    +0.211 HD
ENDBRANCH  35  36
ENDBRANCH  31  35
ENDBRANCH  30  31
ENDBRANCH  27  30
ENDBRANCH  26  27
ENDBRANCH  24  26
ENDBRANCH   2  24
TORSDOF 12
ENDMDL
MODEL 5
REMARK VINA RESULT:      -6.1      5.914     10.447
REMARK  Name = 5283763
REMARK  12 active torsions:
REMARK  status: ('A' for Active; 'I' for Inactive)
REMARK    1  A    between atoms: C_2  and  C_24
REMARK    2  A    between atoms: C_11  and  C_12
REMARK    3  A    between atoms: C_16  and  O_20
REMARK    4  A    between atoms: C_17  and  O_22
REMARK    5  A    between atoms: C_24  and  C_26
REMARK    6  A    between atoms: C_26  and  C_27
REMARK    7  A    between atoms: C_27  and  O_28
REMARK    8  A    between atoms: C_27  and  C_30
REMARK    9  A    between atoms: C_30  and  C_31
REMARK   10  A    between atoms: C_31  and  O_33
REMARK   11  A    between atoms: C_31  and  C_35
REMARK   12  A    between atoms: C_35  and  O_36
REMARK                            x       y       z     vdW  Elec       q    Type
REMARK                         _______ _______ _______ _____ _____    ______ ____
ROOT
ATOM      1  C   UNL     1     -35.887  29.948   0.369  0.00  0.00    +0.003 C 
ATOM      2  C   UNL     1     -35.699  31.436   0.750  0.00  0.00    +0.000 C 
ATOM      3  C   UNL     1     -34.870  29.304   1.344  0.00  0.00    +0.018 C 
ATOM      4  C   UNL     1     -35.585  31.415   2.291  0.00  0.00    +0.000 C 
ATOM      5  C   UNL     1     -35.187  29.980   2.679  0.00  0.00    +0.004 C 
ATOM      6  C   UNL     1     -35.466  29.602  -1.074  0.00  0.00    +0.001 C 
ATOM      7  C   UNL     1     -34.830  27.808   1.184  0.00  0.00    -0.045 C 
ATOM      8  C   UNL     1     -37.346  29.481   0.611  0.00  0.00    +0.000 C 
ATOM      9  C   UNL     1     -35.356  28.082  -1.287  0.00  0.00    +0.004 C 
ATOM     10  C   UNL     1     -34.490  27.381  -0.229  0.00  0.00    +0.022 C 
ATOM     11  C   UNL     1     -35.057  26.923   2.163  0.00  0.00    -0.009 C 
ENDROOT
BRANCH  11  12
ATOM     12  C   UNL     1     -35.000  25.495   1.968  0.00  0.00    -0.005 C 
ATOM     13  C   UNL     1     -34.906  24.616   2.977  0.00  0.00    -0.021 C 
ATOM     14  C   UNL     1     -34.893  23.127   2.738  0.00  0.00    +0.055 C 
ATOM     15  C   UNL     1     -34.852  25.020   4.381  0.00  0.00    +0.000 C 
ATOM     16  C   UNL     1     -35.903  22.390   3.620  0.00  0.00    +0.118 C 
ATOM     17  C   UNL     1     -35.778  24.274   5.313  0.00  0.00    +0.135 C 
ATOM     18  C   UNL     1     -35.711  22.759   5.095  0.00  0.00    +0.063 C 
ATOM     19  C   UNL     1     -33.997  25.952   4.833  0.00  0.00    -0.003 C 
BRANCH  16  20
ATOM     20  O   UNL     1     -35.715  20.989   3.453  0.00  0.00    -0.384 OA
ATOM     21  H   UNL     1     -34.770  20.802   3.331  0.00  0.00    +0.210 HD
ENDBRANCH  16  20
BRANCH  17  22
ATOM     22  O   UNL     1     -37.111  24.732   5.080  0.00  0.00    -0.380 OA
ATOM     23  H   UNL     1     -37.696  24.398   5.778  0.00  0.00    +0.211 HD
ENDBRANCH  17  22
ENDBRANCH  11  12
BRANCH   2  24
ATOM     24  C   UNL     1     -36.760  32.404   0.247  0.00  0.00    +0.002 C 
ATOM     25  C   UNL     1     -36.277  33.090  -1.036  0.00  0.00    +0.000 C 
BRANCH  24  26
ATOM     26  C   UNL     1     -37.114  33.424   1.353  0.00  0.00    +0.029 C 
BRANCH  26  27
ATOM     27  C   UNL     1     -38.598  33.461   1.753  0.00  0.00    +0.113 C 
BRANCH  27  28
ATOM     28  O   UNL     1     -39.181  32.202   1.437  0.00  0.00    -0.384 OA
ATOM     29  H   UNL     1     -40.056  32.340   1.042  0.00  0.00    +0.210 HD
ENDBRANCH  27  28
BRANCH  27  30
ATOM     30  C   UNL     1     -39.326  34.595   1.006  0.00  0.00    +0.059 C 
BRANCH  30  31
ATOM     31  C   UNL     1     -40.654  35.081   1.638  0.00  0.00    +0.118 C 
ATOM     32  C   UNL     1     -41.352  36.029   0.652  0.00  0.00    +0.032 C 
BRANCH  31  33
ATOM     33  O   UNL     1     -41.511  33.953   1.828  0.00  0.00    -0.384 OA
ATOM     34  H   UNL     1     -41.975  34.038   2.675  0.00  0.00    +0.210 HD
ENDBRANCH  31  33
BRANCH  31  35
ATOM     35  C   UNL     1     -40.464  35.769   2.997  0.00  0.00    +0.164 C 
BRANCH  35  36
ATOM     36  O   UNL     1     -41.603  35.586   3.823  0.00  0.00    -0.380 OA
ATOM     37  H   UNL     1     -41.446  34.848   4.432  0.00  0.00    +0.211 HD
ENDBRANCH  35  36
ENDBRANCH  31  35
ENDBRANCH  30  31
ENDBRANCH  27  30
ENDBRANCH  26  27
ENDBRANCH  24  26
ENDBRANCH   2  24
TORSDOF 12
ENDMDL
MODEL 6
REMARK VINA RESULT:      -6.1      6.218     10.894
REMARK  Name = 5283763
REMARK  12 active torsions:
REMARK  status: ('A' for Active; 'I' for Inactive)
REMARK    1  A    between atoms: C_2  and  C_24
REMARK    2  A    between atoms: C_11  and  C_12
REMARK    3  A    between atoms: C_16  and  O_20
REMARK    4  A    between atoms: C_17  and  O_22
REMARK    5  A    between atoms: C_24  and  C_26
REMARK    6  A    between atoms: C_26  and  C_27
REMARK    7  A    between atoms: C_27  and  O_28
REMARK    8  A    between atoms: C_27  and  C_30
REMARK    9  A    between atoms: C_30  and  C_31
REMARK   10  A    between atoms: C_31  and  O_33
REMARK   11  A    between atoms: C_31  and  C_35
REMARK   12  A    between atoms: C_35  and  O_36
REMARK                            x       y       z     vdW  Elec       q    Type
REMARK                         _______ _______ _______ _____ _____    ______ ____
ROOT
ATOM      1  C   UNL     1     -36.123  31.245   0.054  0.00  0.00    +0.003 C 
ATOM      2  C   UNL     1     -35.524  32.666   0.201  0.00  0.00    +0.000 C 
ATOM      3  C   UNL     1     -35.049  30.435   0.822  0.00  0.00    +0.018 C 
ATOM      4  C   UNL     1     -35.016  32.708   1.659  0.00  0.00    +0.000 C 
ATOM      5  C   UNL     1     -34.849  31.244   2.105  0.00  0.00    +0.004 C 
ATOM      6  C   UNL     1     -36.182  30.726  -1.397  0.00  0.00    +0.001 C 
ATOM      7  C   UNL     1     -35.376  28.966   0.835  0.00  0.00    -0.045 C 
ATOM      8  C   UNL     1     -37.531  31.156   0.696  0.00  0.00    +0.000 C 
ATOM      9  C   UNL     1     -36.463  29.213  -1.449  0.00  0.00    +0.004 C 
ATOM     10  C   UNL     1     -35.521  28.389  -0.558  0.00  0.00    +0.022 C 
ATOM     11  C   UNL     1     -35.524  28.220   1.937  0.00  0.00    -0.009 C 
ENDROOT
BRANCH  11  12
ATOM     12  C   UNL     1     -35.830  26.811   1.903  0.00  0.00    -0.005 C 
ATOM     13  C   UNL     1     -35.507  25.962   2.891  0.00  0.00    -0.021 C 
ATOM     14  C   UNL     1     -35.882  24.502   2.842  0.00  0.00    +0.055 C 
ATOM     15  C   UNL     1     -34.809  26.384   4.104  0.00  0.00    +0.000 C 
ATOM     16  C   UNL     1     -36.569  24.037   4.128  0.00  0.00    +0.118 C 
ATOM     17  C   UNL     1     -35.402  25.892   5.405  0.00  0.00    +0.135 C 
ATOM     18  C   UNL     1     -35.726  24.395   5.357  0.00  0.00    +0.063 C 
ATOM     19  C   UNL     1     -33.681  27.111   4.075  0.00  0.00    -0.003 C 
BRANCH  16  20
ATOM     20  O   UNL     1     -36.741  22.626   4.066  0.00  0.00    -0.384 OA
ATOM     21  H   UNL     1     -36.189  22.264   3.354  0.00  0.00    +0.210 HD
ENDBRANCH  16  20
BRANCH  17  22
ATOM     22  O   UNL     1     -36.597  26.632   5.658  0.00  0.00    -0.380 OA
ATOM     23  H   UNL     1     -36.375  27.563   5.818  0.00  0.00    +0.211 HD
ENDBRANCH  17  22
ENDBRANCH  11  12
BRANCH   2  24
ATOM     24  C   UNL     1     -36.445  33.828  -0.141  0.00  0.00    +0.002 C 
ATOM     25  C   UNL     1     -35.970  34.514  -1.427  0.00  0.00    +0.000 C 
BRANCH  24  26
ATOM     26  C   UNL     1     -36.519  34.812   1.049  0.00  0.00    +0.029 C 
BRANCH  26  27
ATOM     27  C   UNL     1     -37.588  35.909   0.920  0.00  0.00    +0.113 C 
BRANCH  27  28
ATOM     28  O   UNL     1     -36.932  37.169   0.824  0.00  0.00    -0.384 OA
ATOM     29  H   UNL     1     -36.327  37.277   1.574  0.00  0.00    +0.210 HD
ENDBRANCH  27  28
BRANCH  27  30
ATOM     30  C   UNL     1     -38.530  35.885   2.140  0.00  0.00    +0.059 C 
BRANCH  30  31
ATOM     31  C   UNL     1     -39.941  35.296   1.896  0.00  0.00    +0.118 C 
ATOM     32  C   UNL     1     -40.362  35.604   0.451  0.00  0.00    +0.032 C 
BRANCH  31  33
ATOM     33  O   UNL     1     -39.874  33.874   2.028  0.00  0.00    -0.384 OA
ATOM     34  H   UNL     1     -39.935  33.633   2.966  0.00  0.00    +0.210 HD
ENDBRANCH  31  33
BRANCH  31  35
ATOM     35  C   UNL     1     -40.997  35.816   2.882  0.00  0.00    +0.164 C 
BRANCH  35  36
ATOM     36  O   UNL     1     -41.911  34.790   3.236  0.00  0.00    -0.380 OA
ATOM     37  H   UNL     1     -42.261  34.377   2.431  0.00  0.00    +0.211 HD
ENDBRANCH  35  36
ENDBRANCH  31  35
ENDBRANCH  30  31
ENDBRANCH  27  30
ENDBRANCH  26  27
ENDBRANCH  24  26
ENDBRANCH   2  24
TORSDOF 12
ENDMDL
MODEL 7
REMARK VINA RESULT:      -6.0      3.457      5.378
REMARK  Name = 5283763
REMARK  12 active torsions:
REMARK  status: ('A' for Active; 'I' for Inactive)
REMARK    1  A    between atoms: C_2  and  C_24
REMARK    2  A    between atoms: C_11  and  C_12
REMARK    3  A    between atoms: C_16  and  O_20
REMARK    4  A    between atoms: C_17  and  O_22
REMARK    5  A    between atoms: C_24  and  C_26
REMARK    6  A    between atoms: C_26  and  C_27
REMARK    7  A    between atoms: C_27  and  O_28
REMARK    8  A    between atoms: C_27  and  C_30
REMARK    9  A    between atoms: C_30  and  C_31
REMARK   10  A    between atoms: C_31  and  O_33
REMARK   11  A    between atoms: C_31  and  C_35
REMARK   12  A    between atoms: C_35  and  O_36
REMARK                            x       y       z     vdW  Elec       q    Type
REMARK                         _______ _______ _______ _____ _____    ______ ____
ROOT
ATOM      1  C   UNL     1     -34.540  25.207   3.232  0.00  0.00    +0.003 C 
ATOM      2  C   UNL     1     -34.729  23.675   3.112  0.00  0.00    +0.000 C 
ATOM      3  C   UNL     1     -33.454  25.416   2.148  0.00  0.00    +0.018 C 
ATOM      4  C   UNL     1     -34.697  23.413   1.590  0.00  0.00    +0.000 C 
ATOM      5  C   UNL     1     -33.992  24.625   0.954  0.00  0.00    +0.004 C 
ATOM      6  C   UNL     1     -33.973  25.674   4.588  0.00  0.00    +0.001 C 
ATOM      7  C   UNL     1     -33.053  26.863   2.045  0.00  0.00    -0.045 C 
ATOM      8  C   UNL     1     -35.858  25.965   2.931  0.00  0.00    +0.000 C 
ATOM      9  C   UNL     1     -33.496  27.136   4.532  0.00  0.00    +0.004 C 
ATOM     10  C   UNL     1     -32.547  27.423   3.358  0.00  0.00    +0.022 C 
ATOM     11  C   UNL     1     -33.118  27.602   0.931  0.00  0.00    -0.009 C 
ENDROOT
BRANCH  11  12
ATOM     12  C   UNL     1     -32.716  28.986   0.875  0.00  0.00    -0.005 C 
ATOM     13  C   UNL     1     -33.580  30.010   0.961  0.00  0.00    -0.021 C 
ATOM     14  C   UNL     1     -33.118  31.445   0.942  0.00  0.00    +0.055 C 
ATOM     15  C   UNL     1     -35.021  29.821   1.121  0.00  0.00    +0.000 C 
ATOM     16  C   UNL     1     -33.711  32.258   2.096  0.00  0.00    +0.118 C 
ATOM     17  C   UNL     1     -35.673  30.656   2.200  0.00  0.00    +0.135 C 
ATOM     18  C   UNL     1     -35.237  32.122   2.132  0.00  0.00    +0.063 C 
ATOM     19  C   UNL     1     -35.737  29.008   0.330  0.00  0.00    -0.003 C 
BRANCH  16  20
ATOM     20  O   UNL     1     -33.360  33.626   1.914  0.00  0.00    -0.384 OA
ATOM     21  H   UNL     1     -32.494  33.794   2.319  0.00  0.00    +0.210 HD
ENDBRANCH  16  20
BRANCH  17  22
ATOM     22  O   UNL     1     -35.311  30.107   3.468  0.00  0.00    -0.380 OA
ATOM     23  H   UNL     1     -34.888  30.794   4.009  0.00  0.00    +0.211 HD
ENDBRANCH  17  22
ENDBRANCH  11  12
BRANCH   2  24
ATOM     24  C   UNL     1     -35.960  23.089   3.789  0.00  0.00    +0.002 C 
ATOM     25  C   UNL     1     -35.549  22.326   5.054  0.00  0.00    +0.000 C 
BRANCH  24  26
ATOM     26  C   UNL     1     -36.734  22.192   2.795  0.00  0.00    +0.029 C 
BRANCH  26  27
ATOM     27  C   UNL     1     -38.230  22.516   2.657  0.00  0.00    +0.113 C 
BRANCH  27  28
ATOM     28  O   UNL     1     -38.911  21.336   2.246  0.00  0.00    -0.384 OA
ATOM     29  H   UNL     1     -39.826  21.554   2.014  0.00  0.00    +0.210 HD
ENDBRANCH  27  28
BRANCH  27  30
ATOM     30  C   UNL     1     -38.441  23.645   1.629  0.00  0.00    +0.059 C 
BRANCH  30  31
ATOM     31  C   UNL     1     -39.717  24.502   1.815  0.00  0.00    +0.118 C 
ATOM     32  C   UNL     1     -39.696  25.649   0.793  0.00  0.00    +0.032 C 
BRANCH  31  33
ATOM     33  O   UNL     1     -40.859  23.693   1.527  0.00  0.00    -0.384 OA
ATOM     34  H   UNL     1     -41.592  24.258   1.236  0.00  0.00    +0.210 HD
ENDBRANCH  31  33
BRANCH  31  35
ATOM     35  C   UNL     1     -39.874  25.058   3.238  0.00  0.00    +0.164 C 
BRANCH  35  36
ATOM     36  O   UNL     1     -39.278  26.341   3.350  0.00  0.00    -0.380 OA
ATOM     37  H   UNL     1     -39.742  26.854   4.031  0.00  0.00    +0.211 HD
ENDBRANCH  35  36
ENDBRANCH  31  35
ENDBRANCH  30  31
ENDBRANCH  27  30
ENDBRANCH  26  27
ENDBRANCH  24  26
ENDBRANCH   2  24
TORSDOF 12
ENDMDL
MODEL 8
REMARK VINA RESULT:      -5.9      3.376      9.016
REMARK  Name = 5283763
REMARK  12 active torsions:
REMARK  status: ('A' for Active; 'I' for Inactive)
REMARK    1  A    between atoms: C_2  and  C_24
REMARK    2  A    between atoms: C_11  and  C_12
REMARK    3  A    between atoms: C_16  and  O_20
REMARK    4  A    between atoms: C_17  and  O_22
REMARK    5  A    between atoms: C_24  and  C_26
REMARK    6  A    between atoms: C_26  and  C_27
REMARK    7  A    between atoms: C_27  and  O_28
REMARK    8  A    between atoms: C_27  and  C_30
REMARK    9  A    between atoms: C_30  and  C_31
REMARK   10  A    between atoms: C_31  and  O_33
REMARK   11  A    between atoms: C_31  and  C_35
REMARK   12  A    between atoms: C_35  and  O_36
REMARK                            x       y       z     vdW  Elec       q    Type
REMARK                         _______ _______ _______ _____ _____    ______ ____
ROOT
ATOM      1  C   UNL     1     -36.918  23.265   1.000  0.00  0.00    +0.003 C 
ATOM      2  C   UNL     1     -37.424  24.725   0.904  0.00  0.00    +0.000 C 
ATOM      3  C   UNL     1     -36.909  22.899  -0.505  0.00  0.00    +0.018 C 
ATOM      4  C   UNL     1     -36.671  25.302  -0.316  0.00  0.00    +0.000 C 
ATOM      5  C   UNL     1     -36.211  24.095  -1.154  0.00  0.00    +0.004 C 
ATOM      6  C   UNL     1     -37.878  22.305   1.731  0.00  0.00    +0.001 C 
ATOM      7  C   UNL     1     -36.451  21.482  -0.721  0.00  0.00    -0.045 C 
ATOM      8  C   UNL     1     -35.514  23.195   1.655  0.00  0.00    +0.000 C 
ATOM      9  C   UNL     1     -37.492  20.832   1.505  0.00  0.00    +0.004 C 
ATOM     10  C   UNL     1     -37.303  20.474   0.022  0.00  0.00    +0.022 C 
ATOM     11  C   UNL     1     -35.414  21.115  -1.484  0.00  0.00    -0.009 C 
ENDROOT
BRANCH  11  12
ATOM     12  C   UNL     1     -35.014  19.742  -1.670  0.00  0.00    -0.005 C 
ATOM     13  C   UNL     1     -34.031  19.158  -0.968  0.00  0.00    -0.021 C 
ATOM     14  C   UNL     1     -33.669  17.707  -1.159  0.00  0.00    +0.055 C 
ATOM     15  C   UNL     1     -33.265  19.860   0.060  0.00  0.00    +0.000 C 
ATOM     16  C   UNL     1     -33.600  16.948   0.168  0.00  0.00    +0.118 C 
ATOM     17  C   UNL     1     -33.102  19.124   1.371  0.00  0.00    +0.135 C 
ATOM     18  C   UNL     1     -32.679  17.667   1.160  0.00  0.00    +0.063 C 
ATOM     19  C   UNL     1     -32.690  21.054  -0.154  0.00  0.00    -0.003 C 
BRANCH  16  20
ATOM     20  O   UNL     1     -33.098  15.640  -0.082  0.00  0.00    -0.384 OA
ATOM     21  H   UNL     1     -33.485  15.018   0.555  0.00  0.00    +0.210 HD
ENDBRANCH  16  20
BRANCH  17  22
ATOM     22  O   UNL     1     -34.350  19.165   2.064  0.00  0.00    -0.380 OA
ATOM     23  H   UNL     1     -34.739  20.050   1.979  0.00  0.00    +0.211 HD
ENDBRANCH  17  22
ENDBRANCH  11  12
BRANCH   2  24
ATOM     24  C   UNL     1     -37.270  25.579   2.154  0.00  0.00    +0.002 C 
ATOM     25  C   UNL     1     -38.649  26.009   2.669  0.00  0.00    +0.000 C 
BRANCH  24  26
ATOM     26  C   UNL     1     -36.357  26.791   1.858  0.00  0.00    +0.029 C 
BRANCH  26  27
ATOM     27  C   UNL     1     -35.344  27.127   2.965  0.00  0.00    +0.113 C 
BRANCH  27  28
ATOM     28  O   UNL     1     -34.251  27.826   2.378  0.00  0.00    -0.384 OA
ATOM     29  H   UNL     1     -34.411  28.781   2.432  0.00  0.00    +0.210 HD
ENDBRANCH  27  28
BRANCH  27  30
ATOM     30  C   UNL     1     -34.852  25.838   3.651  0.00  0.00    +0.059 C 
BRANCH  30  31
ATOM     31  C   UNL     1     -35.187  25.700   5.156  0.00  0.00    +0.118 C 
ATOM     32  C   UNL     1     -34.016  26.261   5.976  0.00  0.00    +0.032 C 
BRANCH  31  33
ATOM     33  O   UNL     1     -36.335  26.501   5.445  0.00  0.00    -0.384 OA
ATOM     34  H   UNL     1     -37.093  26.178   4.932  0.00  0.00    +0.210 HD
ENDBRANCH  31  33
BRANCH  31  35
ATOM     35  C   UNL     1     -35.494  24.257   5.582  0.00  0.00    +0.164 C 
BRANCH  35  36
ATOM     36  O   UNL     1     -36.636  23.759   4.903  0.00  0.00    -0.380 OA
ATOM     37  H   UNL     1     -36.387  22.984   4.375  0.00  0.00    +0.211 HD
ENDBRANCH  35  36
ENDBRANCH  31  35
ENDBRANCH  30  31
ENDBRANCH  27  30
ENDBRANCH  26  27
ENDBRANCH  24  26
ENDBRANCH   2  24
TORSDOF 12
ENDMDL
MODEL 9
REMARK VINA RESULT:      -5.9      5.909      9.656
REMARK  Name = 5283763
REMARK  12 active torsions:
REMARK  status: ('A' for Active; 'I' for Inactive)
REMARK    1  A    between atoms: C_2  and  C_24
REMARK    2  A    between atoms: C_11  and  C_12
REMARK    3  A    between atoms: C_16  and  O_20
REMARK    4  A    between atoms: C_17  and  O_22
REMARK    5  A    between atoms: C_24  and  C_26
REMARK    6  A    between atoms: C_26  and  C_27
REMARK    7  A    between atoms: C_27  and  O_28
REMARK    8  A    between atoms: C_27  and  C_30
REMARK    9  A    between atoms: C_30  and  C_31
REMARK   10  A    between atoms: C_31  and  O_33
REMARK   11  A    between atoms: C_31  and  C_35
REMARK   12  A    between atoms: C_35  and  O_36
REMARK                            x       y       z     vdW  Elec       q    Type
REMARK                         _______ _______ _______ _____ _____    ______ ____
ROOT
ATOM      1  C   UNL     1     -34.098  30.787   1.857  0.00  0.00    +0.003 C 
ATOM      2  C   UNL     1     -33.623  29.379   1.422  0.00  0.00    +0.000 C 
ATOM      3  C   UNL     1     -35.439  30.855   1.085  0.00  0.00    +0.018 C 
ATOM      4  C   UNL     1     -34.908  28.522   1.464  0.00  0.00    +0.000 C 
ATOM      5  C   UNL     1     -36.090  29.505   1.392  0.00  0.00    +0.004 C 
ATOM      6  C   UNL     1     -33.197  31.941   1.374  0.00  0.00    +0.001 C 
ATOM      7  C   UNL     1     -36.142  32.164   1.321  0.00  0.00    -0.045 C 
ATOM      8  C   UNL     1     -34.274  30.873   3.396  0.00  0.00    +0.000 C 
ATOM      9  C   UNL     1     -33.883  33.308   1.542  0.00  0.00    +0.004 C 
ATOM     10  C   UNL     1     -35.295  33.359   0.936  0.00  0.00    +0.022 C 
ATOM     11  C   UNL     1     -37.381  32.296   1.811  0.00  0.00    -0.009 C 
ENDROOT
BRANCH  11  12
ATOM     12  C   UNL     1     -38.021  33.572   2.014  0.00  0.00    -0.005 C 
ATOM     13  C   UNL     1     -38.991  34.046   1.218  0.00  0.00    -0.021 C 
ATOM     14  C   UNL     1     -39.668  35.367   1.487  0.00  0.00    +0.055 C 
ATOM     15  C   UNL     1     -39.498  33.312   0.060  0.00  0.00    +0.000 C 
ATOM     16  C   UNL     1     -41.193  35.250   1.464  0.00  0.00    +0.118 C 
ATOM     17  C   UNL     1     -41.003  33.228  -0.054  0.00  0.00    +0.135 C 
ATOM     18  C   UNL     1     -41.671  34.588   0.167  0.00  0.00    +0.063 C 
ATOM     19  C   UNL     1     -38.690  32.794  -0.879  0.00  0.00    -0.003 C 
BRANCH  16  20
ATOM     20  O   UNL     1     -41.750  36.556   1.563  0.00  0.00    -0.384 OA
ATOM     21  H   UNL     1     -41.493  37.077   0.785  0.00  0.00    +0.210 HD
ENDBRANCH  16  20
BRANCH  17  22
ATOM     22  O   UNL     1     -41.473  32.300   0.926  0.00  0.00    -0.380 OA
ATOM     23  H   UNL     1     -40.728  31.772   1.255  0.00  0.00    +0.211 HD
ENDBRANCH  17  22
ENDBRANCH  11  12
BRANCH   2  24
ATOM     24  C   UNL     1     -32.478  28.773   2.220  0.00  0.00    +0.002 C 
ATOM     25  C   UNL     1     -31.248  28.596   1.321  0.00  0.00    +0.000 C 
BRANCH  24  26
ATOM     26  C   UNL     1     -32.927  27.439   2.859  0.00  0.00    +0.029 C 
BRANCH  26  27
ATOM     27  C   UNL     1     -32.760  27.361   4.386  0.00  0.00    +0.113 C 
BRANCH  27  28
ATOM     28  O   UNL     1     -34.053  27.325   4.979  0.00  0.00    -0.384 OA
ATOM     29  H   UNL     1     -34.121  28.021   5.650  0.00  0.00    +0.210 HD
ENDBRANCH  27  28
BRANCH  27  30
ATOM     30  C   UNL     1     -31.965  28.578   4.900  0.00  0.00    +0.059 C 
BRANCH  30  31
ATOM     31  C   UNL     1     -31.285  28.408   6.281  0.00  0.00    +0.118 C 
ATOM     32  C   UNL     1     -31.680  29.593   7.175  0.00  0.00    +0.032 C 
BRANCH  31  33
ATOM     33  O   UNL     1     -31.786  27.220   6.897  0.00  0.00    -0.384 OA
ATOM     34  H   UNL     1     -31.044  26.675   7.201  0.00  0.00    +0.210 HD
ENDBRANCH  31  33
BRANCH  31  35
ATOM     35  C   UNL     1     -29.756  28.291   6.195  0.00  0.00    +0.164 C 
BRANCH  35  36
ATOM     36  O   UNL     1     -29.287  27.194   6.962  0.00  0.00    -0.380 OA
ATOM     37  H   UNL     1     -29.835  27.096   7.756  0.00  0.00    +0.211 HD
ENDBRANCH  35  36
ENDBRANCH  31  35
ENDBRANCH  30  31
ENDBRANCH  27  30
ENDBRANCH  26  27
ENDBRANCH  24  26
ENDBRANCH   2  24
TORSDOF 12
ENDMDL
