MODEL 1
REMARK VINA RESULT:      -5.7      0.000      0.000
REMARK  Name = 5351387
REMARK  10 active torsions:
REMARK  status: ('A' for Active; 'I' for Inactive)
REMARK    1  A    between atoms: C_1  and  C_10
REMARK    2  A    between atoms: C_3  and  O_23
REMARK    3  A    between atoms: C_5  and  O_7
REMARK    4  A    between atoms: C_9  and  C_11
REMARK    5  A    between atoms: C_14  and  O_17
REMARK    6  A    between atoms: C_15  and  O_19
REMARK    7  A    between atoms: C_16  and  O_21
REMARK    8  A    between atoms: O_23  and  P_24
REMARK    9  A    between atoms: P_24  and  O_26
REMARK   10  A    between atoms: P_24  and  O_28
REMARK                            x       y       z     vdW  Elec       q    Type
REMARK                         _______ _______ _______ _____ _____    ______ ____
ROOT
ATOM      1  C   UNL     1     -35.063  24.161   5.310  0.00  0.00    +0.003 C 
ATOM      2  C   UNL     1     -33.845  24.612   4.801  0.00  0.00    +0.041 C 
ATOM      3  C   UNL     1     -33.754  25.882   4.231  0.00  0.00    +0.183 C 
ATOM      4  C   UNL     1     -36.190  24.981   5.250  0.00  0.00    +0.003 C 
ATOM      5  C   UNL     1     -34.881  26.701   4.172  0.00  0.00    +0.173 C 
ATOM      6  C   UNL     1     -36.099  26.251   4.681  0.00  0.00    +0.040 C 
ENDROOT
BRANCH   5   7
ATOM      7  O   UNL     1     -34.805  27.944   3.618  0.00  0.00    -0.468 OA
ATOM      8  C   UNL     1     -35.532  28.160   2.410  0.00  0.00    +0.253 C 
ENDBRANCH   5   7
BRANCH   1  10
ATOM      9  C   UNL     1     -35.485  21.704   5.238  0.00  0.00    +0.000 C 
ATOM     10  C   UNL     1     -35.158  22.837   5.904  0.00  0.00    +0.000 C 
BRANCH   9  11
ATOM     11  C   UNL     1     -35.799  21.624   3.801  0.00  0.00    +0.006 C 
ATOM     12  C   UNL     1     -35.081  20.753   2.997  0.00  0.00    +0.040 C 
ATOM     13  C   UNL     1     -36.807  22.420   3.281  0.00  0.00    +0.040 C 
ATOM     14  C   UNL     1     -37.104  22.344   1.920  0.00  0.00    +0.175 C 
ATOM     15  C   UNL     1     -35.378  20.677   1.636  0.00  0.00    +0.175 C 
ATOM     16  C   UNL     1     -36.390  21.472   1.098  0.00  0.00    +0.206 C 
BRANCH  14  17
ATOM     17  O   UNL     1     -38.093  23.126   1.407  0.00  0.00    -0.468 OA
ATOM     18  C   UNL     1     -39.429  22.830   1.812  0.00  0.00    +0.253 C 
ENDBRANCH  14  17
BRANCH  15  19
ATOM     19  O   UNL     1     -34.674  19.821   0.845  0.00  0.00    -0.468 OA
ATOM     20  C   UNL     1     -33.574  19.139   1.444  0.00  0.00    +0.253 C 
ENDBRANCH  15  19
BRANCH  16  21
ATOM     21  O   UNL     1     -36.681  21.397  -0.232  0.00  0.00    -0.465 OA
ATOM     22  C   UNL     1     -37.691  20.470  -0.621  0.00  0.00    +0.253 C 
ENDBRANCH  16  21
ENDBRANCH   9  11
ENDBRANCH   1  10
BRANCH   3  23
ATOM     23  O   UNL     1     -32.559  26.310   3.737  0.00  0.00    -0.400 OA
BRANCH  23  24
ATOM     24  P   UNL     1     -32.127  26.270   2.178  0.00  0.00    +0.528 P 
ATOM     25  O   UNL     1     -32.911  25.322   1.319  0.00  0.00    -0.216 OA
BRANCH  24  26
ATOM     26  O   UNL     1     -30.543  25.947   2.257  0.00  0.00    -0.293 OA
ATOM     27  H   UNL     1     -30.311  25.678   3.160  0.00  0.00    +0.223 HD
ENDBRANCH  24  26
BRANCH  24  28
ATOM     28  O   UNL     1     -32.158  27.820   1.719  0.00  0.00    -0.293 OA
ATOM     29  H   UNL     1     -32.331  28.383   2.491  0.00  0.00    +0.223 HD
ENDBRANCH  24  28
ENDBRANCH  23  24
ENDBRANCH   3  23
TORSDOF 10
ENDMDL
MODEL 2
REMARK VINA RESULT:      -5.7      0.590      2.551
REMARK  Name = 5351387
REMARK  10 active torsions:
REMARK  status: ('A' for Active; 'I' for Inactive)
REMARK    1  A    between atoms: C_1  and  C_10
REMARK    2  A    between atoms: C_3  and  O_23
REMARK    3  A    between atoms: C_5  and  O_7
REMARK    4  A    between atoms: C_9  and  C_11
REMARK    5  A    between atoms: C_14  and  O_17
REMARK    6  A    between atoms: C_15  and  O_19
REMARK    7  A    between atoms: C_16  and  O_21
REMARK    8  A    between atoms: O_23  and  P_24
REMARK    9  A    between atoms: P_24  and  O_26
REMARK   10  A    between atoms: P_24  and  O_28
REMARK                            x       y       z     vdW  Elec       q    Type
REMARK                         _______ _______ _______ _____ _____    ______ ____
ROOT
ATOM      1  C   UNL     1     -35.049  24.164   5.290  0.00  0.00    +0.003 C 
ATOM      2  C   UNL     1     -33.833  24.621   4.781  0.00  0.00    +0.041 C 
ATOM      3  C   UNL     1     -33.745  25.894   4.218  0.00  0.00    +0.183 C 
ATOM      4  C   UNL     1     -36.178  24.982   5.235  0.00  0.00    +0.003 C 
ATOM      5  C   UNL     1     -34.875  26.710   4.163  0.00  0.00    +0.173 C 
ATOM      6  C   UNL     1     -36.091  26.254   4.672  0.00  0.00    +0.040 C 
ENDROOT
BRANCH   5   7
ATOM      7  O   UNL     1     -34.803  27.955   3.615  0.00  0.00    -0.468 OA
ATOM      8  C   UNL     1     -35.506  28.166   2.392  0.00  0.00    +0.253 C 
ENDBRANCH   5   7
BRANCH   1  10
ATOM      9  C   UNL     1     -35.437  21.702   5.202  0.00  0.00    +0.000 C 
ATOM     10  C   UNL     1     -35.140  22.838   5.878  0.00  0.00    +0.000 C 
BRANCH   9  11
ATOM     11  C   UNL     1     -35.717  21.623   3.757  0.00  0.00    +0.006 C 
ATOM     12  C   UNL     1     -36.635  22.496   3.195  0.00  0.00    +0.040 C 
ATOM     13  C   UNL     1     -35.057  20.677   2.989  0.00  0.00    +0.040 C 
ATOM     14  C   UNL     1     -35.323  20.602   1.622  0.00  0.00    +0.175 C 
ATOM     15  C   UNL     1     -36.900  22.421   1.828  0.00  0.00    +0.175 C 
ATOM     16  C   UNL     1     -36.244  21.474   1.041  0.00  0.00    +0.206 C 
BRANCH  14  17
ATOM     17  O   UNL     1     -34.676  19.673   0.865  0.00  0.00    -0.468 OA
ATOM     18  C   UNL     1     -33.492  19.099   1.416  0.00  0.00    +0.253 C 
ENDBRANCH  14  17
BRANCH  15  19
ATOM     19  O   UNL     1     -37.801  23.278   1.273  0.00  0.00    -0.468 OA
ATOM     20  C   UNL     1     -38.445  24.200   2.151  0.00  0.00    +0.253 C 
ENDBRANCH  15  19
BRANCH  16  21
ATOM     21  O   UNL     1     -36.503  21.401  -0.295  0.00  0.00    -0.465 OA
ATOM     22  C   UNL     1     -35.709  22.217  -1.153  0.00  0.00    +0.253 C 
ENDBRANCH  16  21
ENDBRANCH   9  11
ENDBRANCH   1  10
BRANCH   3  23
ATOM     23  O   UNL     1     -32.552  26.327   3.724  0.00  0.00    -0.400 OA
BRANCH  23  24
ATOM     24  P   UNL     1     -32.107  26.262   2.170  0.00  0.00    +0.528 P 
ATOM     25  O   UNL     1     -32.865  25.280   1.326  0.00  0.00    -0.216 OA
BRANCH  24  26
ATOM     26  O   UNL     1     -30.518  25.973   2.267  0.00  0.00    -0.293 OA
ATOM     27  H   UNL     1     -30.136  26.497   2.989  0.00  0.00    +0.223 HD
ENDBRANCH  24  26
BRANCH  24  28
ATOM     28  O   UNL     1     -32.166  27.801   1.677  0.00  0.00    -0.293 OA
ATOM     29  H   UNL     1     -32.993  28.207   1.981  0.00  0.00    +0.223 HD
ENDBRANCH  24  28
ENDBRANCH  23  24
ENDBRANCH   3  23
TORSDOF 10
ENDMDL
MODEL 3
REMARK VINA RESULT:      -5.6      1.469      3.119
REMARK  Name = 5351387
REMARK  10 active torsions:
REMARK  status: ('A' for Active; 'I' for Inactive)
REMARK    1  A    between atoms: C_1  and  C_10
REMARK    2  A    between atoms: C_3  and  O_23
REMARK    3  A    between atoms: C_5  and  O_7
REMARK    4  A    between atoms: C_9  and  C_11
REMARK    5  A    between atoms: C_14  and  O_17
REMARK    6  A    between atoms: C_15  and  O_19
REMARK    7  A    between atoms: C_16  and  O_21
REMARK    8  A    between atoms: O_23  and  P_24
REMARK    9  A    between atoms: P_24  and  O_26
REMARK   10  A    between atoms: P_24  and  O_28
REMARK                            x       y       z     vdW  Elec       q    Type
REMARK                         _______ _______ _______ _____ _____    ______ ____
ROOT
ATOM      1  C   UNL     1     -35.175  24.378   5.390  0.00  0.00    +0.003 C 
ATOM      2  C   UNL     1     -33.944  25.034   5.365  0.00  0.00    +0.041 C 
ATOM      3  C   UNL     1     -33.836  26.292   4.771  0.00  0.00    +0.183 C 
ATOM      4  C   UNL     1     -36.297  24.979   4.821  0.00  0.00    +0.003 C 
ATOM      5  C   UNL     1     -34.958  26.892   4.202  0.00  0.00    +0.173 C 
ATOM      6  C   UNL     1     -36.189  26.236   4.227  0.00  0.00    +0.040 C 
ENDROOT
BRANCH   5   7
ATOM      7  O   UNL     1     -34.866  28.120   3.619  0.00  0.00    -0.468 OA
ATOM      8  C   UNL     1     -35.244  28.215   2.246  0.00  0.00    +0.253 C 
ENDBRANCH   5   7
BRANCH   1  10
ATOM      9  C   UNL     1     -35.562  21.915   5.355  0.00  0.00    +0.000 C 
ATOM     10  C   UNL     1     -35.288  23.067   6.010  0.00  0.00    +0.000 C 
BRANCH   9  11
ATOM     11  C   UNL     1     -35.792  21.796   3.904  0.00  0.00    +0.006 C 
ATOM     12  C   UNL     1     -36.941  22.339   3.352  0.00  0.00    +0.040 C 
ATOM     13  C   UNL     1     -34.853  21.145   3.119  0.00  0.00    +0.040 C 
ATOM     14  C   UNL     1     -35.070  21.033   1.746  0.00  0.00    +0.175 C 
ATOM     15  C   UNL     1     -37.159  22.227   1.979  0.00  0.00    +0.175 C 
ATOM     16  C   UNL     1     -36.222  21.575   1.176  0.00  0.00    +0.206 C 
BRANCH  14  17
ATOM     17  O   UNL     1     -34.149  20.394   0.973  0.00  0.00    -0.468 OA
ATOM     18  C   UNL     1     -33.687  19.125   1.432  0.00  0.00    +0.253 C 
ENDBRANCH  14  17
BRANCH  15  19
ATOM     19  O   UNL     1     -38.287  22.759   1.435  0.00  0.00    -0.468 OA
ATOM     20  C   UNL     1     -39.524  22.124   1.754  0.00  0.00    +0.253 C 
ENDBRANCH  15  19
BRANCH  16  21
ATOM     21  O   UNL     1     -36.435  21.466  -0.166  0.00  0.00    -0.465 OA
ATOM     22  C   UNL     1     -37.074  20.277  -0.625  0.00  0.00    +0.253 C 
ENDBRANCH  16  21
ENDBRANCH   9  11
ENDBRANCH   1  10
BRANCH   3  23
ATOM     23  O   UNL     1     -32.628  26.922   4.753  0.00  0.00    -0.400 OA
BRANCH  23  24
ATOM     24  P   UNL     1     -32.118  27.991   5.855  0.00  0.00    +0.528 P 
ATOM     25  O   UNL     1     -32.553  29.408   5.625  0.00  0.00    -0.216 OA
BRANCH  24  26
ATOM     26  O   UNL     1     -30.514  27.773   5.846  0.00  0.00    -0.293 OA
ATOM     27  H   UNL     1     -30.223  27.474   6.722  0.00  0.00    +0.223 HD
ENDBRANCH  24  26
BRANCH  24  28
ATOM     28  O   UNL     1     -32.563  27.342   7.269  0.00  0.00    -0.293 OA
ATOM     29  H   UNL     1     -32.662  26.382   7.168  0.00  0.00    +0.223 HD
ENDBRANCH  24  28
ENDBRANCH  23  24
ENDBRANCH   3  23
TORSDOF 10
ENDMDL
MODEL 4
REMARK VINA RESULT:      -5.6      2.893      6.801
REMARK  Name = 5351387
REMARK  10 active torsions:
REMARK  status: ('A' for Active; 'I' for Inactive)
REMARK    1  A    between atoms: C_1  and  C_10
REMARK    2  A    between atoms: C_3  and  O_23
REMARK    3  A    between atoms: C_5  and  O_7
REMARK    4  A    between atoms: C_9  and  C_11
REMARK    5  A    between atoms: C_14  and  O_17
REMARK    6  A    between atoms: C_15  and  O_19
REMARK    7  A    between atoms: C_16  and  O_21
REMARK    8  A    between atoms: O_23  and  P_24
REMARK    9  A    between atoms: P_24  and  O_26
REMARK   10  A    between atoms: P_24  and  O_28
REMARK                            x       y       z     vdW  Elec       q    Type
REMARK                         _______ _______ _______ _____ _____    ______ ____
ROOT
ATOM      1  C   UNL     1     -36.315  25.968   3.104  0.00  0.00    +0.003 C 
ATOM      2  C   UNL     1     -36.756  24.746   2.596  0.00  0.00    +0.041 C 
ATOM      3  C   UNL     1     -36.748  23.610   3.405  0.00  0.00    +0.183 C 
ATOM      4  C   UNL     1     -35.866  26.053   4.422  0.00  0.00    +0.003 C 
ATOM      5  C   UNL     1     -36.298  23.696   4.722  0.00  0.00    +0.173 C 
ATOM      6  C   UNL     1     -35.858  24.918   5.231  0.00  0.00    +0.040 C 
ENDROOT
BRANCH   5   7
ATOM      7  O   UNL     1     -36.285  22.593   5.522  0.00  0.00    -0.468 OA
ATOM      8  C   UNL     1     -35.112  22.376   6.305  0.00  0.00    +0.253 C 
ENDBRANCH   5   7
BRANCH   1  10
ATOM      9  C   UNL     1     -35.226  27.753   1.744  0.00  0.00    +0.000 C 
ATOM     10  C   UNL     1     -36.325  27.153   2.261  0.00  0.00    +0.000 C 
BRANCH   9  11
ATOM     11  C   UNL     1     -33.837  27.304   1.950  0.00  0.00    +0.006 C 
ATOM     12  C   UNL     1     -33.105  27.827   3.005  0.00  0.00    +0.040 C 
ATOM     13  C   UNL     1     -33.291  26.367   1.087  0.00  0.00    +0.040 C 
ATOM     14  C   UNL     1     -31.977  25.943   1.283  0.00  0.00    +0.175 C 
ATOM     15  C   UNL     1     -31.790  27.402   3.200  0.00  0.00    +0.175 C 
ATOM     16  C   UNL     1     -31.227  26.460   2.339  0.00  0.00    +0.206 C 
BRANCH  14  17
ATOM     17  O   UNL     1     -31.438  25.023   0.435  0.00  0.00    -0.468 OA
ATOM     18  C   UNL     1     -32.205  24.676  -0.716  0.00  0.00    +0.253 C 
ENDBRANCH  14  17
BRANCH  15  19
ATOM     19  O   UNL     1     -31.069  27.914   4.235  0.00  0.00    -0.468 OA
ATOM     20  C   UNL     1     -31.788  28.636   5.233  0.00  0.00    +0.253 C 
ENDBRANCH  15  19
BRANCH  16  21
ATOM     21  O   UNL     1     -29.942  26.045   2.530  0.00  0.00    -0.465 OA
ATOM     22  C   UNL     1     -28.915  26.819   1.916  0.00  0.00    +0.253 C 
ENDBRANCH  16  21
ENDBRANCH   9  11
ENDBRANCH   1  10
BRANCH   3  23
ATOM     23  O   UNL     1     -37.180  22.422   2.896  0.00  0.00    -0.400 OA
BRANCH  23  24
ATOM     24  P   UNL     1     -36.234  21.299   2.217  0.00  0.00    +0.528 P 
ATOM     25  O   UNL     1     -35.234  21.816   1.226  0.00  0.00    -0.216 OA
BRANCH  24  26
ATOM     26  O   UNL     1     -37.307  20.255   1.602  0.00  0.00    -0.293 OA
ATOM     27  H   UNL     1     -37.003  19.952   0.732  0.00  0.00    +0.223 HD
ENDBRANCH  24  26
BRANCH  24  28
ATOM     28  O   UNL     1     -35.620  20.488   3.474  0.00  0.00    -0.293 OA
ATOM     29  H   UNL     1     -36.336  20.039   3.951  0.00  0.00    +0.223 HD
ENDBRANCH  24  28
ENDBRANCH  23  24
ENDBRANCH   3  23
TORSDOF 10
ENDMDL
MODEL 5
REMARK VINA RESULT:      -5.6      2.927      6.670
REMARK  Name = 5351387
REMARK  10 active torsions:
REMARK  status: ('A' for Active; 'I' for Inactive)
REMARK    1  A    between atoms: C_1  and  C_10
REMARK    2  A    between atoms: C_3  and  O_23
REMARK    3  A    between atoms: C_5  and  O_7
REMARK    4  A    between atoms: C_9  and  C_11
REMARK    5  A    between atoms: C_14  and  O_17
REMARK    6  A    between atoms: C_15  and  O_19
REMARK    7  A    between atoms: C_16  and  O_21
REMARK    8  A    between atoms: O_23  and  P_24
REMARK    9  A    between atoms: P_24  and  O_26
REMARK   10  A    between atoms: P_24  and  O_28
REMARK                            x       y       z     vdW  Elec       q    Type
REMARK                         _______ _______ _______ _____ _____    ______ ____
ROOT
ATOM      1  C   UNL     1     -36.343  25.902   3.123  0.00  0.00    +0.003 C 
ATOM      2  C   UNL     1     -36.778  24.657   2.671  0.00  0.00    +0.041 C 
ATOM      3  C   UNL     1     -36.741  23.552   3.523  0.00  0.00    +0.183 C 
ATOM      4  C   UNL     1     -35.870  26.044   4.427  0.00  0.00    +0.003 C 
ATOM      5  C   UNL     1     -36.268  23.695   4.827  0.00  0.00    +0.173 C 
ATOM      6  C   UNL     1     -35.833  24.941   5.280  0.00  0.00    +0.040 C 
ENDROOT
BRANCH   5   7
ATOM      7  O   UNL     1     -36.226  22.625   5.669  0.00  0.00    -0.468 OA
ATOM      8  C   UNL     1     -34.946  22.049   5.921  0.00  0.00    +0.253 C 
ENDBRANCH   5   7
BRANCH   1  10
ATOM      9  C   UNL     1     -35.301  27.648   1.679  0.00  0.00    +0.000 C 
ATOM     10  C   UNL     1     -36.383  27.053   2.235  0.00  0.00    +0.000 C 
BRANCH   9  11
ATOM     11  C   UNL     1     -33.902  27.228   1.881  0.00  0.00    +0.006 C 
ATOM     12  C   UNL     1     -33.338  26.307   1.012  0.00  0.00    +0.040 C 
ATOM     13  C   UNL     1     -33.178  27.764   2.934  0.00  0.00    +0.040 C 
ATOM     14  C   UNL     1     -31.855  27.366   3.125  0.00  0.00    +0.175 C 
ATOM     15  C   UNL     1     -32.015  25.909   1.203  0.00  0.00    +0.175 C 
ATOM     16  C   UNL     1     -31.273  26.440   2.259  0.00  0.00    +0.206 C 
BRANCH  14  17
ATOM     17  O   UNL     1     -31.142  27.891   4.159  0.00  0.00    -0.468 OA
ATOM     18  C   UNL     1     -31.702  29.021   4.825  0.00  0.00    +0.253 C 
ENDBRANCH  14  17
BRANCH  15  19
ATOM     19  O   UNL     1     -31.459  25.004   0.352  0.00  0.00    -0.468 OA
ATOM     20  C   UNL     1     -31.106  25.470  -0.950  0.00  0.00    +0.253 C 
ENDBRANCH  15  19
BRANCH  16  21
ATOM     21  O   UNL     1     -29.980  26.051   2.446  0.00  0.00    -0.465 OA
ATOM     22  C   UNL     1     -28.969  26.867   1.858  0.00  0.00    +0.253 C 
ENDBRANCH  16  21
ENDBRANCH   9  11
ENDBRANCH   1  10
BRANCH   3  23
ATOM     23  O   UNL     1     -37.168  22.341   3.069  0.00  0.00    -0.400 OA
BRANCH  23  24
ATOM     24  P   UNL     1     -36.313  21.345   2.123  0.00  0.00    +0.528 P 
ATOM     25  O   UNL     1     -34.852  21.667   2.008  0.00  0.00    -0.216 OA
BRANCH  24  26
ATOM     26  O   UNL     1     -37.123  21.402   0.723  0.00  0.00    -0.293 OA
ATOM     27  H   UNL     1     -37.397  20.506   0.471  0.00  0.00    +0.223 HD
ENDBRANCH  24  26
BRANCH  24  28
ATOM     28  O   UNL     1     -36.663  19.870   2.685  0.00  0.00    -0.293 OA
ATOM     29  H   UNL     1     -36.308  19.773   3.583  0.00  0.00    +0.223 HD
ENDBRANCH  24  28
ENDBRANCH  23  24
ENDBRANCH   3  23
TORSDOF 10
ENDMDL
MODEL 6
REMARK VINA RESULT:      -5.6      1.530      2.024
REMARK  Name = 5351387
REMARK  10 active torsions:
REMARK  status: ('A' for Active; 'I' for Inactive)
REMARK    1  A    between atoms: C_1  and  C_10
REMARK    2  A    between atoms: C_3  and  O_23
REMARK    3  A    between atoms: C_5  and  O_7
REMARK    4  A    between atoms: C_9  and  C_11
REMARK    5  A    between atoms: C_14  and  O_17
REMARK    6  A    between atoms: C_15  and  O_19
REMARK    7  A    between atoms: C_16  and  O_21
REMARK    8  A    between atoms: O_23  and  P_24
REMARK    9  A    between atoms: P_24  and  O_26
REMARK   10  A    between atoms: P_24  and  O_28
REMARK                            x       y       z     vdW  Elec       q    Type
REMARK                         _______ _______ _______ _____ _____    ______ ____
ROOT
ATOM      1  C   UNL     1     -35.173  24.354   5.377  0.00  0.00    +0.003 C 
ATOM      2  C   UNL     1     -33.947  25.018   5.341  0.00  0.00    +0.041 C 
ATOM      3  C   UNL     1     -33.855  26.286   4.765  0.00  0.00    +0.183 C 
ATOM      4  C   UNL     1     -36.308  24.959   4.837  0.00  0.00    +0.003 C 
ATOM      5  C   UNL     1     -34.991  26.889   4.226  0.00  0.00    +0.173 C 
ATOM      6  C   UNL     1     -36.218  26.226   4.262  0.00  0.00    +0.040 C 
ENDROOT
BRANCH   5   7
ATOM      7  O   UNL     1     -34.915  28.126   3.660  0.00  0.00    -0.468 OA
ATOM      8  C   UNL     1     -34.800  28.183   2.240  0.00  0.00    +0.253 C 
ENDBRANCH   5   7
BRANCH   1  10
ATOM      9  C   UNL     1     -35.550  21.890   5.309  0.00  0.00    +0.000 C 
ATOM     10  C   UNL     1     -35.268  23.034   5.978  0.00  0.00    +0.000 C 
BRANCH   9  11
ATOM     11  C   UNL     1     -35.808  21.794   3.862  0.00  0.00    +0.006 C 
ATOM     12  C   UNL     1     -34.936  21.070   3.064  0.00  0.00    +0.040 C 
ATOM     13  C   UNL     1     -36.918  22.427   3.326  0.00  0.00    +0.040 C 
ATOM     14  C   UNL     1     -37.162  22.336   1.956  0.00  0.00    +0.175 C 
ATOM     15  C   UNL     1     -35.179  20.979   1.693  0.00  0.00    +0.175 C 
ATOM     16  C   UNL     1     -36.293  21.611   1.140  0.00  0.00    +0.206 C 
BRANCH  14  17
ATOM     17  O   UNL     1     -38.252  22.958   1.428  0.00  0.00    -0.468 OA
ATOM     18  C   UNL     1     -39.525  22.371   1.693  0.00  0.00    +0.253 C 
ENDBRANCH  14  17
BRANCH  15  19
ATOM     19  O   UNL     1     -34.324  20.269   0.908  0.00  0.00    -0.468 OA
ATOM     20  C   UNL     1     -33.687  19.138   1.499  0.00  0.00    +0.253 C 
ENDBRANCH  15  19
BRANCH  16  21
ATOM     21  O   UNL     1     -36.531  21.521  -0.200  0.00  0.00    -0.465 OA
ATOM     22  C   UNL     1     -35.962  22.534  -1.026  0.00  0.00    +0.253 C 
ENDBRANCH  16  21
ENDBRANCH   9  11
ENDBRANCH   1  10
BRANCH   3  23
ATOM     23  O   UNL     1     -32.652  26.923   4.735  0.00  0.00    -0.400 OA
BRANCH  23  24
ATOM     24  P   UNL     1     -32.128  27.978   5.844  0.00  0.00    +0.528 P 
ATOM     25  O   UNL     1     -32.556  29.400   5.631  0.00  0.00    -0.216 OA
BRANCH  24  26
ATOM     26  O   UNL     1     -30.526  27.751   5.822  0.00  0.00    -0.293 OA
ATOM     27  H   UNL     1     -30.091  28.542   5.466  0.00  0.00    +0.223 HD
ENDBRANCH  24  26
BRANCH  24  28
ATOM     28  O   UNL     1     -32.567  27.318   7.255  0.00  0.00    -0.293 OA
ATOM     29  H   UNL     1     -32.445  27.967   7.967  0.00  0.00    +0.223 HD
ENDBRANCH  24  28
ENDBRANCH  23  24
ENDBRANCH   3  23
TORSDOF 10
ENDMDL
MODEL 7
REMARK VINA RESULT:      -5.6      3.020      5.283
REMARK  Name = 5351387
REMARK  10 active torsions:
REMARK  status: ('A' for Active; 'I' for Inactive)
REMARK    1  A    between atoms: C_1  and  C_10
REMARK    2  A    between atoms: C_3  and  O_23
REMARK    3  A    between atoms: C_5  and  O_7
REMARK    4  A    between atoms: C_9  and  C_11
REMARK    5  A    between atoms: C_14  and  O_17
REMARK    6  A    between atoms: C_15  and  O_19
REMARK    7  A    between atoms: C_16  and  O_21
REMARK    8  A    between atoms: O_23  and  P_24
REMARK    9  A    between atoms: P_24  and  O_26
REMARK   10  A    between atoms: P_24  and  O_28
REMARK                            x       y       z     vdW  Elec       q    Type
REMARK                         _______ _______ _______ _____ _____    ______ ____
ROOT
ATOM      1  C   UNL     1     -35.101  22.117   1.374  0.00  0.00    +0.003 C 
ATOM      2  C   UNL     1     -35.142  23.394   1.932  0.00  0.00    +0.041 C 
ATOM      3  C   UNL     1     -35.413  23.554   3.292  0.00  0.00    +0.183 C 
ATOM      4  C   UNL     1     -35.330  20.998   2.175  0.00  0.00    +0.003 C 
ATOM      5  C   UNL     1     -35.642  22.435   4.092  0.00  0.00    +0.173 C 
ATOM      6  C   UNL     1     -35.601  21.157   3.534  0.00  0.00    +0.040 C 
ENDROOT
BRANCH   5   7
ATOM      7  O   UNL     1     -35.908  22.577   5.421  0.00  0.00    -0.468 OA
ATOM      8  C   UNL     1     -35.027  21.921   6.331  0.00  0.00    +0.253 C 
ENDBRANCH   5   7
BRANCH   1  10
ATOM      9  C   UNL     1     -35.733  21.634  -0.990  0.00  0.00    +0.000 C 
ATOM     10  C   UNL     1     -34.818  21.951  -0.043  0.00  0.00    +0.000 C 
BRANCH   9  11
ATOM     11  C   UNL     1     -37.167  21.404  -0.742  0.00  0.00    +0.006 C 
ATOM     12  C   UNL     1     -37.975  22.474  -0.390  0.00  0.00    +0.040 C 
ATOM     13  C   UNL     1     -37.681  20.124  -0.869  0.00  0.00    +0.040 C 
ATOM     14  C   UNL     1     -39.039  19.907  -0.635  0.00  0.00    +0.175 C 
ATOM     15  C   UNL     1     -39.332  22.257  -0.156  0.00  0.00    +0.175 C 
ATOM     16  C   UNL     1     -39.865  20.974  -0.279  0.00  0.00    +0.206 C 
BRANCH  14  17
ATOM     17  O   UNL     1     -39.547  18.649  -0.757  0.00  0.00    -0.468 OA
ATOM     18  C   UNL     1     -38.682  17.652  -1.298  0.00  0.00    +0.253 C 
ENDBRANCH  14  17
BRANCH  15  19
ATOM     19  O   UNL     1     -40.127  23.307   0.190  0.00  0.00    -0.468 OA
ATOM     20  C   UNL     1     -39.733  24.073   1.327  0.00  0.00    +0.253 C 
ENDBRANCH  15  19
BRANCH  16  21
ATOM     21  O   UNL     1     -41.192  20.762  -0.051  0.00  0.00    -0.465 OA
ATOM     22  C   UNL     1     -42.066  20.870  -1.172  0.00  0.00    +0.253 C 
ENDBRANCH  16  21
ENDBRANCH   9  11
ENDBRANCH   1  10
BRANCH   3  23
ATOM     23  O   UNL     1     -35.451  24.807   3.824  0.00  0.00    -0.400 OA
BRANCH  23  24
ATOM     24  P   UNL     1     -36.753  25.768   3.855  0.00  0.00    +0.528 P 
ATOM     25  O   UNL     1     -37.011  26.539   2.594  0.00  0.00    -0.216 OA
BRANCH  24  26
ATOM     26  O   UNL     1     -36.485  26.687   5.159  0.00  0.00    -0.293 OA
ATOM     27  H   UNL     1     -36.935  26.300   5.927  0.00  0.00    +0.223 HD
ENDBRANCH  24  26
BRANCH  24  28
ATOM     28  O   UNL     1     -37.951  24.794   4.338  0.00  0.00    -0.293 OA
ATOM     29  H   UNL     1     -37.615  23.888   4.428  0.00  0.00    +0.223 HD
ENDBRANCH  24  28
ENDBRANCH  23  24
ENDBRANCH   3  23
TORSDOF 10
ENDMDL
MODEL 8
REMARK VINA RESULT:      -5.6      2.934      7.053
REMARK  Name = 5351387
REMARK  10 active torsions:
REMARK  status: ('A' for Active; 'I' for Inactive)
REMARK    1  A    between atoms: C_1  and  C_10
REMARK    2  A    between atoms: C_3  and  O_23
REMARK    3  A    between atoms: C_5  and  O_7
REMARK    4  A    between atoms: C_9  and  C_11
REMARK    5  A    between atoms: C_14  and  O_17
REMARK    6  A    between atoms: C_15  and  O_19
REMARK    7  A    between atoms: C_16  and  O_21
REMARK    8  A    between atoms: O_23  and  P_24
REMARK    9  A    between atoms: P_24  and  O_26
REMARK   10  A    between atoms: P_24  and  O_28
REMARK                            x       y       z     vdW  Elec       q    Type
REMARK                         _______ _______ _______ _____ _____    ______ ____
ROOT
ATOM      1  C   UNL     1     -34.005  22.333  -0.542  0.00  0.00    +0.003 C 
ATOM      2  C   UNL     1     -35.029  21.408  -0.746  0.00  0.00    +0.041 C 
ATOM      3  C   UNL     1     -34.815  20.057  -0.471  0.00  0.00    +0.183 C 
ATOM      4  C   UNL     1     -32.767  21.907  -0.061  0.00  0.00    +0.003 C 
ATOM      5  C   UNL     1     -33.576  19.633   0.010  0.00  0.00    +0.173 C 
ATOM      6  C   UNL     1     -32.553  20.558   0.215  0.00  0.00    +0.040 C 
ENDROOT
BRANCH   5   7
ATOM      7  O   UNL     1     -33.354  18.316   0.283  0.00  0.00    -0.468 OA
ATOM      8  C   UNL     1     -32.269  18.011   1.157  0.00  0.00    +0.253 C 
ENDBRANCH   5   7
BRANCH   1  10
ATOM      9  C   UNL     1     -34.688  24.655   0.060  0.00  0.00    +0.000 C 
ATOM     10  C   UNL     1     -34.229  23.741  -0.828  0.00  0.00    +0.000 C 
BRANCH   9  11
ATOM     11  C   UNL     1     -35.037  24.374   1.465  0.00  0.00    +0.006 C 
ATOM     12  C   UNL     1     -34.179  24.788   2.472  0.00  0.00    +0.040 C 
ATOM     13  C   UNL     1     -36.215  23.703   1.751  0.00  0.00    +0.040 C 
ATOM     14  C   UNL     1     -36.544  23.438   3.080  0.00  0.00    +0.175 C 
ATOM     15  C   UNL     1     -34.509  24.523   3.801  0.00  0.00    +0.175 C 
ATOM     16  C   UNL     1     -35.692  23.849   4.105  0.00  0.00    +0.206 C 
BRANCH  14  17
ATOM     17  O   UNL     1     -37.701  22.779   3.363  0.00  0.00    -0.468 OA
ATOM     18  C   UNL     1     -38.533  22.425   2.260  0.00  0.00    +0.253 C 
ENDBRANCH  14  17
BRANCH  15  19
ATOM     19  O   UNL     1     -33.668  24.929   4.792  0.00  0.00    -0.468 OA
ATOM     20  C   UNL     1     -33.857  26.247   5.304  0.00  0.00    +0.253 C 
ENDBRANCH  15  19
BRANCH  16  21
ATOM     21  O   UNL     1     -36.014  23.590   5.404  0.00  0.00    -0.465 OA
ATOM     22  C   UNL     1     -35.449  22.419   5.989  0.00  0.00    +0.253 C 
ENDBRANCH  16  21
ENDBRANCH   9  11
ENDBRANCH   1  10
BRANCH   3  23
ATOM     23  O   UNL     1     -35.822  19.163  -0.676  0.00  0.00    -0.400 OA
BRANCH  23  24
ATOM     24  P   UNL     1     -37.160  19.044   0.226  0.00  0.00    +0.528 P 
ATOM     25  O   UNL     1     -38.338  19.834  -0.264  0.00  0.00    -0.216 OA
BRANCH  24  26
ATOM     26  O   UNL     1     -36.636  19.468   1.698  0.00  0.00    -0.293 OA
ATOM     27  H   UNL     1     -37.336  19.307   2.350  0.00  0.00    +0.223 HD
ENDBRANCH  24  26
BRANCH  24  28
ATOM     28  O   UNL     1     -37.397  17.451   0.372  0.00  0.00    -0.293 OA
ATOM     29  H   UNL     1     -36.790  17.093   1.040  0.00  0.00    +0.223 HD
ENDBRANCH  24  28
ENDBRANCH  23  24
ENDBRANCH   3  23
TORSDOF 10
ENDMDL
MODEL 9
REMARK VINA RESULT:      -5.6      2.925      7.137
REMARK  Name = 5351387
REMARK  10 active torsions:
REMARK  status: ('A' for Active; 'I' for Inactive)
REMARK    1  A    between atoms: C_1  and  C_10
REMARK    2  A    between atoms: C_3  and  O_23
REMARK    3  A    between atoms: C_5  and  O_7
REMARK    4  A    between atoms: C_9  and  C_11
REMARK    5  A    between atoms: C_14  and  O_17
REMARK    6  A    between atoms: C_15  and  O_19
REMARK    7  A    between atoms: C_16  and  O_21
REMARK    8  A    between atoms: O_23  and  P_24
REMARK    9  A    between atoms: P_24  and  O_26
REMARK   10  A    between atoms: P_24  and  O_28
REMARK                            x       y       z     vdW  Elec       q    Type
REMARK                         _______ _______ _______ _____ _____    ______ ____
ROOT
ATOM      1  C   UNL     1     -33.942  22.376  -0.552  0.00  0.00    +0.003 C 
ATOM      2  C   UNL     1     -34.980  21.461  -0.731  0.00  0.00    +0.041 C 
ATOM      3  C   UNL     1     -34.764  20.104  -0.486  0.00  0.00    +0.183 C 
ATOM      4  C   UNL     1     -32.689  21.934  -0.128  0.00  0.00    +0.003 C 
ATOM      5  C   UNL     1     -33.511  19.664  -0.062  0.00  0.00    +0.173 C 
ATOM      6  C   UNL     1     -32.473  20.579   0.117  0.00  0.00    +0.040 C 
ENDROOT
BRANCH   5   7
ATOM      7  O   UNL     1     -33.287  18.342   0.180  0.00  0.00    -0.468 OA
ATOM      8  C   UNL     1     -32.543  18.016   1.353  0.00  0.00    +0.253 C 
ENDBRANCH   5   7
BRANCH   1  10
ATOM      9  C   UNL     1     -34.638  24.680   0.099  0.00  0.00    +0.000 C 
ATOM     10  C   UNL     1     -34.167  23.790  -0.806  0.00  0.00    +0.000 C 
BRANCH   9  11
ATOM     11  C   UNL     1     -35.000  24.365   1.493  0.00  0.00    +0.006 C 
ATOM     12  C   UNL     1     -36.171  23.670   1.749  0.00  0.00    +0.040 C 
ATOM     13  C   UNL     1     -34.160  24.767   2.519  0.00  0.00    +0.040 C 
ATOM     14  C   UNL     1     -34.503  24.468   3.838  0.00  0.00    +0.175 C 
ATOM     15  C   UNL     1     -36.514  23.372   3.068  0.00  0.00    +0.175 C 
ATOM     16  C   UNL     1     -35.679  23.770   4.112  0.00  0.00    +0.206 C 
BRANCH  14  17
ATOM     17  O   UNL     1     -33.680  24.862   4.849  0.00  0.00    -0.468 OA
ATOM     18  C   UNL     1     -33.925  26.146   5.420  0.00  0.00    +0.253 C 
ENDBRANCH  14  17
BRANCH  15  19
ATOM     19  O   UNL     1     -37.664  22.690   3.322  0.00  0.00    -0.468 OA
ATOM     20  C   UNL     1     -38.670  22.714   2.310  0.00  0.00    +0.253 C 
ENDBRANCH  15  19
BRANCH  16  21
ATOM     21  O   UNL     1     -36.013  23.477   5.401  0.00  0.00    -0.465 OA
ATOM     22  C   UNL     1     -35.448  22.295   5.963  0.00  0.00    +0.253 C 
ENDBRANCH  16  21
ENDBRANCH   9  11
ENDBRANCH   1  10
BRANCH   3  23
ATOM     23  O   UNL     1     -35.785  19.221  -0.665  0.00  0.00    -0.400 OA
BRANCH  23  24
ATOM     24  P   UNL     1     -37.096  19.108   0.277  0.00  0.00    +0.528 P 
ATOM     25  O   UNL     1     -38.285  19.902  -0.179  0.00  0.00    -0.216 OA
BRANCH  24  26
ATOM     26  O   UNL     1     -36.526  19.531   1.731  0.00  0.00    -0.293 OA
ATOM     27  H   UNL     1     -36.374  18.734   2.264  0.00  0.00    +0.223 HD
ENDBRANCH  24  26
BRANCH  24  28
ATOM     28  O   UNL     1     -37.335  17.515   0.431  0.00  0.00    -0.293 OA
ATOM     29  H   UNL     1     -37.746  17.170  -0.378  0.00  0.00    +0.223 HD
ENDBRANCH  24  28
ENDBRANCH  23  24
ENDBRANCH   3  23
TORSDOF 10
ENDMDL
