MODEL 1
REMARK VINA RESULT:      -6.2      0.000      0.000
REMARK  Name = 5492684
REMARK  5 active torsions:
REMARK  status: ('A' for Active; 'I' for Inactive)
REMARK    1  A    between atoms: C_7  and  C_20
REMARK    2  A    between atoms: C_11  and  O_17
REMARK    3  A    between atoms: C_12  and  C_23
REMARK    4  A    between atoms: C_20  and  O_21
REMARK    5  A    between atoms: C_23  and  O_24
REMARK                            x       y       z     vdW  Elec       q    Type
REMARK                         _______ _______ _______ _____ _____    ______ ____
ROOT
ATOM      1  O   UNL     1     -34.308  25.221   5.953  0.00  0.00    -0.423 OA
ATOM      2  O   UNL     1     -35.774  23.520   5.327  0.00  0.00    -0.421 OA
ATOM      3  O   UNL     1     -33.956  26.613   2.164  0.00  0.00    -0.286 OA
ATOM      4  C   UNL     1     -35.045  25.083   3.649  0.00  0.00    +0.117 A 
ATOM      5  C   UNL     1     -33.461  26.894   4.431  0.00  0.00    +0.107 A 
ATOM      6  C   UNL     1     -34.148  26.233   3.313  0.00  0.00    +0.208 A 
ATOM      7  C   UNL     1     -35.875  24.502   2.596  0.00  0.00    +0.085 C 
ATOM      8  C   UNL     1     -33.579  26.349   5.701  0.00  0.00    +0.155 A 
ATOM      9  C   UNL     1     -35.030  24.628   4.926  0.00  0.00    +0.304 A 
ATOM     10  C   UNL     1     -36.151  23.193   2.448  0.00  0.00    +0.008 C 
ATOM     11  C   UNL     1     -32.693  28.044   4.225  0.00  0.00    +0.140 C 
ATOM     12  C   UNL     1     -35.713  22.135   3.342  0.00  0.00    +0.045 C 
ATOM     13  C   UNL     1     -32.931  26.947   6.782  0.00  0.00    +0.038 C 
ATOM     14  C   UNL     1     -35.579  22.332   4.662  0.00  0.00    +0.181 C 
ATOM     15  C   UNL     1     -32.047  28.644   5.307  0.00  0.00    +0.037 C 
ATOM     16  C   UNL     1     -32.165  28.097   6.583  0.00  0.00    +0.006 C 
ENDROOT
BRANCH  11  17
ATOM     17  O   UNL     1     -32.535  28.614   2.998  0.00  0.00    -0.505 OA
ATOM     18  H   UNL     1     -33.217  29.144   2.636  0.00  0.00    +0.292 HD
ENDBRANCH  11  17
BRANCH   7  20
ATOM     19  O   UNL     1     -36.356  25.208   0.400  0.00  0.00    -0.245 OA
ATOM     20  C   UNL     1     -36.526  25.368   1.597  0.00  0.00    +0.342 C 
BRANCH  20  21
ATOM     21  O   UNL     1     -37.277  26.279   2.247  0.00  0.00    -0.441 OA
ATOM     22  C   UNL     1     -38.644  25.914   2.452  0.00  0.00    +0.256 C 
ENDBRANCH  20  21
ENDBRANCH   7  20
BRANCH  12  23
ATOM     23  C   UNL     1     -35.512  20.785   2.719  0.00  0.00    +0.167 C 
BRANCH  23  24
ATOM     24  O   UNL     1     -36.683  20.007   2.876  0.00  0.00    -0.377 OA
ATOM     25  H   UNL     1     -37.450  20.512   2.562  0.00  0.00    +0.211 HD
ENDBRANCH  23  24
ENDBRANCH  12  23
TORSDOF 5
ENDMDL
MODEL 2
REMARK VINA RESULT:      -6.1      2.875      4.446
REMARK  Name = 5492684
REMARK  5 active torsions:
REMARK  status: ('A' for Active; 'I' for Inactive)
REMARK    1  A    between atoms: C_7  and  C_20
REMARK    2  A    between atoms: C_11  and  O_17
REMARK    3  A    between atoms: C_12  and  C_23
REMARK    4  A    between atoms: C_20  and  O_21
REMARK    5  A    between atoms: C_23  and  O_24
REMARK                            x       y       z     vdW  Elec       q    Type
REMARK                         _______ _______ _______ _____ _____    ______ ____
ROOT
ATOM      1  O   UNL     1     -35.304  22.073   3.932  0.00  0.00    -0.423 OA
ATOM      2  O   UNL     1     -35.672  20.161   2.649  0.00  0.00    -0.421 OA
ATOM      3  O   UNL     1     -38.179  24.184   2.010  0.00  0.00    -0.286 OA
ATOM      4  C   UNL     1     -37.100  22.067   2.305  0.00  0.00    +0.117 A 
ATOM      5  C   UNL     1     -36.623  24.088   3.750  0.00  0.00    +0.107 A 
ATOM      6  C   UNL     1     -37.380  23.500   2.637  0.00  0.00    +0.208 A 
ATOM      7  C   UNL     1     -37.941  21.392   1.320  0.00  0.00    +0.085 C 
ATOM      8  C   UNL     1     -35.618  23.338   4.343  0.00  0.00    +0.155 A 
ATOM      9  C   UNL     1     -36.060  21.469   2.936  0.00  0.00    +0.304 A 
ATOM     10  C   UNL     1     -37.518  20.497   0.409  0.00  0.00    +0.008 C 
ATOM     11  C   UNL     1     -36.896  25.383   4.202  0.00  0.00    +0.140 C 
ATOM     12  C   UNL     1     -36.157  20.007   0.282  0.00  0.00    +0.045 C 
ATOM     13  C   UNL     1     -34.875  23.872   5.396  0.00  0.00    +0.038 C 
ATOM     14  C   UNL     1     -35.357  19.848   1.348  0.00  0.00    +0.181 C 
ATOM     15  C   UNL     1     -36.154  25.916   5.257  0.00  0.00    +0.037 C 
ATOM     16  C   UNL     1     -35.145  25.162   5.853  0.00  0.00    +0.006 C 
ENDROOT
BRANCH  11  17
ATOM     17  O   UNL     1     -37.863  26.167   3.649  0.00  0.00    -0.505 OA
ATOM     18  H   UNL     1     -38.509  26.570   4.195  0.00  0.00    +0.292 HD
ENDBRANCH  11  17
BRANCH   7  20
ATOM     19  O   UNL     1     -40.106  21.423   2.254  0.00  0.00    -0.245 OA
ATOM     20  C   UNL     1     -39.394  21.639   1.287  0.00  0.00    +0.342 C 
BRANCH  20  21
ATOM     21  O   UNL     1     -39.718  22.116   0.068  0.00  0.00    -0.441 OA
ATOM     22  C   UNL     1     -40.867  22.965   0.027  0.00  0.00    +0.256 C 
ENDBRANCH  20  21
ENDBRANCH   7  20
BRANCH  12  23
ATOM     23  C   UNL     1     -35.727  19.598  -1.096  0.00  0.00    +0.167 C 
BRANCH  23  24
ATOM     24  O   UNL     1     -34.965  18.408  -1.025  0.00  0.00    -0.377 OA
ATOM     25  H   UNL     1     -35.216  17.820  -1.754  0.00  0.00    +0.211 HD
ENDBRANCH  23  24
ENDBRANCH  12  23
TORSDOF 5
ENDMDL
MODEL 3
REMARK VINA RESULT:      -6.0      1.626      4.001
REMARK  Name = 5492684
REMARK  5 active torsions:
REMARK  status: ('A' for Active; 'I' for Inactive)
REMARK    1  A    between atoms: C_7  and  C_20
REMARK    2  A    between atoms: C_11  and  O_17
REMARK    3  A    between atoms: C_12  and  C_23
REMARK    4  A    between atoms: C_20  and  O_21
REMARK    5  A    between atoms: C_23  and  O_24
REMARK                            x       y       z     vdW  Elec       q    Type
REMARK                         _______ _______ _______ _____ _____    ______ ____
ROOT
ATOM      1  O   UNL     1     -34.923  27.791   2.474  0.00  0.00    -0.423 OA
ATOM      2  O   UNL     1     -36.665  26.482   1.643  0.00  0.00    -0.421 OA
ATOM      3  O   UNL     1     -34.493  25.505   5.791  0.00  0.00    -0.286 OA
ATOM      4  C   UNL     1     -35.579  25.792   3.677  0.00  0.00    +0.117 A 
ATOM      5  C   UNL     1     -33.698  27.276   4.490  0.00  0.00    +0.107 A 
ATOM      6  C   UNL     1     -34.579  26.127   4.740  0.00  0.00    +0.208 A 
ATOM      7  C   UNL     1     -36.361  24.565   3.803  0.00  0.00    +0.085 C 
ATOM      8  C   UNL     1     -33.919  28.052   3.362  0.00  0.00    +0.155 A 
ATOM      9  C   UNL     1     -35.715  26.664   2.648  0.00  0.00    +0.304 A 
ATOM     10  C   UNL     1     -37.654  24.421   3.462  0.00  0.00    +0.008 C 
ATOM     11  C   UNL     1     -32.663  27.595   5.374  0.00  0.00    +0.140 C 
ATOM     12  C   UNL     1     -38.485  25.449   2.861  0.00  0.00    +0.045 C 
ATOM     13  C   UNL     1     -33.106  29.156   3.103  0.00  0.00    +0.038 C 
ATOM     14  C   UNL     1     -37.984  26.359   2.011  0.00  0.00    +0.181 C 
ATOM     15  C   UNL     1     -31.848  28.697   5.113  0.00  0.00    +0.037 C 
ATOM     16  C   UNL     1     -32.069  29.477   3.979  0.00  0.00    +0.006 C 
ENDROOT
BRANCH  11  17
ATOM     17  O   UNL     1     -32.410  26.873   6.502  0.00  0.00    -0.505 OA
ATOM     18  H   UNL     1     -31.584  26.956   6.935  0.00  0.00    +0.292 HD
ENDBRANCH  11  17
BRANCH   7  20
ATOM     19  O   UNL     1     -34.839  22.768   3.695  0.00  0.00    -0.245 OA
ATOM     20  C   UNL     1     -35.733  23.330   4.306  0.00  0.00    +0.342 C 
BRANCH  20  21
ATOM     21  O   UNL     1     -36.312  23.004   5.479  0.00  0.00    -0.441 OA
ATOM     22  C   UNL     1     -35.546  22.142   6.324  0.00  0.00    +0.256 C 
ENDBRANCH  20  21
ENDBRANCH   7  20
BRANCH  12  23
ATOM     23  C   UNL     1     -39.952  25.378   3.168  0.00  0.00    +0.167 C 
BRANCH  23  24
ATOM     24  O   UNL     1     -40.389  26.617   3.694  0.00  0.00    -0.377 OA
ATOM     25  H   UNL     1     -40.726  26.484   4.594  0.00  0.00    +0.211 HD
ENDBRANCH  23  24
ENDBRANCH  12  23
TORSDOF 5
ENDMDL
MODEL 4
REMARK VINA RESULT:      -5.7      2.534      5.987
REMARK  Name = 5492684
REMARK  5 active torsions:
REMARK  status: ('A' for Active; 'I' for Inactive)
REMARK    1  A    between atoms: C_7  and  C_20
REMARK    2  A    between atoms: C_11  and  O_17
REMARK    3  A    between atoms: C_12  and  C_23
REMARK    4  A    between atoms: C_20  and  O_21
REMARK    5  A    between atoms: C_23  and  O_24
REMARK                            x       y       z     vdW  Elec       q    Type
REMARK                         _______ _______ _______ _____ _____    ______ ____
ROOT
ATOM      1  O   UNL     1     -38.336  22.723   1.443  0.00  0.00    -0.423 OA
ATOM      2  O   UNL     1     -36.260  22.173   2.352  0.00  0.00    -0.421 OA
ATOM      3  O   UNL     1     -38.490  26.277   3.382  0.00  0.00    -0.286 OA
ATOM      4  C   UNL     1     -37.199  24.331   2.855  0.00  0.00    +0.117 A 
ATOM      5  C   UNL     1     -39.451  24.832   1.816  0.00  0.00    +0.107 A 
ATOM      6  C   UNL     1     -38.381  25.242   2.735  0.00  0.00    +0.208 A 
ATOM      7  C   UNL     1     -36.040  24.773   3.627  0.00  0.00    +0.085 C 
ATOM      8  C   UNL     1     -39.370  23.585   1.214  0.00  0.00    +0.155 A 
ATOM      9  C   UNL     1     -37.275  23.123   2.245  0.00  0.00    +0.304 A 
ATOM     10  C   UNL     1     -35.281  23.992   4.417  0.00  0.00    +0.008 C 
ATOM     11  C   UNL     1     -40.537  25.673   1.556  0.00  0.00    +0.140 C 
ATOM     12  C   UNL     1     -35.451  22.562   4.600  0.00  0.00    +0.045 C 
ATOM     13  C   UNL     1     -40.375  23.163   0.343  0.00  0.00    +0.038 C 
ATOM     14  C   UNL     1     -35.882  21.766   3.610  0.00  0.00    +0.181 C 
ATOM     15  C   UNL     1     -41.542  25.251   0.683  0.00  0.00    +0.037 C 
ATOM     16  C   UNL     1     -41.461  23.998   0.078  0.00  0.00    +0.006 C 
ENDROOT
BRANCH  11  17
ATOM     17  O   UNL     1     -40.672  26.901   2.129  0.00  0.00    -0.505 OA
ATOM     18  H   UNL     1     -39.932  27.316   2.526  0.00  0.00    +0.292 HD
ENDBRANCH  11  17
BRANCH   7  20
ATOM     19  O   UNL     1     -35.487  26.870   4.548  0.00  0.00    -0.245 OA
ATOM     20  C   UNL     1     -35.586  26.173   3.552  0.00  0.00    +0.342 C 
BRANCH  20  21
ATOM     21  O   UNL     1     -35.327  26.470   2.263  0.00  0.00    -0.441 OA
ATOM     22  C   UNL     1     -35.635  27.809   1.867  0.00  0.00    +0.256 C 
ENDBRANCH  20  21
ENDBRANCH   7  20
BRANCH  12  23
ATOM     23  C   UNL     1     -35.027  22.010   5.930  0.00  0.00    +0.167 C 
BRANCH  23  24
ATOM     24  O   UNL     1     -35.203  20.606   5.942  0.00  0.00    -0.377 OA
ATOM     25  H   UNL     1     -34.677  20.209   5.230  0.00  0.00    +0.211 HD
ENDBRANCH  23  24
ENDBRANCH  12  23
TORSDOF 5
ENDMDL
MODEL 5
REMARK VINA RESULT:      -5.7      2.859      4.365
REMARK  Name = 5492684
REMARK  5 active torsions:
REMARK  status: ('A' for Active; 'I' for Inactive)
REMARK    1  A    between atoms: C_7  and  C_20
REMARK    2  A    between atoms: C_11  and  O_17
REMARK    3  A    between atoms: C_12  and  C_23
REMARK    4  A    between atoms: C_20  and  O_21
REMARK    5  A    between atoms: C_23  and  O_24
REMARK                            x       y       z     vdW  Elec       q    Type
REMARK                         _______ _______ _______ _____ _____    ______ ____
ROOT
ATOM      1  O   UNL     1     -37.353  23.211   3.750  0.00  0.00    -0.423 OA
ATOM      2  O   UNL     1     -39.327  22.542   2.704  0.00  0.00    -0.421 OA
ATOM      3  O   UNL     1     -37.626  26.998   2.335  0.00  0.00    -0.286 OA
ATOM      4  C   UNL     1     -38.664  24.850   2.540  0.00  0.00    +0.117 A 
ATOM      5  C   UNL     1     -36.512  25.474   3.714  0.00  0.00    +0.107 A 
ATOM      6  C   UNL     1     -37.611  25.875   2.826  0.00  0.00    +0.208 A 
ATOM      7  C   UNL     1     -39.859  25.250   1.800  0.00  0.00    +0.085 C 
ATOM      8  C   UNL     1     -36.441  24.154   4.132  0.00  0.00    +0.155 A 
ATOM      9  C   UNL     1     -38.444  23.586   2.977  0.00  0.00    +0.304 A 
ATOM     10  C   UNL     1     -40.500  24.503   0.883  0.00  0.00    +0.008 C 
ATOM     11  C   UNL     1     -35.546  26.398   4.125  0.00  0.00    +0.140 C 
ATOM     12  C   UNL     1     -40.145  23.146   0.507  0.00  0.00    +0.045 C 
ATOM     13  C   UNL     1     -35.404  23.740   4.968  0.00  0.00    +0.038 C 
ATOM     14  C   UNL     1     -39.630  22.276   1.390  0.00  0.00    +0.181 C 
ATOM     15  C   UNL     1     -34.509  25.984   4.963  0.00  0.00    +0.037 C 
ATOM     16  C   UNL     1     -34.438  24.657   5.384  0.00  0.00    +0.006 C 
ENDROOT
BRANCH  11  17
ATOM     17  O   UNL     1     -35.562  27.703   3.735  0.00  0.00    -0.505 OA
ATOM     18  H   UNL     1     -34.848  28.267   3.958  0.00  0.00    +0.292 HD
ENDBRANCH  11  17
BRANCH   7  20
ATOM     19  O   UNL     1     -40.657  27.375   1.166  0.00  0.00    -0.245 OA
ATOM     20  C   UNL     1     -40.490  26.557   2.055  0.00  0.00    +0.342 C 
BRANCH  20  21
ATOM     21  O   UNL     1     -40.812  26.628   3.363  0.00  0.00    -0.441 OA
ATOM     22  C   UNL     1     -42.157  27.021   3.644  0.00  0.00    +0.256 C 
ENDBRANCH  20  21
ENDBRANCH   7  20
BRANCH  12  23
ATOM     23  C   UNL     1     -40.474  22.742  -0.900  0.00  0.00    +0.167 C 
BRANCH  23  24
ATOM     24  O   UNL     1     -41.002  21.429  -0.909  0.00  0.00    -0.377 OA
ATOM     25  H   UNL     1     -40.655  20.947  -1.675  0.00  0.00    +0.211 HD
ENDBRANCH  23  24
ENDBRANCH  12  23
TORSDOF 5
ENDMDL
MODEL 6
REMARK VINA RESULT:      -5.6      3.125      5.601
REMARK  Name = 5492684
REMARK  5 active torsions:
REMARK  status: ('A' for Active; 'I' for Inactive)
REMARK    1  A    between atoms: C_7  and  C_20
REMARK    2  A    between atoms: C_11  and  O_17
REMARK    3  A    between atoms: C_12  and  C_23
REMARK    4  A    between atoms: C_20  and  O_21
REMARK    5  A    between atoms: C_23  and  O_24
REMARK                            x       y       z     vdW  Elec       q    Type
REMARK                         _______ _______ _______ _____ _____    ______ ____
ROOT
ATOM      1  O   UNL     1     -37.554  25.533   3.753  0.00  0.00    -0.423 OA
ATOM      2  O   UNL     1     -39.133  26.379   2.259  0.00  0.00    -0.421 OA
ATOM      3  O   UNL     1     -37.815  21.781   2.247  0.00  0.00    -0.286 OA
ATOM      4  C   UNL     1     -38.470  24.075   2.048  0.00  0.00    +0.117 A 
ATOM      5  C   UNL     1     -36.748  23.257   3.711  0.00  0.00    +0.107 A 
ATOM      6  C   UNL     1     -37.684  22.938   2.625  0.00  0.00    +0.208 A 
ATOM      7  C   UNL     1     -39.288  23.838   0.861  0.00  0.00    +0.085 C 
ATOM      8  C   UNL     1     -36.732  24.547   4.221  0.00  0.00    +0.155 A 
ATOM      9  C   UNL     1     -38.389  25.275   2.674  0.00  0.00    +0.304 A 
ATOM     10  C   UNL     1     -40.496  24.380   0.621  0.00  0.00    +0.008 C 
ATOM     11  C   UNL     1     -35.894  22.282   4.234  0.00  0.00    +0.140 C 
ATOM     12  C   UNL     1     -41.174  25.337   1.477  0.00  0.00    +0.045 C 
ATOM     13  C   UNL     1     -35.861  24.879   5.258  0.00  0.00    +0.038 C 
ATOM     14  C   UNL     1     -40.500  26.251   2.192  0.00  0.00    +0.181 C 
ATOM     15  C   UNL     1     -35.020  22.614   5.271  0.00  0.00    +0.037 C 
ATOM     16  C   UNL     1     -35.004  23.911   5.783  0.00  0.00    +0.006 C 
ENDROOT
BRANCH  11  17
ATOM     17  O   UNL     1     -35.876  20.998   3.779  0.00  0.00    -0.505 OA
ATOM     18  H   UNL     1     -35.068  20.606   3.514  0.00  0.00    +0.292 HD
ENDBRANCH  11  17
BRANCH   7  20
ATOM     19  O   UNL     1     -39.369  21.939  -0.533  0.00  0.00    -0.245 OA
ATOM     20  C   UNL     1     -38.794  22.970  -0.223  0.00  0.00    +0.342 C 
BRANCH  20  21
ATOM     21  O   UNL     1     -37.680  23.524  -0.741  0.00  0.00    -0.441 OA
ATOM     22  C   UNL     1     -36.612  22.615  -1.014  0.00  0.00    +0.256 C 
ENDBRANCH  20  21
ENDBRANCH   7  20
BRANCH  12  23
ATOM     23  C   UNL     1     -42.673  25.307   1.445  0.00  0.00    +0.167 C 
BRANCH  23  24
ATOM     24  O   UNL     1     -43.113  24.181   0.709  0.00  0.00    -0.377 OA
ATOM     25  H   UNL     1     -44.082  24.178   0.672  0.00  0.00    +0.211 HD
ENDBRANCH  23  24
ENDBRANCH  12  23
TORSDOF 5
ENDMDL
MODEL 7
REMARK VINA RESULT:      -5.6      3.316      5.823
REMARK  Name = 5492684
REMARK  5 active torsions:
REMARK  status: ('A' for Active; 'I' for Inactive)
REMARK    1  A    between atoms: C_7  and  C_20
REMARK    2  A    between atoms: C_11  and  O_17
REMARK    3  A    between atoms: C_12  and  C_23
REMARK    4  A    between atoms: C_20  and  O_21
REMARK    5  A    between atoms: C_23  and  O_24
REMARK                            x       y       z     vdW  Elec       q    Type
REMARK                         _______ _______ _______ _____ _____    ______ ____
ROOT
ATOM      1  O   UNL     1     -37.212  23.980   2.360  0.00  0.00    -0.423 OA
ATOM      2  O   UNL     1     -38.039  23.513   0.230  0.00  0.00    -0.421 OA
ATOM      3  O   UNL     1     -35.999  20.161   2.967  0.00  0.00    -0.286 OA
ATOM      4  C   UNL     1     -36.919  21.758   1.438  0.00  0.00    +0.117 A 
ATOM      5  C   UNL     1     -36.053  22.368   3.736  0.00  0.00    +0.107 A 
ATOM      6  C   UNL     1     -36.290  21.327   2.727  0.00  0.00    +0.208 A 
ATOM      7  C   UNL     1     -37.022  20.795   0.344  0.00  0.00    +0.085 C 
ATOM      8  C   UNL     1     -36.530  23.648   3.496  0.00  0.00    +0.155 A 
ATOM      9  C   UNL     1     -37.376  23.032   1.359  0.00  0.00    +0.304 A 
ATOM     10  C   UNL     1     -38.057  20.686  -0.509  0.00  0.00    +0.008 C 
ATOM     11  C   UNL     1     -35.371  22.079   4.921  0.00  0.00    +0.140 C 
ATOM     12  C   UNL     1     -39.229  21.543  -0.523  0.00  0.00    +0.045 C 
ATOM     13  C   UNL     1     -36.329  24.657   4.439  0.00  0.00    +0.038 C 
ATOM     14  C   UNL     1     -39.161  22.843  -0.197  0.00  0.00    +0.181 C 
ATOM     15  C   UNL     1     -35.168  23.088   5.864  0.00  0.00    +0.037 C 
ATOM     16  C   UNL     1     -35.646  24.376   5.624  0.00  0.00    +0.006 C 
ENDROOT
BRANCH  11  17
ATOM     17  O   UNL     1     -34.892  20.837   5.211  0.00  0.00    -0.505 OA
ATOM     18  H   UNL     1     -34.545  20.656   6.062  0.00  0.00    +0.292 HD
ENDBRANCH  11  17
BRANCH   7  20
ATOM     19  O   UNL     1     -36.077  18.646   0.133  0.00  0.00    -0.245 OA
ATOM     20  C   UNL     1     -35.920  19.854   0.073  0.00  0.00    +0.342 C 
BRANCH  20  21
ATOM     21  O   UNL     1     -34.816  20.566  -0.229  0.00  0.00    -0.441 OA
ATOM     22  C   UNL     1     -33.596  20.074   0.331  0.00  0.00    +0.256 C 
ENDBRANCH  20  21
ENDBRANCH   7  20
BRANCH  12  23
ATOM     23  C   UNL     1     -40.500  20.917  -1.015  0.00  0.00    +0.167 C 
BRANCH  23  24
ATOM     24  O   UNL     1     -41.369  20.681   0.076  0.00  0.00    -0.377 OA
ATOM     25  H   UNL     1     -41.865  21.491   0.275  0.00  0.00    +0.211 HD
ENDBRANCH  23  24
ENDBRANCH  12  23
TORSDOF 5
ENDMDL
MODEL 8
REMARK VINA RESULT:      -5.6      3.281      5.918
REMARK  Name = 5492684
REMARK  5 active torsions:
REMARK  status: ('A' for Active; 'I' for Inactive)
REMARK    1  A    between atoms: C_7  and  C_20
REMARK    2  A    between atoms: C_11  and  O_17
REMARK    3  A    between atoms: C_12  and  C_23
REMARK    4  A    between atoms: C_20  and  O_21
REMARK    5  A    between atoms: C_23  and  O_24
REMARK                            x       y       z     vdW  Elec       q    Type
REMARK                         _______ _______ _______ _____ _____    ______ ____
ROOT
ATOM      1  O   UNL     1     -37.222  24.122   2.405  0.00  0.00    -0.423 OA
ATOM      2  O   UNL     1     -38.156  23.776   0.297  0.00  0.00    -0.421 OA
ATOM      3  O   UNL     1     -36.294  20.206   2.879  0.00  0.00    -0.286 OA
ATOM      4  C   UNL     1     -37.137  21.908   1.422  0.00  0.00    +0.117 A 
ATOM      5  C   UNL     1     -36.147  22.389   3.700  0.00  0.00    +0.107 A 
ATOM      6  C   UNL     1     -36.500  21.396   2.677  0.00  0.00    +0.208 A 
ATOM      7  C   UNL     1     -37.354  20.985   0.311  0.00  0.00    +0.085 C 
ATOM      8  C   UNL     1     -36.529  23.709   3.508  0.00  0.00    +0.155 A 
ATOM      9  C   UNL     1     -37.495  23.215   1.389  0.00  0.00    +0.304 A 
ATOM     10  C   UNL     1     -38.423  20.979  -0.506  0.00  0.00    +0.008 C 
ATOM     11  C   UNL     1     -35.449  22.017   4.853  0.00  0.00    +0.140 C 
ATOM     12  C   UNL     1     -39.523  21.925  -0.457  0.00  0.00    +0.045 C 
ATOM     13  C   UNL     1     -36.217  24.673   4.466  0.00  0.00    +0.038 C 
ATOM     14  C   UNL     1     -39.342  23.207  -0.104  0.00  0.00    +0.181 C 
ATOM     15  C   UNL     1     -35.134  22.983   5.810  0.00  0.00    +0.037 C 
ATOM     16  C   UNL     1     -35.518  24.309   5.618  0.00  0.00    +0.006 C 
ENDROOT
BRANCH  11  17
ATOM     17  O   UNL     1     -35.060  20.735   5.096  0.00  0.00    -0.505 OA
ATOM     18  H   UNL     1     -34.618  20.523   5.895  0.00  0.00    +0.292 HD
ENDBRANCH  11  17
BRANCH   7  20
ATOM     19  O   UNL     1     -35.197  20.274  -0.318  0.00  0.00    -0.245 OA
ATOM     20  C   UNL     1     -36.340  19.968  -0.022  0.00  0.00    +0.342 C 
BRANCH  20  21
ATOM     21  O   UNL     1     -36.909  18.750   0.073  0.00  0.00    -0.441 OA
ATOM     22  C   UNL     1     -36.268  17.713  -0.672  0.00  0.00    +0.256 C 
ENDBRANCH  20  21
ENDBRANCH   7  20
BRANCH  12  23
ATOM     23  C   UNL     1     -40.857  21.413  -0.917  0.00  0.00    +0.167 C 
BRANCH  23  24
ATOM     24  O   UNL     1     -41.465  20.667   0.121  0.00  0.00    -0.377 OA
ATOM     25  H   UNL     1     -42.377  20.972   0.246  0.00  0.00    +0.211 HD
ENDBRANCH  23  24
ENDBRANCH  12  23
TORSDOF 5
ENDMDL
MODEL 9
REMARK VINA RESULT:      -5.5      3.113      5.997
REMARK  Name = 5492684
REMARK  5 active torsions:
REMARK  status: ('A' for Active; 'I' for Inactive)
REMARK    1  A    between atoms: C_7  and  C_20
REMARK    2  A    between atoms: C_11  and  O_17
REMARK    3  A    between atoms: C_12  and  C_23
REMARK    4  A    between atoms: C_20  and  O_21
REMARK    5  A    between atoms: C_23  and  O_24
REMARK                            x       y       z     vdW  Elec       q    Type
REMARK                         _______ _______ _______ _____ _____    ______ ____
ROOT
ATOM      1  O   UNL     1     -35.441  23.987   1.967  0.00  0.00    -0.423 OA
ATOM      2  O   UNL     1     -35.198  23.506  -0.302  0.00  0.00    -0.421 OA
ATOM      3  O   UNL     1     -35.227  20.087   3.043  0.00  0.00    -0.286 OA
ATOM      4  C   UNL     1     -35.060  21.695   1.277  0.00  0.00    +0.117 A 
ATOM      5  C   UNL     1     -35.330  22.323   3.714  0.00  0.00    +0.107 A 
ATOM      6  C   UNL     1     -35.197  21.264   2.705  0.00  0.00    +0.208 A 
ATOM      7  C   UNL     1     -34.760  20.691   0.260  0.00  0.00    +0.085 C 
ATOM      8  C   UNL     1     -35.445  23.638   3.288  0.00  0.00    +0.155 A 
ATOM      9  C   UNL     1     -35.236  23.011   1.001  0.00  0.00    +0.304 A 
ATOM     10  C   UNL     1     -35.260  20.667  -0.989  0.00  0.00    +0.008 C 
ATOM     11  C   UNL     1     -35.351  22.019   5.078  0.00  0.00    +0.140 C 
ATOM     12  C   UNL     1     -36.145  21.667  -1.560  0.00  0.00    +0.045 C 
ATOM     13  C   UNL     1     -35.582  24.666   4.221  0.00  0.00    +0.038 C 
ATOM     14  C   UNL     1     -36.058  22.964  -1.227  0.00  0.00    +0.181 C 
ATOM     15  C   UNL     1     -35.486  23.047   6.012  0.00  0.00    +0.037 C 
ATOM     16  C   UNL     1     -35.601  24.369   5.584  0.00  0.00    +0.006 C 
ENDROOT
BRANCH  11  17
ATOM     17  O   UNL     1     -35.253  20.745   5.550  0.00  0.00    -0.505 OA
ATOM     18  H   UNL     1     -35.983  20.349   5.985  0.00  0.00    +0.292 HD
ENDBRANCH  11  17
BRANCH   7  20
ATOM     19  O   UNL     1     -32.652  19.823   0.860  0.00  0.00    -0.245 OA
ATOM     20  C   UNL     1     -33.810  19.601   0.547  0.00  0.00    +0.342 C 
BRANCH  20  21
ATOM     21  O   UNL     1     -34.454  18.425   0.403  0.00  0.00    -0.441 OA
ATOM     22  C   UNL     1     -33.613  17.278   0.256  0.00  0.00    +0.256 C 
ENDBRANCH  20  21
ENDBRANCH   7  20
BRANCH  12  23
ATOM     23  C   UNL     1     -37.097  21.183  -2.613  0.00  0.00    +0.167 C 
BRANCH  23  24
ATOM     24  O   UNL     1     -38.010  20.263  -2.045  0.00  0.00    -0.377 OA
ATOM     25  H   UNL     1     -38.773  20.159  -2.635  0.00  0.00    +0.211 HD
ENDBRANCH  23  24
ENDBRANCH  12  23
TORSDOF 5
ENDMDL
