MODEL 1
REMARK VINA RESULT:      -6.5      0.000      0.000
REMARK  Name = 5477413
REMARK  6 active torsions:
REMARK  status: ('A' for Active; 'I' for Inactive)
REMARK    1  A    between atoms: N_1  and  C_6
REMARK    2  A    between atoms: N_1  and  N_16
REMARK    3  A    between atoms: N_2  and  C_7
REMARK    4  A    between atoms: N_2  and  N_24
REMARK    5  A    between atoms: N_16  and  C_19
REMARK    6  A    between atoms: N_24  and  C_27
REMARK                            x       y       z     vdW  Elec       q    Type
REMARK                         _______ _______ _______ _____ _____    ______ ____
ROOT
ATOM      1  C   UNL     1     -33.774  25.900   3.232  0.00  0.00    +0.085 C 
ATOM      2  C   UNL     1     -34.644  24.816   3.164  0.00  0.00    +0.004 C 
ATOM      3  C   UNL     1     -35.106  25.956   5.246  0.00  0.00    +0.032 C 
ATOM      4  C   UNL     1     -34.003  26.631   4.471  0.00  0.00    +0.078 C 
ATOM      5  C   UNL     1     -35.483  24.794   4.361  0.00  0.00    +0.089 C 
ATOM      6  C   UNL     1     -32.826  25.306   1.118  0.00  0.00    -0.004 C 
ATOM      7  C   UNL     1     -33.719  24.192   1.045  0.00  0.00    -0.001 C 
ATOM      8  C   UNL     1     -32.861  26.166   2.229  0.00  0.00    -0.016 C 
ATOM      9  C   UNL     1     -34.635  23.952   2.085  0.00  0.00    -0.002 C 
ATOM     10  C   UNL     1     -31.921  25.525   0.068  0.00  0.00    -0.000 C 
ATOM     11  C   UNL     1     -33.665  23.348  -0.074  0.00  0.00    -0.000 C 
ATOM     12  C   UNL     1     -31.887  24.671  -1.035  0.00  0.00    -0.000 C 
ATOM     13  C   UNL     1     -32.756  23.586  -1.105  0.00  0.00    -0.000 C 
ENDROOT
BRANCH   4  14
ATOM     14  N   UNL     1     -33.392  27.687   4.883  0.00  0.00    -0.118 NA
BRANCH  14  15
ATOM     15  N   UNL     1     -32.682  27.414   6.048  0.00  0.00    -0.125 NA
BRANCH  15  18
ATOM     16  N   UNL     1     -30.513  28.133   6.772  0.00  0.00    -0.369 N 
ATOM     17  N   UNL     1     -32.095  29.669   6.171  0.00  0.00    -0.369 N 
ATOM     18  C   UNL     1     -31.798  28.337   6.320  0.00  0.00    +0.210 C 
ATOM     19  H   UNL     1     -30.182  27.219   6.919  0.00  0.00    +0.159 HD
ATOM     20  H   UNL     1     -29.926  28.904   6.947  0.00  0.00    +0.159 HD
ATOM     21  H   UNL     1     -32.986  29.943   5.854  0.00  0.00    +0.159 HD
ATOM     22  H   UNL     1     -31.416  30.352   6.380  0.00  0.00    +0.159 HD
ENDBRANCH  15  18
ENDBRANCH  14  15
ENDBRANCH   4  14
BRANCH   5  23
ATOM     23  N   UNL     1     -36.404  23.944   4.655  0.00  0.00    -0.115 NA
BRANCH  23  24
ATOM     24  N   UNL     1     -36.021  23.169   5.745  0.00  0.00    -0.124 NA
BRANCH  24  27
ATOM     25  N   UNL     1     -35.791  21.327   4.228  0.00  0.00    -0.369 N 
ATOM     26  N   UNL     1     -34.606  21.365   6.183  0.00  0.00    -0.369 N 
ATOM     27  C   UNL     1     -35.514  22.019   5.386  0.00  0.00    +0.210 C 
ATOM     28  H   UNL     1     -36.428  21.695   3.574  0.00  0.00    +0.159 HD
ATOM     29  H   UNL     1     -35.350  20.464   4.054  0.00  0.00    +0.159 HD
ATOM     30  H   UNL     1     -34.328  21.762   7.040  0.00  0.00    +0.159 HD
ATOM     31  H   UNL     1     -34.234  20.500   5.896  0.00  0.00    +0.159 HD
ENDBRANCH  24  27
ENDBRANCH  23  24
ENDBRANCH   5  23
TORSDOF 6
ENDMDL
MODEL 2
REMARK VINA RESULT:      -6.4      0.137      5.037
REMARK  Name = 5477413
REMARK  6 active torsions:
REMARK  status: ('A' for Active; 'I' for Inactive)
REMARK    1  A    between atoms: N_1  and  C_6
REMARK    2  A    between atoms: N_1  and  N_16
REMARK    3  A    between atoms: N_2  and  C_7
REMARK    4  A    between atoms: N_2  and  N_24
REMARK    5  A    between atoms: N_16  and  C_19
REMARK    6  A    between atoms: N_24  and  C_27
REMARK                            x       y       z     vdW  Elec       q    Type
REMARK                         _______ _______ _______ _____ _____    ______ ____
ROOT
ATOM      1  C   UNL     1     -34.607  24.863   3.231  0.00  0.00    +0.085 C 
ATOM      2  C   UNL     1     -33.723  25.934   3.331  0.00  0.00    +0.004 C 
ATOM      3  C   UNL     1     -35.056  25.935   5.349  0.00  0.00    +0.032 C 
ATOM      4  C   UNL     1     -35.443  24.810   4.423  0.00  0.00    +0.078 C 
ATOM      5  C   UNL     1     -33.947  26.628   4.598  0.00  0.00    +0.089 C 
ATOM      6  C   UNL     1     -33.706  24.285   1.092  0.00  0.00    -0.004 C 
ATOM      7  C   UNL     1     -32.798  25.384   1.192  0.00  0.00    -0.001 C 
ATOM      8  C   UNL     1     -34.619  24.028   2.130  0.00  0.00    -0.016 C 
ATOM      9  C   UNL     1     -32.814  26.213   2.328  0.00  0.00    -0.002 C 
ATOM     10  C   UNL     1     -33.672  23.472  -0.051  0.00  0.00    -0.000 C 
ATOM     11  C   UNL     1     -31.897  25.620   0.143  0.00  0.00    -0.000 C 
ATOM     12  C   UNL     1     -32.766  23.727  -1.081  0.00  0.00    -0.000 C 
ATOM     13  C   UNL     1     -31.882  24.798  -0.984  0.00  0.00    -0.000 C 
ENDROOT
BRANCH   4  14
ATOM     14  N   UNL     1     -36.373  23.960   4.692  0.00  0.00    -0.118 NA
BRANCH  14  15
ATOM     15  N   UNL     1     -36.005  23.162   5.771  0.00  0.00    -0.125 NA
BRANCH  15  18
ATOM     16  N   UNL     1     -35.769  21.345   4.225  0.00  0.00    -0.369 N 
ATOM     17  N   UNL     1     -34.587  21.354   6.181  0.00  0.00    -0.369 N 
ATOM     18  C   UNL     1     -35.495  22.019   5.394  0.00  0.00    +0.210 C 
ATOM     19  H   UNL     1     -36.406  21.721   3.577  0.00  0.00    +0.159 HD
ATOM     20  H   UNL     1     -35.326  20.485   4.038  0.00  0.00    +0.159 HD
ATOM     21  H   UNL     1     -34.311  21.738   7.045  0.00  0.00    +0.159 HD
ATOM     22  H   UNL     1     -34.212  20.494   5.882  0.00  0.00    +0.159 HD
ENDBRANCH  15  18
ENDBRANCH  14  15
ENDBRANCH   4  14
BRANCH   5  23
ATOM     23  N   UNL     1     -33.323  27.663   5.043  0.00  0.00    -0.115 NA
BRANCH  23  24
ATOM     24  N   UNL     1     -32.398  27.293   6.014  0.00  0.00    -0.124 NA
BRANCH  24  27
ATOM     25  N   UNL     1     -30.295  28.173   6.756  0.00  0.00    -0.369 N 
ATOM     26  N   UNL     1     -32.042  29.580   6.317  0.00  0.00    -0.369 N 
ATOM     27  C   UNL     1     -31.606  28.277   6.348  0.00  0.00    +0.210 C 
ATOM     28  H   UNL     1     -29.867  27.288   6.818  0.00  0.00    +0.159 HD
ATOM     29  H   UNL     1     -29.785  28.983   6.985  0.00  0.00    +0.159 HD
ATOM     30  H   UNL     1     -32.964  29.783   6.041  0.00  0.00    +0.159 HD
ATOM     31  H   UNL     1     -31.431  30.309   6.571  0.00  0.00    +0.159 HD
ENDBRANCH  24  27
ENDBRANCH  23  24
ENDBRANCH   5  23
TORSDOF 6
ENDMDL
MODEL 3
REMARK VINA RESULT:      -6.3      3.261      4.961
REMARK  Name = 5477413
REMARK  6 active torsions:
REMARK  status: ('A' for Active; 'I' for Inactive)
REMARK    1  A    between atoms: N_1  and  C_6
REMARK    2  A    between atoms: N_1  and  N_16
REMARK    3  A    between atoms: N_2  and  C_7
REMARK    4  A    between atoms: N_2  and  N_24
REMARK    5  A    between atoms: N_16  and  C_19
REMARK    6  A    between atoms: N_24  and  C_27
REMARK                            x       y       z     vdW  Elec       q    Type
REMARK                         _______ _______ _______ _____ _____    ______ ____
ROOT
ATOM      1  C   UNL     1     -36.613  24.167   4.080  0.00  0.00    +0.085 C 
ATOM      2  C   UNL     1     -36.784  22.921   3.484  0.00  0.00    +0.004 C 
ATOM      3  C   UNL     1     -34.731  22.812   4.758  0.00  0.00    +0.032 C 
ATOM      4  C   UNL     1     -35.385  24.165   4.866  0.00  0.00    +0.078 C 
ATOM      5  C   UNL     1     -35.671  22.050   3.857  0.00  0.00    +0.089 C 
ATOM      6  C   UNL     1     -38.641  24.952   3.085  0.00  0.00    -0.004 C 
ATOM      7  C   UNL     1     -38.819  23.674   2.472  0.00  0.00    -0.001 C 
ATOM      8  C   UNL     1     -37.520  25.193   3.899  0.00  0.00    -0.016 C 
ATOM      9  C   UNL     1     -37.875  22.652   2.679  0.00  0.00    -0.002 C 
ATOM     10  C   UNL     1     -39.596  25.955   2.864  0.00  0.00    -0.000 C 
ATOM     11  C   UNL     1     -39.946  23.457   1.664  0.00  0.00    -0.000 C 
ATOM     12  C   UNL     1     -40.709  25.716   2.056  0.00  0.00    -0.000 C 
ATOM     13  C   UNL     1     -40.882  24.471   1.458  0.00  0.00    -0.000 C 
ENDROOT
BRANCH   4  14
ATOM     14  N   UNL     1     -34.896  25.135   5.559  0.00  0.00    -0.118 NA
BRANCH  14  15
ATOM     15  N   UNL     1     -33.688  25.559   5.014  0.00  0.00    -0.125 NA
BRANCH  15  18
ATOM     16  N   UNL     1     -32.810  27.707   5.615  0.00  0.00    -0.369 N 
ATOM     17  N   UNL     1     -34.411  27.529   3.994  0.00  0.00    -0.369 N 
ATOM     18  C   UNL     1     -33.624  26.859   4.897  0.00  0.00    +0.210 C 
ATOM     19  H   UNL     1     -32.198  27.345   6.294  0.00  0.00    +0.159 HD
ATOM     20  H   UNL     1     -32.841  28.677   5.446  0.00  0.00    +0.159 HD
ATOM     21  H   UNL     1     -35.038  27.030   3.421  0.00  0.00    +0.159 HD
ATOM     22  H   UNL     1     -34.350  28.509   3.918  0.00  0.00    +0.159 HD
ENDBRANCH  15  18
ENDBRANCH  14  15
ENDBRANCH   4  14
BRANCH   5  23
ATOM     23  N   UNL     1     -35.481  20.827   3.501  0.00  0.00    -0.115 NA
BRANCH  23  24
ATOM     24  N   UNL     1     -34.983  20.769   2.203  0.00  0.00    -0.124 NA
BRANCH  24  27
ATOM     25  N   UNL     1     -34.657  18.826   0.839  0.00  0.00    -0.369 N 
ATOM     26  N   UNL     1     -36.759  19.425   1.507  0.00  0.00    -0.369 N 
ATOM     27  C   UNL     1     -35.419  19.727   1.547  0.00  0.00    +0.210 C 
ATOM     28  H   UNL     1     -33.680  18.935   0.793  0.00  0.00    +0.159 HD
ATOM     29  H   UNL     1     -35.090  18.071   0.378  0.00  0.00    +0.159 HD
ATOM     30  H   UNL     1     -37.407  19.998   1.978  0.00  0.00    +0.159 HD
ATOM     31  H   UNL     1     -37.071  18.636   1.009  0.00  0.00    +0.159 HD
ENDBRANCH  24  27
ENDBRANCH  23  24
ENDBRANCH   5  23
TORSDOF 6
ENDMDL
MODEL 4
REMARK VINA RESULT:      -6.3      3.279      6.982
REMARK  Name = 5477413
REMARK  6 active torsions:
REMARK  status: ('A' for Active; 'I' for Inactive)
REMARK    1  A    between atoms: N_1  and  C_6
REMARK    2  A    between atoms: N_1  and  N_16
REMARK    3  A    between atoms: N_2  and  C_7
REMARK    4  A    between atoms: N_2  and  N_24
REMARK    5  A    between atoms: N_16  and  C_19
REMARK    6  A    between atoms: N_24  and  C_27
REMARK                            x       y       z     vdW  Elec       q    Type
REMARK                         _______ _______ _______ _____ _____    ______ ____
ROOT
ATOM      1  C   UNL     1     -36.799  22.908   3.452  0.00  0.00    +0.085 C 
ATOM      2  C   UNL     1     -36.615  24.153   4.047  0.00  0.00    +0.004 C 
ATOM      3  C   UNL     1     -34.747  22.773   4.721  0.00  0.00    +0.032 C 
ATOM      4  C   UNL     1     -35.699  22.026   3.822  0.00  0.00    +0.078 C 
ATOM      5  C   UNL     1     -35.384  24.136   4.834  0.00  0.00    +0.089 C 
ATOM      6  C   UNL     1     -38.828  23.662   2.436  0.00  0.00    -0.004 C 
ATOM      7  C   UNL     1     -38.643  24.942   3.045  0.00  0.00    -0.001 C 
ATOM      8  C   UNL     1     -37.889  22.638   2.647  0.00  0.00    -0.016 C 
ATOM      9  C   UNL     1     -37.521  25.181   3.859  0.00  0.00    -0.002 C 
ATOM     10  C   UNL     1     -39.955  23.447   1.628  0.00  0.00    -0.000 C 
ATOM     11  C   UNL     1     -39.594  25.948   2.819  0.00  0.00    -0.000 C 
ATOM     12  C   UNL     1     -40.887  24.464   1.419  0.00  0.00    -0.000 C 
ATOM     13  C   UNL     1     -40.707  25.710   2.013  0.00  0.00    -0.000 C 
ENDROOT
BRANCH   4  14
ATOM     14  N   UNL     1     -35.523  20.801   3.466  0.00  0.00    -0.118 NA
BRANCH  14  15
ATOM     15  N   UNL     1     -34.995  20.740   2.180  0.00  0.00    -0.125 NA
BRANCH  15  18
ATOM     16  N   UNL     1     -34.691  18.831   0.763  0.00  0.00    -0.369 N 
ATOM     17  N   UNL     1     -36.781  19.411   1.481  0.00  0.00    -0.369 N 
ATOM     18  C   UNL     1     -35.442  19.713   1.507  0.00  0.00    +0.210 C 
ATOM     19  H   UNL     1     -33.716  18.942   0.704  0.00  0.00    +0.159 HD
ATOM     20  H   UNL     1     -35.131  18.086   0.292  0.00  0.00    +0.159 HD
ATOM     21  H   UNL     1     -37.422  19.972   1.976  0.00  0.00    +0.159 HD
ATOM     22  H   UNL     1     -37.102  18.633   0.969  0.00  0.00    +0.159 HD
ENDBRANCH  15  18
ENDBRANCH  14  15
ENDBRANCH   4  14
BRANCH   5  23
ATOM     23  N   UNL     1     -34.884  25.101   5.525  0.00  0.00    -0.115 NA
BRANCH  23  24
ATOM     24  N   UNL     1     -33.697  25.547   4.951  0.00  0.00    -0.124 NA
BRANCH  24  27
ATOM     25  N   UNL     1     -32.818  27.706   5.508  0.00  0.00    -0.369 N 
ATOM     26  N   UNL     1     -34.504  27.508   3.977  0.00  0.00    -0.369 N 
ATOM     27  C   UNL     1     -33.658  26.848   4.835  0.00  0.00    +0.210 C 
ATOM     28  H   UNL     1     -32.163  27.351   6.152  0.00  0.00    +0.159 HD
ATOM     29  H   UNL     1     -32.871  28.675   5.344  0.00  0.00    +0.159 HD
ATOM     30  H   UNL     1     -35.153  27.001   3.438  0.00  0.00    +0.159 HD
ATOM     31  H   UNL     1     -34.460  28.489   3.901  0.00  0.00    +0.159 HD
ENDBRANCH  24  27
ENDBRANCH  23  24
ENDBRANCH   5  23
TORSDOF 6
ENDMDL
MODEL 5
REMARK VINA RESULT:      -6.2      2.824      3.176
REMARK  Name = 5477413
REMARK  6 active torsions:
REMARK  status: ('A' for Active; 'I' for Inactive)
REMARK    1  A    between atoms: N_1  and  C_6
REMARK    2  A    between atoms: N_1  and  N_16
REMARK    3  A    between atoms: N_2  and  C_7
REMARK    4  A    between atoms: N_2  and  N_24
REMARK    5  A    between atoms: N_16  and  C_19
REMARK    6  A    between atoms: N_24  and  C_27
REMARK                            x       y       z     vdW  Elec       q    Type
REMARK                         _______ _______ _______ _____ _____    ______ ____
ROOT
ATOM      1  C   UNL     1     -35.021  27.089   3.606  0.00  0.00    +0.085 C 
ATOM      2  C   UNL     1     -35.944  26.080   3.870  0.00  0.00    +0.004 C 
ATOM      3  C   UNL     1     -34.244  25.940   5.584  0.00  0.00    +0.032 C 
ATOM      4  C   UNL     1     -33.966  27.056   4.610  0.00  0.00    +0.078 C 
ATOM      5  C   UNL     1     -35.527  25.344   5.062  0.00  0.00    +0.089 C 
ATOM      6  C   UNL     1     -36.280  27.777   1.693  0.00  0.00    -0.004 C 
ATOM      7  C   UNL     1     -37.229  26.743   1.961  0.00  0.00    -0.001 C 
ATOM      8  C   UNL     1     -35.165  27.945   2.532  0.00  0.00    -0.016 C 
ATOM      9  C   UNL     1     -37.051  25.889   3.064  0.00  0.00    -0.002 C 
ATOM     10  C   UNL     1     -36.479  28.616   0.586  0.00  0.00    -0.000 C 
ATOM     11  C   UNL     1     -38.334  26.595   1.109  0.00  0.00    -0.000 C 
ATOM     12  C   UNL     1     -37.586  28.449  -0.247  0.00  0.00    -0.000 C 
ATOM     13  C   UNL     1     -38.510  27.441   0.014  0.00  0.00    -0.000 C 
ENDROOT
BRANCH   4  14
ATOM     14  N   UNL     1     -32.941  27.832   4.696  0.00  0.00    -0.118 NA
BRANCH  14  15
ATOM     15  N   UNL     1     -32.389  27.768   5.972  0.00  0.00    -0.125 NA
BRANCH  15  18
ATOM     16  N   UNL     1     -30.651  28.987   7.085  0.00  0.00    -0.369 N 
ATOM     17  N   UNL     1     -32.254  30.096   5.892  0.00  0.00    -0.369 N 
ATOM     18  C   UNL     1     -31.783  28.876   6.309  0.00  0.00    +0.210 C 
ATOM     19  H   UNL     1     -30.218  28.180   7.444  0.00  0.00    +0.159 HD
ATOM     20  H   UNL     1     -30.274  29.876   7.279  0.00  0.00    +0.159 HD
ATOM     21  H   UNL     1     -33.062  30.146   5.330  0.00  0.00    +0.159 HD
ATOM     22  H   UNL     1     -31.786  30.921   6.155  0.00  0.00    +0.159 HD
ENDBRANCH  15  18
ENDBRANCH  14  15
ENDBRANCH   4  14
BRANCH   5  23
ATOM     23  N   UNL     1     -36.125  24.345   5.613  0.00  0.00    -0.115 NA
BRANCH  23  24
ATOM     24  N   UNL     1     -35.220  23.322   5.876  0.00  0.00    -0.124 NA
BRANCH  24  27
ATOM     25  N   UNL     1     -36.357  22.041   4.199  0.00  0.00    -0.369 N 
ATOM     26  N   UNL     1     -35.147  20.989   5.828  0.00  0.00    -0.369 N 
ATOM     27  C   UNL     1     -35.568  22.193   5.316  0.00  0.00    +0.210 C 
ATOM     28  H   UNL     1     -36.720  22.832   3.740  0.00  0.00    +0.159 HD
ATOM     29  H   UNL     1     -36.558  21.139   3.858  0.00  0.00    +0.159 HD
ATOM     30  H   UNL     1     -34.575  20.968   6.629  0.00  0.00    +0.159 HD
ATOM     31  H   UNL     1     -35.418  20.148   5.394  0.00  0.00    +0.159 HD
ENDBRANCH  24  27
ENDBRANCH  23  24
ENDBRANCH   5  23
TORSDOF 6
ENDMDL
MODEL 6
REMARK VINA RESULT:      -6.2      2.790      6.014
REMARK  Name = 5477413
REMARK  6 active torsions:
REMARK  status: ('A' for Active; 'I' for Inactive)
REMARK    1  A    between atoms: N_1  and  C_6
REMARK    2  A    between atoms: N_1  and  N_16
REMARK    3  A    between atoms: N_2  and  C_7
REMARK    4  A    between atoms: N_2  and  N_24
REMARK    5  A    between atoms: N_16  and  C_19
REMARK    6  A    between atoms: N_24  and  C_27
REMARK                            x       y       z     vdW  Elec       q    Type
REMARK                         _______ _______ _______ _____ _____    ______ ____
ROOT
ATOM      1  C   UNL     1     -36.104  26.035   3.630  0.00  0.00    +0.085 C 
ATOM      2  C   UNL     1     -35.177  27.059   3.455  0.00  0.00    +0.004 C 
ATOM      3  C   UNL     1     -34.439  25.763   5.359  0.00  0.00    +0.032 C 
ATOM      4  C   UNL     1     -35.713  25.215   4.769  0.00  0.00    +0.078 C 
ATOM      5  C   UNL     1     -34.138  26.949   4.477  0.00  0.00    +0.089 C 
ATOM      6  C   UNL     1     -37.366  26.821   1.757  0.00  0.00    -0.004 C 
ATOM      7  C   UNL     1     -36.417  27.874   1.575  0.00  0.00    -0.001 C 
ATOM      8  C   UNL     1     -37.200  25.894   2.800  0.00  0.00    -0.016 C 
ATOM      9  C   UNL     1     -35.312  27.986   2.439  0.00  0.00    -0.002 C 
ATOM     10  C   UNL     1     -38.460  26.730   0.883  0.00  0.00    -0.000 C 
ATOM     11  C   UNL     1     -36.604  28.786   0.527  0.00  0.00    -0.000 C 
ATOM     12  C   UNL     1     -38.625  27.650  -0.153  0.00  0.00    -0.000 C 
ATOM     13  C   UNL     1     -37.700  28.675  -0.329  0.00  0.00    -0.000 C 
ENDROOT
BRANCH   4  14
ATOM     14  N   UNL     1     -36.321  24.179   5.235  0.00  0.00    -0.118 NA
BRANCH  14  15
ATOM     15  N   UNL     1     -35.405  23.279   5.771  0.00  0.00    -0.125 NA
BRANCH  15  18
ATOM     16  N   UNL     1     -35.979  21.787   3.984  0.00  0.00    -0.369 N 
ATOM     17  N   UNL     1     -35.148  20.966   5.949  0.00  0.00    -0.369 N 
ATOM     18  C   UNL     1     -35.513  22.087   5.245  0.00  0.00    +0.210 C 
ATOM     19  H   UNL     1     -36.271  22.508   3.383  0.00  0.00    +0.159 HD
ATOM     20  H   UNL     1     -36.019  20.849   3.686  0.00  0.00    +0.159 HD
ATOM     21  H   UNL     1     -34.799  21.052   6.866  0.00  0.00    +0.159 HD
ATOM     22  H   UNL     1     -35.236  20.075   5.537  0.00  0.00    +0.159 HD
ENDBRANCH  15  18
ENDBRANCH  14  15
ENDBRANCH   4  14
BRANCH   5  23
ATOM     23  N   UNL     1     -33.115  27.715   4.637  0.00  0.00    -0.115 NA
BRANCH  23  24
ATOM     24  N   UNL     1     -32.583  27.555   5.913  0.00  0.00    -0.124 NA
BRANCH  24  27
ATOM     25  N   UNL     1     -30.592  28.458   6.897  0.00  0.00    -0.369 N 
ATOM     26  N   UNL     1     -32.165  29.850   5.995  0.00  0.00    -0.369 N 
ATOM     27  C   UNL     1     -31.808  28.549   6.258  0.00  0.00    +0.210 C 
ATOM     28  H   UNL     1     -30.227  27.576   7.139  0.00  0.00    +0.159 HD
ATOM     29  H   UNL     1     -30.087  29.275   7.112  0.00  0.00    +0.159 HD
ATOM     30  H   UNL     1     -33.016  30.044   5.540  0.00  0.00    +0.159 HD
ATOM     31  H   UNL     1     -31.569  30.587   6.262  0.00  0.00    +0.159 HD
ENDBRANCH  24  27
ENDBRANCH  23  24
ENDBRANCH   5  23
TORSDOF 6
ENDMDL
MODEL 7
REMARK VINA RESULT:      -6.1      4.546      6.040
REMARK  Name = 5477413
REMARK  6 active torsions:
REMARK  status: ('A' for Active; 'I' for Inactive)
REMARK    1  A    between atoms: N_1  and  C_6
REMARK    2  A    between atoms: N_1  and  N_16
REMARK    3  A    between atoms: N_2  and  C_7
REMARK    4  A    between atoms: N_2  and  N_24
REMARK    5  A    between atoms: N_16  and  C_19
REMARK    6  A    between atoms: N_24  and  C_27
REMARK                            x       y       z     vdW  Elec       q    Type
REMARK                         _______ _______ _______ _____ _____    ______ ____
ROOT
ATOM      1  C   UNL     1     -36.393  21.557   2.350  0.00  0.00    +0.085 C 
ATOM      2  C   UNL     1     -37.251  21.306   1.283  0.00  0.00    +0.004 C 
ATOM      3  C   UNL     1     -38.264  23.065   2.597  0.00  0.00    +0.032 C 
ATOM      4  C   UNL     1     -36.951  22.614   3.183  0.00  0.00    +0.078 C 
ATOM      5  C   UNL     1     -38.410  22.191   1.376  0.00  0.00    +0.089 C 
ATOM      6  C   UNL     1     -34.884  19.874   1.569  0.00  0.00    -0.004 C 
ATOM      7  C   UNL     1     -35.763  19.613   0.473  0.00  0.00    -0.001 C 
ATOM      8  C   UNL     1     -35.211  20.861   2.515  0.00  0.00    -0.016 C 
ATOM      9  C   UNL     1     -36.958  20.342   0.336  0.00  0.00    -0.002 C 
ATOM     10  C   UNL     1     -33.697  19.134   1.684  0.00  0.00    -0.000 C 
ATOM     11  C   UNL     1     -35.415  18.624  -0.458  0.00  0.00    -0.000 C 
ATOM     12  C   UNL     1     -33.373  18.155   0.745  0.00  0.00    -0.000 C 
ATOM     13  C   UNL     1     -34.230  17.900  -0.322  0.00  0.00    -0.000 C 
ENDROOT
BRANCH   4  14
ATOM     14  N   UNL     1     -36.444  23.117   4.256  0.00  0.00    -0.118 NA
BRANCH  14  15
ATOM     15  N   UNL     1     -37.020  24.354   4.531  0.00  0.00    -0.125 NA
BRANCH  15  18
ATOM     16  N   UNL     1     -34.910  24.895   5.531  0.00  0.00    -0.369 N 
ATOM     17  N   UNL     1     -36.479  26.523   5.202  0.00  0.00    -0.369 N 
ATOM     18  C   UNL     1     -36.169  25.193   5.061  0.00  0.00    +0.210 C 
ATOM     19  H   UNL     1     -34.572  23.972   5.485  0.00  0.00    +0.159 HD
ATOM     20  H   UNL     1     -34.347  25.607   5.914  0.00  0.00    +0.159 HD
ATOM     21  H   UNL     1     -37.355  26.859   4.902  0.00  0.00    +0.159 HD
ATOM     22  H   UNL     1     -35.826  27.141   5.603  0.00  0.00    +0.159 HD
ENDBRANCH  15  18
ENDBRANCH  14  15
ENDBRANCH   4  14
BRANCH   5  23
ATOM     23  N   UNL     1     -39.414  22.252   0.572  0.00  0.00    -0.115 NA
BRANCH  23  24
ATOM     24  N   UNL     1     -40.320  21.233   0.847  0.00  0.00    -0.124 NA
BRANCH  24  27
ATOM     25  N   UNL     1     -42.307  21.041  -0.480  0.00  0.00    -0.369 N 
ATOM     26  N   UNL     1     -40.333  20.160  -1.225  0.00  0.00    -0.369 N 
ATOM     27  C   UNL     1     -40.970  20.843  -0.217  0.00  0.00    +0.210 C 
ATOM     28  H   UNL     1     -42.871  21.519   0.168  0.00  0.00    +0.159 HD
ATOM     29  H   UNL     1     -42.698  20.704  -1.319  0.00  0.00    +0.159 HD
ATOM     30  H   UNL     1     -39.372  19.958  -1.152  0.00  0.00    +0.159 HD
ATOM     31  H   UNL     1     -40.838  19.874  -2.021  0.00  0.00    +0.159 HD
ENDBRANCH  24  27
ENDBRANCH  23  24
ENDBRANCH   5  23
TORSDOF 6
ENDMDL
MODEL 8
REMARK VINA RESULT:      -6.1      9.459     11.380
REMARK  Name = 5477413
REMARK  6 active torsions:
REMARK  status: ('A' for Active; 'I' for Inactive)
REMARK    1  A    between atoms: N_1  and  C_6
REMARK    2  A    between atoms: N_1  and  N_16
REMARK    3  A    between atoms: N_2  and  C_7
REMARK    4  A    between atoms: N_2  and  N_24
REMARK    5  A    between atoms: N_16  and  C_19
REMARK    6  A    between atoms: N_24  and  C_27
REMARK                            x       y       z     vdW  Elec       q    Type
REMARK                         _______ _______ _______ _____ _____    ______ ____
ROOT
ATOM      1  C   UNL     1     -44.715  26.943   4.046  0.00  0.00    +0.085 C 
ATOM      2  C   UNL     1     -44.170  26.447   2.865  0.00  0.00    +0.004 C 
ATOM      3  C   UNL     1     -42.816  28.340   3.521  0.00  0.00    +0.032 C 
ATOM      4  C   UNL     1     -43.940  28.092   4.494  0.00  0.00    +0.078 C 
ATOM      5  C   UNL     1     -43.010  27.254   2.492  0.00  0.00    +0.089 C 
ATOM      6  C   UNL     1     -46.409  25.255   4.005  0.00  0.00    -0.004 C 
ATOM      7  C   UNL     1     -45.851  24.743   2.793  0.00  0.00    -0.001 C 
ATOM      8  C   UNL     1     -45.827  26.370   4.633  0.00  0.00    -0.016 C 
ATOM      9  C   UNL     1     -44.718  25.352   2.223  0.00  0.00    -0.002 C 
ATOM     10  C   UNL     1     -47.539  24.630   4.554  0.00  0.00    -0.000 C 
ATOM     11  C   UNL     1     -46.449  23.629   2.185  0.00  0.00    -0.000 C 
ATOM     12  C   UNL     1     -48.116  23.524   3.930  0.00  0.00    -0.000 C 
ATOM     13  C   UNL     1     -47.573  23.026   2.749  0.00  0.00    -0.000 C 
ENDROOT
BRANCH   4  14
ATOM     14  N   UNL     1     -44.139  28.812   5.543  0.00  0.00    -0.118 NA
BRANCH  14  15
ATOM     15  N   UNL     1     -43.178  29.814   5.635  0.00  0.00    -0.125 NA
BRANCH  15  18
ATOM     16  N   UNL     1     -43.498  30.532   7.900  0.00  0.00    -0.369 N 
ATOM     17  N   UNL     1     -43.825  31.991   6.172  0.00  0.00    -0.369 N 
ATOM     18  C   UNL     1     -43.479  30.713   6.535  0.00  0.00    +0.210 C 
ATOM     19  H   UNL     1     -43.267  29.656   8.284  0.00  0.00    +0.159 HD
ATOM     20  H   UNL     1     -43.741  31.281   8.492  0.00  0.00    +0.159 HD
ATOM     21  H   UNL     1     -43.849  32.243   5.220  0.00  0.00    +0.159 HD
ATOM     22  H   UNL     1     -44.049  32.656   6.863  0.00  0.00    +0.159 HD
ENDBRANCH  15  18
ENDBRANCH  14  15
ENDBRANCH   4  14
BRANCH   5  23
ATOM     23  N   UNL     1     -42.249  27.102   1.465  0.00  0.00    -0.115 NA
BRANCH  23  24
ATOM     24  N   UNL     1     -40.921  26.969   1.858  0.00  0.00    -0.124 NA
BRANCH  24  27
ATOM     25  N   UNL     1     -40.859  24.597   1.518  0.00  0.00    -0.369 N 
ATOM     26  N   UNL     1     -40.039  25.506   3.449  0.00  0.00    -0.369 N 
ATOM     27  C   UNL     1     -40.632  25.751   2.234  0.00  0.00    +0.210 C 
ATOM     28  H   UNL     1     -41.279  24.642   0.629  0.00  0.00    +0.159 HD
ATOM     29  H   UNL     1     -40.600  23.725   1.896  0.00  0.00    +0.159 HD
ATOM     30  H   UNL     1     -39.827  26.254   4.052  0.00  0.00    +0.159 HD
ATOM     31  H   UNL     1     -39.828  24.582   3.716  0.00  0.00    +0.159 HD
ENDBRANCH  24  27
ENDBRANCH  23  24
ENDBRANCH   5  23
TORSDOF 6
ENDMDL
MODEL 9
REMARK VINA RESULT:      -6.1      9.497     11.857
REMARK  Name = 5477413
REMARK  6 active torsions:
REMARK  status: ('A' for Active; 'I' for Inactive)
REMARK    1  A    between atoms: N_1  and  C_6
REMARK    2  A    between atoms: N_1  and  N_16
REMARK    3  A    between atoms: N_2  and  C_7
REMARK    4  A    between atoms: N_2  and  N_24
REMARK    5  A    between atoms: N_16  and  C_19
REMARK    6  A    between atoms: N_24  and  C_27
REMARK                            x       y       z     vdW  Elec       q    Type
REMARK                         _______ _______ _______ _____ _____    ______ ____
ROOT
ATOM      1  C   UNL     1     -44.234  26.476   2.865  0.00  0.00    +0.085 C 
ATOM      2  C   UNL     1     -44.769  26.963   4.054  0.00  0.00    +0.004 C 
ATOM      3  C   UNL     1     -42.888  28.378   3.500  0.00  0.00    +0.032 C 
ATOM      4  C   UNL     1     -43.091  27.291   2.476  0.00  0.00    +0.078 C 
ATOM      5  C   UNL     1     -43.993  28.122   4.494  0.00  0.00    +0.089 C 
ATOM      6  C   UNL     1     -45.888  24.751   2.797  0.00  0.00    -0.004 C 
ATOM      7  C   UNL     1     -46.440  25.248   4.018  0.00  0.00    -0.001 C 
ATOM      8  C   UNL     1     -44.771  25.378   2.220  0.00  0.00    -0.016 C 
ATOM      9  C   UNL     1     -45.867  26.369   4.647  0.00  0.00    -0.002 C 
ATOM     10  C   UNL     1     -46.478  23.632   2.188  0.00  0.00    -0.000 C 
ATOM     11  C   UNL     1     -47.555  24.605   4.575  0.00  0.00    -0.000 C 
ATOM     12  C   UNL     1     -47.587  23.009   2.761  0.00  0.00    -0.000 C 
ATOM     13  C   UNL     1     -48.123  23.493   3.951  0.00  0.00    -0.000 C 
ENDROOT
BRANCH   4  14
ATOM     14  N   UNL     1     -42.342  27.148   1.437  0.00  0.00    -0.118 NA
BRANCH  14  15
ATOM     15  N   UNL     1     -41.002  27.098   1.807  0.00  0.00    -0.125 NA
BRANCH  15  18
ATOM     16  N   UNL     1     -40.812  24.723   1.543  0.00  0.00    -0.369 N 
ATOM     17  N   UNL     1     -40.029  25.738   3.435  0.00  0.00    -0.369 N 
ATOM     18  C   UNL     1     -40.643  25.911   2.219  0.00  0.00    +0.210 C 
ATOM     19  H   UNL     1     -41.240  24.717   0.657  0.00  0.00    +0.159 HD
ATOM     20  H   UNL     1     -40.502  23.880   1.946  0.00  0.00    +0.159 HD
ATOM     21  H   UNL     1     -39.854  26.516   4.013  0.00  0.00    +0.159 HD
ATOM     22  H   UNL     1     -39.765  24.836   3.730  0.00  0.00    +0.159 HD
ENDBRANCH  15  18
ENDBRANCH  14  15
ENDBRANCH   4  14
BRANCH   5  23
ATOM     23  N   UNL     1     -44.185  28.838   5.547  0.00  0.00    -0.115 NA
BRANCH  23  24
ATOM     24  N   UNL     1     -43.193  29.807   5.663  0.00  0.00    -0.124 NA
BRANCH  24  27
ATOM     25  N   UNL     1     -43.498  30.523   7.930  0.00  0.00    -0.369 N 
ATOM     26  N   UNL     1     -43.806  31.993   6.206  0.00  0.00    -0.369 N 
ATOM     27  C   UNL     1     -43.480  30.707   6.566  0.00  0.00    +0.210 C 
ATOM     28  H   UNL     1     -43.280  29.642   8.312  0.00  0.00    +0.159 HD
ATOM     29  H   UNL     1     -43.728  31.274   8.525  0.00  0.00    +0.159 HD
ATOM     30  H   UNL     1     -43.827  32.247   5.256  0.00  0.00    +0.159 HD
ATOM     31  H   UNL     1     -44.018  32.658   6.900  0.00  0.00    +0.159 HD
ENDBRANCH  24  27
ENDBRANCH  23  24
ENDBRANCH   5  23
TORSDOF 6
ENDMDL
