MODEL 1
REMARK VINA RESULT:      -6.1      0.000      0.000
REMARK  Name = 195102
REMARK  11 active torsions:
REMARK  status: ('A' for Active; 'I' for Inactive)
REMARK    1  A    between atoms: N_3  and  C_26
REMARK    2  A    between atoms: C_4  and  N_9
REMARK    3  A    between atoms: C_10  and  C_12
REMARK    4  A    between atoms: C_12  and  N_14
REMARK    5  A    between atoms: C_12  and  C_22
REMARK    6  A    between atoms: C_15  and  O_17
REMARK    7  A    between atoms: O_17  and  C_18
REMARK    8  A    between atoms: C_22  and  C_23
REMARK    9  A    between atoms: C_26  and  C_29
REMARK   10  A    between atoms: C_26  and  C_32
REMARK   11  A    between atoms: C_32  and  C_33
REMARK                            x       y       z     vdW  Elec       q    Type
REMARK                         _______ _______ _______ _____ _____    ______ ____
ROOT
ATOM      1  O   UNL     1     -35.363  20.081   2.816  0.00  0.00    -0.273 OA
ATOM      2  O   UNL     1     -34.897  23.464  -0.297  0.00  0.00    -0.274 OA
ATOM      3  N   UNL     1     -35.379  21.967   1.434  0.00  0.00    -0.221 N 
ATOM      4  C   UNL     1     -33.697  20.393   1.089  0.00  0.00    +0.158 C 
ATOM      5  C   UNL     1     -33.477  21.566   0.144  0.00  0.00    +0.115 C 
ATOM      6  C   UNL     1     -34.892  20.772   1.922  0.00  0.00    +0.250 C 
ATOM      7  C   UNL     1     -34.662  22.463   0.366  0.00  0.00    +0.234 C 
ENDROOT
BRANCH   4   9
ATOM      8  O   UNL     1     -32.532  17.785   1.507  0.00  0.00    -0.273 OA
ATOM      9  N   UNL     1     -34.036  19.175   0.410  0.00  0.00    -0.297 N 
ATOM     10  C   UNL     1     -33.421  17.958   0.676  0.00  0.00    +0.241 C 
ATOM     11  H   UNL     1     -34.738  19.202  -0.279  0.00  0.00    +0.150 HD
BRANCH  10  12
ATOM     12  C   UNL     1     -33.936  16.846  -0.232  0.00  0.00    +0.151 C 
BRANCH  12  14
ATOM     13  O   UNL     1     -35.572  14.469  -0.566  0.00  0.00    -0.226 OA
ATOM     14  N   UNL     1     -35.344  16.699   0.035  0.00  0.00    -0.264 N 
ATOM     15  C   UNL     1     -36.045  15.523  -0.155  0.00  0.00    +0.402 C 
ATOM     16  H   UNL     1     -35.835  17.482   0.371  0.00  0.00    +0.153 HD
BRANCH  15  17
ATOM     17  O   UNL     1     -37.356  15.706   0.187  0.00  0.00    -0.442 OA
BRANCH  17  18
ATOM     18  C   UNL     1     -38.265  15.889  -0.905  0.00  0.00    +0.138 C 
ATOM     19  C   UNL     1     -37.542  15.537  -2.204  0.00  0.00    +0.044 C 
ATOM     20  C   UNL     1     -38.691  17.355  -0.906  0.00  0.00    +0.044 C 
ATOM     21  C   UNL     1     -39.473  14.979  -0.689  0.00  0.00    +0.044 C 
ENDBRANCH  17  18
ENDBRANCH  15  17
ENDBRANCH  12  14
BRANCH  12  22
ATOM     22  C   UNL     1     -33.656  17.187  -1.701  0.00  0.00    +0.029 C 
BRANCH  22  23
ATOM     23  C   UNL     1     -32.870  16.111  -2.477  0.00  0.00    +0.002 C 
ATOM     24  C   UNL     1     -32.231  15.076  -1.550  0.00  0.00    +0.000 C 
ATOM     25  C   UNL     1     -33.800  15.409  -3.470  0.00  0.00    +0.000 C 
ENDBRANCH  22  23
ENDBRANCH  12  22
ENDBRANCH  10  12
ENDBRANCH   4   9
BRANCH   3  26
ATOM     26  C   UNL     1     -36.571  22.610   1.952  0.00  0.00    +0.162 C 
BRANCH  26  29
ATOM     27  O   UNL     1     -38.151  22.103   0.176  0.00  0.00    -0.274 OA
ATOM     28  N   UNL     1     -38.346  20.983   2.172  0.00  0.00    -0.327 N 
ATOM     29  C   UNL     1     -37.767  21.906   1.327  0.00  0.00    +0.238 C 
ATOM     30  H   UNL     1     -39.129  20.466   1.875  0.00  0.00    +0.145 HD
ATOM     31  H   UNL     1     -37.976  20.842   3.074  0.00  0.00    +0.145 HD
ENDBRANCH  26  29
BRANCH  26  32
ATOM     32  C   UNL     1     -36.650  22.540   3.481  0.00  0.00    +0.056 C 
BRANCH  32  33
ATOM     33  C   UNL     1     -36.023  23.738   4.153  0.00  0.00    -0.020 C 
ATOM     34  C   UNL     1     -34.675  23.711   4.510  0.00  0.00    -0.004 C 
ATOM     35  C   UNL     1     -36.791  24.872   4.415  0.00  0.00    -0.004 C 
ATOM     36  C   UNL     1     -34.095  24.816   5.131  0.00  0.00    -0.000 C 
ATOM     37  C   UNL     1     -36.211  25.978   5.036  0.00  0.00    -0.000 C 
ATOM     38  C   UNL     1     -34.863  25.951   5.393  0.00  0.00    -0.000 C 
ENDBRANCH  32  33
ENDBRANCH  26  32
ENDBRANCH   3  26
TORSDOF 11
ENDMDL
MODEL 2
REMARK VINA RESULT:      -6.1      5.275     11.467
REMARK  Name = 195102
REMARK  11 active torsions:
REMARK  status: ('A' for Active; 'I' for Inactive)
REMARK    1  A    between atoms: N_3  and  C_26
REMARK    2  A    between atoms: C_4  and  N_9
REMARK    3  A    between atoms: C_10  and  C_12
REMARK    4  A    between atoms: C_12  and  N_14
REMARK    5  A    between atoms: C_12  and  C_22
REMARK    6  A    between atoms: C_15  and  O_17
REMARK    7  A    between atoms: O_17  and  C_18
REMARK    8  A    between atoms: C_22  and  C_23
REMARK    9  A    between atoms: C_26  and  C_29
REMARK   10  A    between atoms: C_26  and  C_32
REMARK   11  A    between atoms: C_32  and  C_33
REMARK                            x       y       z     vdW  Elec       q    Type
REMARK                         _______ _______ _______ _____ _____    ______ ____
ROOT
ATOM      1  O   UNL     1     -34.235  25.870   1.831  0.00  0.00    -0.273 OA
ATOM      2  O   UNL     1     -36.534  24.196   5.472  0.00  0.00    -0.274 OA
ATOM      3  N   UNL     1     -35.627  24.885   3.429  0.00  0.00    -0.221 N 
ATOM      4  C   UNL     1     -33.594  25.756   4.161  0.00  0.00    +0.158 C 
ATOM      5  C   UNL     1     -34.301  25.098   5.337  0.00  0.00    +0.115 C 
ATOM      6  C   UNL     1     -34.484  25.506   2.972  0.00  0.00    +0.250 C 
ATOM      7  C   UNL     1     -35.635  24.669   4.791  0.00  0.00    +0.234 C 
ENDROOT
BRANCH   4   9
ATOM      8  O   UNL     1     -31.275  27.373   3.579  0.00  0.00    -0.273 OA
ATOM      9  N   UNL     1     -33.475  27.180   4.297  0.00  0.00    -0.297 N 
ATOM     10  C   UNL     1     -32.315  27.880   3.992  0.00  0.00    +0.241 C 
ATOM     11  H   UNL     1     -34.254  27.686   4.623  0.00  0.00    +0.150 HD
BRANCH  10  12
ATOM     12  C   UNL     1     -32.453  29.371   4.284  0.00  0.00    +0.151 C 
BRANCH  12  14
ATOM     13  O   UNL     1     -31.523  29.589   7.027  0.00  0.00    -0.226 OA
ATOM     14  N   UNL     1     -31.170  29.833   4.746  0.00  0.00    -0.264 N 
ATOM     15  C   UNL     1     -30.811  29.904   6.079  0.00  0.00    +0.402 C 
ATOM     16  H   UNL     1     -30.510  30.114   4.073  0.00  0.00    +0.153 HD
BRANCH  15  17
ATOM     17  O   UNL     1     -29.535  30.380   6.190  0.00  0.00    -0.442 OA
BRANCH  17  18
ATOM     18  C   UNL     1     -28.550  29.429   6.611  0.00  0.00    +0.138 C 
ATOM     19  C   UNL     1     -28.314  29.603   8.111  0.00  0.00    +0.044 C 
ATOM     20  C   UNL     1     -27.270  29.717   5.829  0.00  0.00    +0.044 C 
ATOM     21  C   UNL     1     -29.066  28.025   6.299  0.00  0.00    +0.044 C 
ENDBRANCH  17  18
ENDBRANCH  15  17
ENDBRANCH  12  14
BRANCH  12  22
ATOM     22  C   UNL     1     -32.921  30.117   3.028  0.00  0.00    +0.029 C 
BRANCH  22  23
ATOM     23  C   UNL     1     -33.887  31.289   3.294  0.00  0.00    +0.002 C 
ATOM     24  C   UNL     1     -33.550  32.522   2.456  0.00  0.00    +0.000 C 
ATOM     25  C   UNL     1     -35.325  30.847   3.007  0.00  0.00    +0.000 C 
ENDBRANCH  22  23
ENDBRANCH  12  22
ENDBRANCH  10  12
ENDBRANCH   4   9
BRANCH   3  26
ATOM     26  C   UNL     1     -36.744  24.546   2.570  0.00  0.00    +0.162 C 
BRANCH  26  29
ATOM     27  O   UNL     1     -37.505  26.465   1.286  0.00  0.00    -0.274 OA
ATOM     28  N   UNL     1     -38.326  26.169   3.411  0.00  0.00    -0.327 N 
ATOM     29  C   UNL     1     -37.533  25.826   2.336  0.00  0.00    +0.238 C 
ATOM     30  H   UNL     1     -38.883  26.981   3.374  0.00  0.00    +0.145 HD
ATOM     31  H   UNL     1     -38.335  25.602   4.217  0.00  0.00    +0.145 HD
ENDBRANCH  26  29
BRANCH  26  32
ATOM     32  C   UNL     1     -36.289  23.948   1.234  0.00  0.00    +0.056 C 
BRANCH  32  33
ATOM     33  C   UNL     1     -35.690  22.572   1.385  0.00  0.00    -0.020 C 
ATOM     34  C   UNL     1     -36.282  21.642   2.239  0.00  0.00    -0.004 C 
ATOM     35  C   UNL     1     -34.543  22.228   0.669  0.00  0.00    -0.004 C 
ATOM     36  C   UNL     1     -35.729  20.370   2.379  0.00  0.00    -0.000 C 
ATOM     37  C   UNL     1     -33.988  20.956   0.808  0.00  0.00    -0.000 C 
ATOM     38  C   UNL     1     -34.582  20.027   1.663  0.00  0.00    -0.000 C 
ENDBRANCH  32  33
ENDBRANCH  26  32
ENDBRANCH   3  26
TORSDOF 11
ENDMDL
MODEL 3
REMARK VINA RESULT:      -6.0      2.899      8.768
REMARK  Name = 195102
REMARK  11 active torsions:
REMARK  status: ('A' for Active; 'I' for Inactive)
REMARK    1  A    between atoms: N_3  and  C_26
REMARK    2  A    between atoms: C_4  and  N_9
REMARK    3  A    between atoms: C_10  and  C_12
REMARK    4  A    between atoms: C_12  and  N_14
REMARK    5  A    between atoms: C_12  and  C_22
REMARK    6  A    between atoms: C_15  and  O_17
REMARK    7  A    between atoms: O_17  and  C_18
REMARK    8  A    between atoms: C_22  and  C_23
REMARK    9  A    between atoms: C_26  and  C_29
REMARK   10  A    between atoms: C_26  and  C_32
REMARK   11  A    between atoms: C_32  and  C_33
REMARK                            x       y       z     vdW  Elec       q    Type
REMARK                         _______ _______ _______ _____ _____    ______ ____
ROOT
ATOM      1  O   UNL     1     -34.808  20.992   3.222  0.00  0.00    -0.273 OA
ATOM      2  O   UNL     1     -37.295  20.567  -0.649  0.00  0.00    -0.274 OA
ATOM      3  N   UNL     1     -35.811  20.542   1.159  0.00  0.00    -0.221 N 
ATOM      4  C   UNL     1     -37.039  21.774   2.708  0.00  0.00    +0.158 C 
ATOM      5  C   UNL     1     -37.900  21.531   1.477  0.00  0.00    +0.115 C 
ATOM      6  C   UNL     1     -35.749  21.045   2.442  0.00  0.00    +0.250 C 
ATOM      7  C   UNL     1     -36.990  20.832   0.506  0.00  0.00    +0.234 C 
ENDROOT
BRANCH   4   9
ATOM      8  O   UNL     1     -36.426  23.090   5.203  0.00  0.00    -0.273 OA
ATOM      9  N   UNL     1     -36.701  23.157   2.898  0.00  0.00    -0.297 N 
ATOM     10  C   UNL     1     -36.419  23.708   4.141  0.00  0.00    +0.241 C 
ATOM     11  H   UNL     1     -36.668  23.743   2.108  0.00  0.00    +0.150 HD
BRANCH  10  12
ATOM     12  C   UNL     1     -36.149  25.207   4.054  0.00  0.00    +0.151 C 
BRANCH  12  14
ATOM     13  O   UNL     1     -37.490  25.770   1.540  0.00  0.00    -0.226 OA
ATOM     14  N   UNL     1     -37.419  25.856   3.858  0.00  0.00    -0.264 N 
ATOM     15  C   UNL     1     -37.984  26.084   2.618  0.00  0.00    +0.402 C 
ATOM     16  H   UNL     1     -37.914  26.155   4.654  0.00  0.00    +0.153 HD
BRANCH  15  17
ATOM     17  O   UNL     1     -39.187  26.716   2.766  0.00  0.00    -0.442 OA
BRANCH  17  18
ATOM     18  C   UNL     1     -40.348  25.910   2.527  0.00  0.00    +0.138 C 
ATOM     19  C   UNL     1     -40.711  26.007   1.046  0.00  0.00    +0.044 C 
ATOM     20  C   UNL     1     -41.476  26.462   3.395  0.00  0.00    +0.044 C 
ATOM     21  C   UNL     1     -40.026  24.468   2.916  0.00  0.00    +0.044 C 
ENDBRANCH  17  18
ENDBRANCH  15  17
ENDBRANCH  12  14
BRANCH  12  22
ATOM     22  C   UNL     1     -35.438  25.693   5.324  0.00  0.00    +0.029 C 
BRANCH  22  23
ATOM     23  C   UNL     1     -33.938  26.001   5.148  0.00  0.00    +0.002 C 
ATOM     24  C   UNL     1     -33.668  26.916   3.953  0.00  0.00    +0.000 C 
ATOM     25  C   UNL     1     -33.390  26.644   6.425  0.00  0.00    +0.000 C 
ENDBRANCH  22  23
ENDBRANCH  12  22
ENDBRANCH  10  12
ENDBRANCH   4   9
BRANCH   3  26
ATOM     26  C   UNL     1     -34.715  19.831   0.531  0.00  0.00    +0.162 C 
BRANCH  26  29
ATOM     27  O   UNL     1     -33.119  21.633   0.194  0.00  0.00    -0.274 OA
ATOM     28  N   UNL     1     -34.194  20.761  -1.639  0.00  0.00    -0.327 N 
ATOM     29  C   UNL     1     -33.932  20.848  -0.288  0.00  0.00    +0.238 C 
ATOM     30  H   UNL     1     -33.743  21.370  -2.268  0.00  0.00    +0.145 HD
ATOM     31  H   UNL     1     -34.831  20.089  -1.975  0.00  0.00    +0.145 HD
ENDBRANCH  26  29
BRANCH  26  32
ATOM     32  C   UNL     1     -33.799  19.153   1.556  0.00  0.00    +0.056 C 
BRANCH  32  33
ATOM     33  C   UNL     1     -32.887  18.125   0.933  0.00  0.00    -0.020 C 
ATOM     34  C   UNL     1     -33.427  17.010   0.291  0.00  0.00    -0.004 C 
ATOM     35  C   UNL     1     -31.503  18.289   0.999  0.00  0.00    -0.004 C 
ATOM     36  C   UNL     1     -32.585  16.060  -0.284  0.00  0.00    -0.000 C 
ATOM     37  C   UNL     1     -30.660  17.339   0.423  0.00  0.00    -0.000 C 
ATOM     38  C   UNL     1     -31.201  16.224  -0.219  0.00  0.00    -0.000 C 
ENDBRANCH  32  33
ENDBRANCH  26  32
ENDBRANCH   3  26
TORSDOF 11
ENDMDL
MODEL 4
REMARK VINA RESULT:      -5.9      5.009     10.732
REMARK  Name = 195102
REMARK  11 active torsions:
REMARK  status: ('A' for Active; 'I' for Inactive)
REMARK    1  A    between atoms: N_3  and  C_26
REMARK    2  A    between atoms: C_4  and  N_9
REMARK    3  A    between atoms: C_10  and  C_12
REMARK    4  A    between atoms: C_12  and  N_14
REMARK    5  A    between atoms: C_12  and  C_22
REMARK    6  A    between atoms: C_15  and  O_17
REMARK    7  A    between atoms: O_17  and  C_18
REMARK    8  A    between atoms: C_22  and  C_23
REMARK    9  A    between atoms: C_26  and  C_29
REMARK   10  A    between atoms: C_26  and  C_32
REMARK   11  A    between atoms: C_32  and  C_33
REMARK                            x       y       z     vdW  Elec       q    Type
REMARK                         _______ _______ _______ _____ _____    ______ ____
ROOT
ATOM      1  O   UNL     1     -34.469  25.868   1.629  0.00  0.00    -0.273 OA
ATOM      2  O   UNL     1     -36.271  23.938   5.421  0.00  0.00    -0.274 OA
ATOM      3  N   UNL     1     -35.637  24.762   3.326  0.00  0.00    -0.221 N 
ATOM      4  C   UNL     1     -33.542  25.636   3.852  0.00  0.00    +0.158 C 
ATOM      5  C   UNL     1     -34.087  24.897   5.066  0.00  0.00    +0.115 C 
ATOM      6  C   UNL     1     -34.569  25.433   2.769  0.00  0.00    +0.250 C 
ATOM      7  C   UNL     1     -35.472  24.469   4.663  0.00  0.00    +0.234 C 
ENDROOT
BRANCH   4   9
ATOM      8  O   UNL     1     -31.198  27.271   3.453  0.00  0.00    -0.273 OA
ATOM      9  N   UNL     1     -33.430  27.052   4.056  0.00  0.00    -0.297 N 
ATOM     10  C   UNL     1     -32.256  27.763   3.838  0.00  0.00    +0.241 C 
ATOM     11  H   UNL     1     -34.223  27.546   4.366  0.00  0.00    +0.150 HD
BRANCH  10  12
ATOM     12  C   UNL     1     -32.407  29.239   4.188  0.00  0.00    +0.151 C 
BRANCH  12  14
ATOM     13  O   UNL     1     -33.307  31.805   3.167  0.00  0.00    -0.226 OA
ATOM     14  N   UNL     1     -33.747  29.625   3.830  0.00  0.00    -0.264 N 
ATOM     15  C   UNL     1     -34.086  30.876   3.349  0.00  0.00    +0.402 C 
ATOM     16  H   UNL     1     -34.464  28.959   3.933  0.00  0.00    +0.153 HD
BRANCH  15  17
ATOM     17  O   UNL     1     -35.430  30.929   3.103  0.00  0.00    -0.442 OA
BRANCH  17  18
ATOM     18  C   UNL     1     -35.815  30.821   1.727  0.00  0.00    +0.138 C 
ATOM     19  C   UNL     1     -37.033  31.712   1.491  0.00  0.00    +0.044 C 
ATOM     20  C   UNL     1     -36.159  29.358   1.460  0.00  0.00    +0.044 C 
ATOM     21  C   UNL     1     -34.639  31.264   0.857  0.00  0.00    +0.044 C 
ENDBRANCH  17  18
ENDBRANCH  15  17
ENDBRANCH  12  14
BRANCH  12  22
ATOM     22  C   UNL     1     -32.117  29.464   5.678  0.00  0.00    +0.029 C 
BRANCH  22  23
ATOM     23  C   UNL     1     -30.737  30.080   5.982  0.00  0.00    +0.002 C 
ATOM     24  C   UNL     1     -29.695  29.023   6.348  0.00  0.00    +0.000 C 
ATOM     25  C   UNL     1     -30.253  30.885   4.773  0.00  0.00    +0.000 C 
ENDBRANCH  22  23
ENDBRANCH  12  22
ENDBRANCH  10  12
ENDBRANCH   4   9
BRANCH   3  26
ATOM     26  C   UNL     1     -36.847  24.446   2.592  0.00  0.00    +0.162 C 
BRANCH  26  29
ATOM     27  O   UNL     1     -37.787  26.310   1.346  0.00  0.00    -0.274 OA
ATOM     28  N   UNL     1     -38.161  26.202   3.610  0.00  0.00    -0.327 N 
ATOM     29  C   UNL     1     -37.620  25.747   2.426  0.00  0.00    +0.238 C 
ATOM     30  H   UNL     1     -38.683  27.037   3.625  0.00  0.00    +0.145 HD
ATOM     31  H   UNL     1     -38.023  25.693   4.442  0.00  0.00    +0.145 HD
ENDBRANCH  26  29
BRANCH  26  32
ATOM     32  C   UNL     1     -36.551  23.823   1.224  0.00  0.00    +0.056 C 
BRANCH  32  33
ATOM     33  C   UNL     1     -35.841  22.495   1.329  0.00  0.00    -0.020 C 
ATOM     34  C   UNL     1     -34.650  22.283   0.635  0.00  0.00    -0.004 C 
ATOM     35  C   UNL     1     -36.376  21.480   2.122  0.00  0.00    -0.004 C 
ATOM     36  C   UNL     1     -33.994  21.056   0.732  0.00  0.00    -0.000 C 
ATOM     37  C   UNL     1     -35.721  20.252   2.219  0.00  0.00    -0.000 C 
ATOM     38  C   UNL     1     -34.530  20.041   1.525  0.00  0.00    -0.000 C 
ENDBRANCH  32  33
ENDBRANCH  26  32
ENDBRANCH   3  26
TORSDOF 11
ENDMDL
MODEL 5
REMARK VINA RESULT:      -5.9      5.697     10.540
REMARK  Name = 195102
REMARK  11 active torsions:
REMARK  status: ('A' for Active; 'I' for Inactive)
REMARK    1  A    between atoms: N_3  and  C_26
REMARK    2  A    between atoms: C_4  and  N_9
REMARK    3  A    between atoms: C_10  and  C_12
REMARK    4  A    between atoms: C_12  and  N_14
REMARK    5  A    between atoms: C_12  and  C_22
REMARK    6  A    between atoms: C_15  and  O_17
REMARK    7  A    between atoms: O_17  and  C_18
REMARK    8  A    between atoms: C_22  and  C_23
REMARK    9  A    between atoms: C_26  and  C_29
REMARK   10  A    between atoms: C_26  and  C_32
REMARK   11  A    between atoms: C_32  and  C_33
REMARK                            x       y       z     vdW  Elec       q    Type
REMARK                         _______ _______ _______ _____ _____    ______ ____
ROOT
ATOM      1  O   UNL     1     -33.185  24.325   4.468  0.00  0.00    -0.273 OA
ATOM      2  O   UNL     1     -37.618  25.448   3.808  0.00  0.00    -0.274 OA
ATOM      3  N   UNL     1     -35.441  24.600   3.921  0.00  0.00    -0.221 N 
ATOM      4  C   UNL     1     -34.571  25.944   5.613  0.00  0.00    +0.158 C 
ATOM      5  C   UNL     1     -36.060  26.228   5.474  0.00  0.00    +0.115 C 
ATOM      6  C   UNL     1     -34.283  24.840   4.630  0.00  0.00    +0.250 C 
ATOM      7  C   UNL     1     -36.499  25.401   4.298  0.00  0.00    +0.234 C 
ENDROOT
BRANCH   4   9
ATOM      8  O   UNL     1     -32.254  26.943   7.014  0.00  0.00    -0.273 OA
ATOM      9  N   UNL     1     -33.745  27.058   5.238  0.00  0.00    -0.297 N 
ATOM     10  C   UNL     1     -32.643  27.471   5.975  0.00  0.00    +0.241 C 
ATOM     11  H   UNL     1     -33.971  27.553   4.418  0.00  0.00    +0.150 HD
BRANCH  10  12
ATOM     12  C   UNL     1     -31.987  28.711   5.377  0.00  0.00    +0.151 C 
BRANCH  12  14
ATOM     13  O   UNL     1     -31.760  29.975   2.772  0.00  0.00    -0.226 OA
ATOM     14  N   UNL     1     -33.006  29.421   4.650  0.00  0.00    -0.264 N 
ATOM     15  C   UNL     1     -32.809  29.995   3.408  0.00  0.00    +0.402 C 
ATOM     16  H   UNL     1     -33.896  29.503   5.062  0.00  0.00    +0.153 HD
BRANCH  15  17
ATOM     17  O   UNL     1     -33.963  30.593   2.985  0.00  0.00    -0.442 OA
BRANCH  17  18
ATOM     18  C   UNL     1     -34.682  29.902   1.957  0.00  0.00    +0.138 C 
ATOM     19  C   UNL     1     -33.879  29.987   0.660  0.00  0.00    +0.044 C 
ATOM     20  C   UNL     1     -36.034  30.593   1.798  0.00  0.00    +0.044 C 
ATOM     21  C   UNL     1     -34.869  28.448   2.388  0.00  0.00    +0.044 C 
ENDBRANCH  17  18
ENDBRANCH  15  17
ENDBRANCH  12  14
BRANCH  12  22
ATOM     22  C   UNL     1     -31.360  29.567   6.485  0.00  0.00    +0.029 C 
BRANCH  22  23
ATOM     23  C   UNL     1     -29.826  29.704   6.408  0.00  0.00    +0.002 C 
ATOM     24  C   UNL     1     -29.139  28.376   6.089  0.00  0.00    +0.000 C 
ATOM     25  C   UNL     1     -29.454  30.745   5.349  0.00  0.00    +0.000 C 
ENDBRANCH  22  23
ENDBRANCH  12  22
ENDBRANCH  10  12
ENDBRANCH   4   9
BRANCH   3  26
ATOM     26  C   UNL     1     -35.525  23.640   2.839  0.00  0.00    +0.162 C 
BRANCH  26  29
ATOM     27  O   UNL     1     -35.558  21.545   4.072  0.00  0.00    -0.274 OA
ATOM     28  N   UNL     1     -37.516  22.300   3.138  0.00  0.00    -0.327 N 
ATOM     29  C   UNL     1     -36.165  22.381   3.406  0.00  0.00    +0.238 C 
ATOM     30  H   UNL     1     -38.037  21.527   3.456  0.00  0.00    +0.145 HD
ATOM     31  H   UNL     1     -37.959  23.016   2.627  0.00  0.00    +0.145 HD
ENDBRANCH  26  29
BRANCH  26  32
ATOM     32  C   UNL     1     -36.344  24.168   1.656  0.00  0.00    +0.056 C 
BRANCH  32  33
ATOM     33  C   UNL     1     -35.535  25.046   0.732  0.00  0.00    -0.020 C 
ATOM     34  C   UNL     1     -34.148  24.911   0.679  0.00  0.00    -0.004 C 
ATOM     35  C   UNL     1     -36.175  25.992  -0.069  0.00  0.00    -0.004 C 
ATOM     36  C   UNL     1     -33.400  25.722  -0.174  0.00  0.00    -0.000 C 
ATOM     37  C   UNL     1     -35.427  26.803  -0.922  0.00  0.00    -0.000 C 
ATOM     38  C   UNL     1     -34.040  26.668  -0.975  0.00  0.00    -0.000 C 
ENDBRANCH  32  33
ENDBRANCH  26  32
ENDBRANCH   3  26
TORSDOF 11
ENDMDL
MODEL 6
REMARK VINA RESULT:      -5.9      5.747     10.434
REMARK  Name = 195102
REMARK  11 active torsions:
REMARK  status: ('A' for Active; 'I' for Inactive)
REMARK    1  A    between atoms: N_3  and  C_26
REMARK    2  A    between atoms: C_4  and  N_9
REMARK    3  A    between atoms: C_10  and  C_12
REMARK    4  A    between atoms: C_12  and  N_14
REMARK    5  A    between atoms: C_12  and  C_22
REMARK    6  A    between atoms: C_15  and  O_17
REMARK    7  A    between atoms: O_17  and  C_18
REMARK    8  A    between atoms: C_22  and  C_23
REMARK    9  A    between atoms: C_26  and  C_29
REMARK   10  A    between atoms: C_26  and  C_32
REMARK   11  A    between atoms: C_32  and  C_33
REMARK                            x       y       z     vdW  Elec       q    Type
REMARK                         _______ _______ _______ _____ _____    ______ ____
ROOT
ATOM      1  O   UNL     1     -39.364  26.227   2.676  0.00  0.00    -0.273 OA
ATOM      2  O   UNL     1     -36.481  23.402   0.429  0.00  0.00    -0.274 OA
ATOM      3  N   UNL     1     -38.021  24.543   1.770  0.00  0.00    -0.221 N 
ATOM      4  C   UNL     1     -38.163  26.554   0.602  0.00  0.00    +0.158 C 
ATOM      5  C   UNL     1     -37.308  25.579  -0.196  0.00  0.00    +0.115 C 
ATOM      6  C   UNL     1     -38.631  25.779   1.805  0.00  0.00    +0.250 C 
ATOM      7  C   UNL     1     -37.190  24.365   0.684  0.00  0.00    +0.234 C 
ENDROOT
BRANCH   4   9
ATOM      8  O   UNL     1     -37.549  28.993  -0.815  0.00  0.00    -0.273 OA
ATOM      9  N   UNL     1     -37.423  27.680   1.097  0.00  0.00    -0.297 N 
ATOM     10  C   UNL     1     -37.173  28.819   0.342  0.00  0.00    +0.241 C 
ATOM     11  H   UNL     1     -37.074  27.644   2.017  0.00  0.00    +0.150 HD
BRANCH  10  12
ATOM     12  C   UNL     1     -36.317  29.830   1.098  0.00  0.00    +0.151 C 
BRANCH  12  14
ATOM     13  O   UNL     1     -35.003  30.641   3.558  0.00  0.00    -0.226 OA
ATOM     14  N   UNL     1     -35.366  29.081   1.878  0.00  0.00    -0.264 N 
ATOM     15  C   UNL     1     -34.788  29.549   3.043  0.00  0.00    +0.402 C 
ATOM     16  H   UNL     1     -35.114  28.184   1.563  0.00  0.00    +0.153 HD
BRANCH  15  17
ATOM     17  O   UNL     1     -33.933  28.608   3.545  0.00  0.00    -0.442 OA
BRANCH  17  18
ATOM     18  C   UNL     1     -32.538  28.923   3.457  0.00  0.00    +0.138 C 
ATOM     19  C   UNL     1     -32.091  29.533   4.784  0.00  0.00    +0.044 C 
ATOM     20  C   UNL     1     -32.366  29.926   2.318  0.00  0.00    +0.044 C 
ATOM     21  C   UNL     1     -31.768  27.637   3.161  0.00  0.00    +0.044 C 
ENDBRANCH  17  18
ENDBRANCH  15  17
ENDBRANCH  12  14
BRANCH  12  22
ATOM     22  C   UNL     1     -35.634  30.788   0.114  0.00  0.00    +0.029 C 
BRANCH  22  23
ATOM     23  C   UNL     1     -35.916  32.283   0.365  0.00  0.00    +0.002 C 
ATOM     24  C   UNL     1     -37.067  32.501   1.348  0.00  0.00    +0.000 C 
ATOM     25  C   UNL     1     -34.651  32.965   0.893  0.00  0.00    +0.000 C 
ENDBRANCH  22  23
ENDBRANCH  12  22
ENDBRANCH  10  12
ENDBRANCH   4   9
BRANCH   3  26
ATOM     26  C   UNL     1     -38.187  23.545   2.808  0.00  0.00    +0.162 C 
BRANCH  26  29
ATOM     27  O   UNL     1     -40.193  22.576   1.836  0.00  0.00    -0.274 OA
ATOM     28  N   UNL     1     -38.351  21.234   2.119  0.00  0.00    -0.327 N 
ATOM     29  C   UNL     1     -39.036  22.426   2.221  0.00  0.00    +0.238 C 
ATOM     30  H   UNL     1     -38.800  20.437   1.752  0.00  0.00    +0.145 HD
ATOM     31  H   UNL     1     -37.412  21.178   2.412  0.00  0.00    +0.145 HD
ENDBRANCH  26  29
BRANCH  26  32
ATOM     32  C   UNL     1     -36.845  22.994   3.303  0.00  0.00    +0.056 C 
BRANCH  32  33
ATOM     33  C   UNL     1     -36.045  24.014   4.075  0.00  0.00    -0.020 C 
ATOM     34  C   UNL     1     -36.697  24.957   4.870  0.00  0.00    -0.004 C 
ATOM     35  C   UNL     1     -34.652  24.013   3.996  0.00  0.00    -0.004 C 
ATOM     36  C   UNL     1     -35.958  25.900   5.583  0.00  0.00    -0.000 C 
ATOM     37  C   UNL     1     -33.912  24.956   4.709  0.00  0.00    -0.000 C 
ATOM     38  C   UNL     1     -34.565  25.899   5.504  0.00  0.00    -0.000 C 
ENDBRANCH  32  33
ENDBRANCH  26  32
ENDBRANCH   3  26
TORSDOF 11
ENDMDL
MODEL 7
REMARK VINA RESULT:      -5.9      4.110     10.242
REMARK  Name = 195102
REMARK  11 active torsions:
REMARK  status: ('A' for Active; 'I' for Inactive)
REMARK    1  A    between atoms: N_3  and  C_26
REMARK    2  A    between atoms: C_4  and  N_9
REMARK    3  A    between atoms: C_10  and  C_12
REMARK    4  A    between atoms: C_12  and  N_14
REMARK    5  A    between atoms: C_12  and  C_22
REMARK    6  A    between atoms: C_15  and  O_17
REMARK    7  A    between atoms: O_17  and  C_18
REMARK    8  A    between atoms: C_22  and  C_23
REMARK    9  A    between atoms: C_26  and  C_29
REMARK   10  A    between atoms: C_26  and  C_32
REMARK   11  A    between atoms: C_32  and  C_33
REMARK                            x       y       z     vdW  Elec       q    Type
REMARK                         _______ _______ _______ _____ _____    ______ ____
ROOT
ATOM      1  O   UNL     1     -35.121  23.125   4.055  0.00  0.00    -0.273 OA
ATOM      2  O   UNL     1     -37.930  23.614   0.419  0.00  0.00    -0.274 OA
ATOM      3  N   UNL     1     -36.493  23.017   2.166  0.00  0.00    -0.221 N 
ATOM      4  C   UNL     1     -36.511  24.993   3.399  0.00  0.00    +0.158 C 
ATOM      5  C   UNL     1     -37.524  25.108   2.268  0.00  0.00    +0.115 C 
ATOM      6  C   UNL     1     -35.956  23.597   3.295  0.00  0.00    +0.250 C 
ATOM      7  C   UNL     1     -37.358  23.840   1.477  0.00  0.00    +0.234 C 
ENDROOT
BRANCH   4   9
ATOM      8  O   UNL     1     -35.142  26.414   5.505  0.00  0.00    -0.273 OA
ATOM      9  N   UNL     1     -35.401  25.892   3.257  0.00  0.00    -0.297 N 
ATOM     10  C   UNL     1     -34.800  26.536   4.331  0.00  0.00    +0.241 C 
ATOM     11  H   UNL     1     -35.048  26.061   2.354  0.00  0.00    +0.150 HD
BRANCH  10  12
ATOM     12  C   UNL     1     -33.683  27.474   3.884  0.00  0.00    +0.151 C 
BRANCH  12  14
ATOM     13  O   UNL     1     -32.352  29.507   5.476  0.00  0.00    -0.226 OA
ATOM     14  N   UNL     1     -32.589  27.298   4.803  0.00  0.00    -0.264 N 
ATOM     15  C   UNL     1     -32.013  28.328   5.522  0.00  0.00    +0.402 C 
ATOM     16  H   UNL     1     -32.229  26.390   4.925  0.00  0.00    +0.153 HD
BRANCH  15  17
ATOM     17  O   UNL     1     -31.003  27.841   6.302  0.00  0.00    -0.442 OA
BRANCH  17  18
ATOM     18  C   UNL     1     -29.700  28.376   6.040  0.00  0.00    +0.138 C 
ATOM     19  C   UNL     1     -29.462  28.365   4.531  0.00  0.00    +0.044 C 
ATOM     20  C   UNL     1     -28.685  27.483   6.752  0.00  0.00    +0.044 C 
ATOM     21  C   UNL     1     -29.641  29.800   6.591  0.00  0.00    +0.044 C 
ENDBRANCH  17  18
ENDBRANCH  15  17
ENDBRANCH  12  14
BRANCH  12  22
ATOM     22  C   UNL     1     -33.281  27.168   2.436  0.00  0.00    +0.029 C 
BRANCH  22  23
ATOM     23  C   UNL     1     -32.984  28.409   1.570  0.00  0.00    +0.002 C 
ATOM     24  C   UNL     1     -33.578  29.687   2.164  0.00  0.00    +0.000 C 
ATOM     25  C   UNL     1     -31.471  28.572   1.404  0.00  0.00    +0.000 C 
ENDBRANCH  22  23
ENDBRANCH  12  22
ENDBRANCH  10  12
ENDBRANCH   4   9
BRANCH   3  26
ATOM     26  C   UNL     1     -36.136  21.689   1.708  0.00  0.00    +0.162 C 
BRANCH  26  29
ATOM     27  O   UNL     1     -37.608  20.394   0.271  0.00  0.00    -0.274 OA
ATOM     28  N   UNL     1     -38.370  21.021   2.345  0.00  0.00    -0.327 N 
ATOM     29  C   UNL     1     -37.431  20.980   1.337  0.00  0.00    +0.238 C 
ATOM     30  H   UNL     1     -39.249  20.594   2.218  0.00  0.00    +0.145 HD
ATOM     31  H   UNL     1     -38.163  21.477   3.193  0.00  0.00    +0.145 HD
ENDBRANCH  26  29
BRANCH  26  32
ATOM     32  C   UNL     1     -35.184  21.724   0.508  0.00  0.00    +0.056 C 
BRANCH  32  33
ATOM     33  C   UNL     1     -34.057  20.727   0.627  0.00  0.00    -0.020 C 
ATOM     34  C   UNL     1     -34.207  19.598   1.432  0.00  0.00    -0.004 C 
ATOM     35  C   UNL     1     -32.866  20.934  -0.068  0.00  0.00    -0.004 C 
ATOM     36  C   UNL     1     -33.167  18.676   1.543  0.00  0.00    -0.000 C 
ATOM     37  C   UNL     1     -31.825  20.013   0.042  0.00  0.00    -0.000 C 
ATOM     38  C   UNL     1     -31.975  18.883   0.847  0.00  0.00    -0.000 C 
ENDBRANCH  32  33
ENDBRANCH  26  32
ENDBRANCH   3  26
TORSDOF 11
ENDMDL
MODEL 8
REMARK VINA RESULT:      -5.8      3.668      9.557
REMARK  Name = 195102
REMARK  11 active torsions:
REMARK  status: ('A' for Active; 'I' for Inactive)
REMARK    1  A    between atoms: N_3  and  C_26
REMARK    2  A    between atoms: C_4  and  N_9
REMARK    3  A    between atoms: C_10  and  C_12
REMARK    4  A    between atoms: C_12  and  N_14
REMARK    5  A    between atoms: C_12  and  C_22
REMARK    6  A    between atoms: C_15  and  O_17
REMARK    7  A    between atoms: O_17  and  C_18
REMARK    8  A    between atoms: C_22  and  C_23
REMARK    9  A    between atoms: C_26  and  C_29
REMARK   10  A    between atoms: C_26  and  C_32
REMARK   11  A    between atoms: C_32  and  C_33
REMARK                            x       y       z     vdW  Elec       q    Type
REMARK                         _______ _______ _______ _____ _____    ______ ____
ROOT
ATOM      1  O   UNL     1     -34.913  23.030   4.022  0.00  0.00    -0.273 OA
ATOM      2  O   UNL     1     -35.674  23.661  -0.492  0.00  0.00    -0.274 OA
ATOM      3  N   UNL     1     -35.329  22.988   1.722  0.00  0.00    -0.221 N 
ATOM      4  C   UNL     1     -35.344  25.063   2.782  0.00  0.00    +0.158 C 
ATOM      5  C   UNL     1     -35.711  25.255   1.318  0.00  0.00    +0.115 C 
ATOM      6  C   UNL     1     -35.188  23.576   2.962  0.00  0.00    +0.250 C 
ATOM      7  C   UNL     1     -35.568  23.889   0.705  0.00  0.00    +0.234 C 
ENDROOT
BRANCH   4   9
ATOM      8  O   UNL     1     -34.895  27.730   3.790  0.00  0.00    -0.273 OA
ATOM      9  N   UNL     1     -34.084  25.656   3.132  0.00  0.00    -0.297 N 
ATOM     10  C   UNL     1     -33.960  26.953   3.612  0.00  0.00    +0.241 C 
ATOM     11  H   UNL     1     -33.267  25.117   3.026  0.00  0.00    +0.150 HD
BRANCH  10  12
ATOM     12  C   UNL     1     -32.503  27.339   3.847  0.00  0.00    +0.151 C 
BRANCH  12  14
ATOM     13  O   UNL     1     -30.232  25.975   2.657  0.00  0.00    -0.226 OA
ATOM     14  N   UNL     1     -31.913  27.572   2.554  0.00  0.00    -0.264 N 
ATOM     15  C   UNL     1     -30.826  26.871   2.067  0.00  0.00    +0.402 C 
ATOM     16  H   UNL     1     -32.306  28.271   1.985  0.00  0.00    +0.153 HD
BRANCH  15  17
ATOM     17  O   UNL     1     -30.506  27.324   0.818  0.00  0.00    -0.442 OA
BRANCH  17  18
ATOM     18  C   UNL     1     -30.967  26.519  -0.274  0.00  0.00    +0.138 C 
ATOM     19  C   UNL     1     -31.945  25.478   0.268  0.00  0.00    +0.044 C 
ATOM     20  C   UNL     1     -29.747  25.841  -0.892  0.00  0.00    +0.044 C 
ATOM     21  C   UNL     1     -31.650  27.429  -1.294  0.00  0.00    +0.044 C 
ENDBRANCH  17  18
ENDBRANCH  15  17
ENDBRANCH  12  14
BRANCH  12  22
ATOM     22  C   UNL     1     -32.421  28.574   4.754  0.00  0.00    +0.029 C 
BRANCH  22  23
ATOM     23  C   UNL     1     -31.780  28.322   6.134  0.00  0.00    +0.002 C 
ATOM     24  C   UNL     1     -31.651  29.603   6.958  0.00  0.00    +0.000 C 
ATOM     25  C   UNL     1     -32.610  27.293   6.907  0.00  0.00    +0.000 C 
ENDBRANCH  22  23
ENDBRANCH  12  22
ENDBRANCH  10  12
ENDBRANCH   4   9
BRANCH   3  26
ATOM     26  C   UNL     1     -35.177  21.565   1.496  0.00  0.00    +0.162 C 
BRANCH  26  29
ATOM     27  O   UNL     1     -37.199  20.914   0.314  0.00  0.00    -0.274 OA
ATOM     28  N   UNL     1     -37.056  20.483   2.566  0.00  0.00    -0.327 N 
ATOM     29  C   UNL     1     -36.577  20.980   1.372  0.00  0.00    +0.238 C 
ATOM     30  H   UNL     1     -37.954  20.079   2.607  0.00  0.00    +0.145 HD
ATOM     31  H   UNL     1     -36.501  20.532   3.378  0.00  0.00    +0.145 HD
ENDBRANCH  26  29
BRANCH  26  32
ATOM     32  C   UNL     1     -34.358  21.261   0.236  0.00  0.00    +0.056 C 
BRANCH  32  33
ATOM     33  C   UNL     1     -33.291  20.220   0.472  0.00  0.00    -0.020 C 
ATOM     34  C   UNL     1     -33.570  19.098   1.251  0.00  0.00    -0.004 C 
ATOM     35  C   UNL     1     -32.025  20.381  -0.091  0.00  0.00    -0.004 C 
ATOM     36  C   UNL     1     -32.584  18.136   1.469  0.00  0.00    -0.000 C 
ATOM     37  C   UNL     1     -31.038  19.419   0.126  0.00  0.00    -0.000 C 
ATOM     38  C   UNL     1     -31.318  18.297   0.906  0.00  0.00    -0.000 C 
ENDBRANCH  32  33
ENDBRANCH  26  32
ENDBRANCH   3  26
TORSDOF 11
ENDMDL
MODEL 9
REMARK VINA RESULT:      -5.8      2.700      7.641
REMARK  Name = 195102
REMARK  11 active torsions:
REMARK  status: ('A' for Active; 'I' for Inactive)
REMARK    1  A    between atoms: N_3  and  C_26
REMARK    2  A    between atoms: C_4  and  N_9
REMARK    3  A    between atoms: C_10  and  C_12
REMARK    4  A    between atoms: C_12  and  N_14
REMARK    5  A    between atoms: C_12  and  C_22
REMARK    6  A    between atoms: C_15  and  O_17
REMARK    7  A    between atoms: O_17  and  C_18
REMARK    8  A    between atoms: C_22  and  C_23
REMARK    9  A    between atoms: C_26  and  C_29
REMARK   10  A    between atoms: C_26  and  C_32
REMARK   11  A    between atoms: C_32  and  C_33
REMARK                            x       y       z     vdW  Elec       q    Type
REMARK                         _______ _______ _______ _____ _____    ______ ____
ROOT
ATOM      1  O   UNL     1     -40.150  21.126   2.083  0.00  0.00    -0.273 OA
ATOM      2  O   UNL     1     -39.920  23.158  -2.060  0.00  0.00    -0.274 OA
ATOM      3  N   UNL     1     -40.269  21.900  -0.120  0.00  0.00    -0.221 N 
ATOM      4  C   UNL     1     -39.169  23.240   1.435  0.00  0.00    +0.158 C 
ATOM      5  C   UNL     1     -39.198  23.961   0.095  0.00  0.00    +0.115 C 
ATOM      6  C   UNL     1     -39.939  21.965   1.217  0.00  0.00    +0.250 C 
ATOM      7  C   UNL     1     -39.824  22.979  -0.854  0.00  0.00    +0.234 C 
ENDROOT
BRANCH   4   9
ATOM      8  O   UNL     1     -37.785  24.058   3.833  0.00  0.00    -0.273 OA
ATOM      9  N   UNL     1     -37.846  22.860   1.844  0.00  0.00    -0.297 N 
ATOM     10  C   UNL     1     -37.255  23.303   3.021  0.00  0.00    +0.241 C 
ATOM     11  H   UNL     1     -37.331  22.255   1.262  0.00  0.00    +0.150 HD
BRANCH  10  12
ATOM     12  C   UNL     1     -35.828  22.788   3.174  0.00  0.00    +0.151 C 
BRANCH  12  14
ATOM     13  O   UNL     1     -36.161  20.007   2.403  0.00  0.00    -0.226 OA
ATOM     14  N   UNL     1     -35.464  22.169   1.925  0.00  0.00    -0.264 N 
ATOM     15  C   UNL     1     -35.660  20.830   1.643  0.00  0.00    +0.402 C 
ATOM     16  H   UNL     1     -35.052  22.733   1.232  0.00  0.00    +0.153 HD
BRANCH  15  17
ATOM     17  O   UNL     1     -35.213  20.552   0.382  0.00  0.00    -0.442 OA
BRANCH  17  18
ATOM     18  C   UNL     1     -33.930  19.919   0.302  0.00  0.00    +0.138 C 
ATOM     19  C   UNL     1     -33.945  18.935  -0.867  0.00  0.00    +0.044 C 
ATOM     20  C   UNL     1     -33.698  19.184   1.620  0.00  0.00    +0.044 C 
ATOM     21  C   UNL     1     -32.868  20.997   0.093  0.00  0.00    +0.044 C 
ENDBRANCH  17  18
ENDBRANCH  15  17
ENDBRANCH  12  14
BRANCH  12  22
ATOM     22  C   UNL     1     -34.885  23.939   3.548  0.00  0.00    +0.029 C 
BRANCH  22  23
ATOM     23  C   UNL     1     -34.477  23.984   5.034  0.00  0.00    +0.002 C 
ATOM     24  C   UNL     1     -34.873  25.299   5.707  0.00  0.00    +0.000 C 
ATOM     25  C   UNL     1     -35.115  22.809   5.780  0.00  0.00    +0.000 C 
ENDBRANCH  22  23
ENDBRANCH  12  22
ENDBRANCH  10  12
ENDBRANCH   4   9
BRANCH   3  26
ATOM     26  C   UNL     1     -40.963  20.774  -0.713  0.00  0.00    +0.162 C 
BRANCH  26  29
ATOM     27  O   UNL     1     -43.165  21.793  -0.564  0.00  0.00    -0.274 OA
ATOM     28  N   UNL     1     -42.361  21.213  -2.636  0.00  0.00    -0.327 N 
ATOM     29  C   UNL     1     -42.282  21.300  -1.262  0.00  0.00    +0.238 C 
ATOM     30  H   UNL     1     -43.170  21.524  -3.104  0.00  0.00    +0.145 HD
ATOM     31  H   UNL     1     -41.608  20.839  -3.150  0.00  0.00    +0.145 HD
ENDBRANCH  26  29
BRANCH  26  32
ATOM     32  C   UNL     1     -40.148  20.110  -1.828  0.00  0.00    +0.056 C 
BRANCH  32  33
ATOM     33  C   UNL     1     -39.399  18.888  -1.355  0.00  0.00    -0.020 C 
ATOM     34  C   UNL     1     -39.903  17.615  -1.620  0.00  0.00    -0.004 C 
ATOM     35  C   UNL     1     -38.202  19.031  -0.653  0.00  0.00    -0.004 C 
ATOM     36  C   UNL     1     -39.213  16.485  -1.184  0.00  0.00    -0.000 C 
ATOM     37  C   UNL     1     -37.511  17.902  -0.216  0.00  0.00    -0.000 C 
ATOM     38  C   UNL     1     -38.016  16.629  -0.481  0.00  0.00    -0.000 C 
ENDBRANCH  32  33
ENDBRANCH  26  32
ENDBRANCH   3  26
TORSDOF 11
ENDMDL
