MODEL 1
REMARK VINA RESULT:      -6.2      0.000      0.000
REMARK  Name = 5311227
REMARK  14 active torsions:
REMARK  status: ('A' for Active; 'I' for Inactive)
REMARK    1  A    between atoms: C_2  and  C_21
REMARK    2  A    between atoms: C_3  and  C_9
REMARK    3  A    between atoms: C_4  and  O_7
REMARK    4  A    between atoms: C_10  and  C_11
REMARK    5  A    between atoms: C_11  and  O_12
REMARK    6  A    between atoms: C_11  and  C_14
REMARK    7  A    between atoms: C_14  and  C_15
REMARK    8  A    between atoms: C_15  and  C_17
REMARK    9  A    between atoms: C_17  and  C_18
REMARK   10  A    between atoms: C_18  and  C_19
REMARK   11  A    between atoms: C_21  and  C_23
REMARK   12  A    between atoms: C_23  and  C_24
REMARK   13  A    between atoms: C_27  and  C_31
REMARK   14  A    between atoms: C_31  and  O_32
REMARK                            x       y       z     vdW  Elec       q    Type
REMARK                         _______ _______ _______ _____ _____    ______ ____
ROOT
ATOM      1  O   UNL     1     -35.125  27.070   4.601  0.00  0.00    -0.296 OA
ATOM      2  C   UNL     1     -36.013  25.042   3.607  0.00  0.00    +0.071 C 
ATOM      3  C   UNL     1     -36.279  23.737   4.374  0.00  0.00    +0.056 C 
ATOM      4  C   UNL     1     -35.051  23.590   5.282  0.00  0.00    +0.122 C 
ATOM      5  C   UNL     1     -34.777  25.004   5.788  0.00  0.00    +0.094 C 
ATOM      6  C   UNL     1     -35.290  25.858   4.659  0.00  0.00    +0.154 C 
ENDROOT
BRANCH   4   7
ATOM      7  O   UNL     1     -35.348  22.722   6.365  0.00  0.00    -0.384 OA
ATOM      8  H   UNL     1     -34.958  23.075   7.180  0.00  0.00    +0.210 HD
ENDBRANCH   4   7
BRANCH   3   9
ATOM      9  C   UNL     1     -36.475  22.566   3.465  0.00  0.00    -0.026 C 
ATOM     10  C   UNL     1     -35.522  21.658   3.209  0.00  0.00    -0.002 C 
BRANCH  10  11
ATOM     11  C   UNL     1     -35.630  20.446   2.316  0.00  0.00    +0.132 C 
BRANCH  11  12
ATOM     12  O   UNL     1     -36.857  19.785   2.626  0.00  0.00    -0.380 OA
ATOM     13  H   UNL     1     -36.835  18.881   2.277  0.00  0.00    +0.211 HD
ENDBRANCH  11  12
BRANCH  11  14
ATOM     14  C   UNL     1     -35.563  20.695   0.798  0.00  0.00    +0.034 C 
BRANCH  14  15
ATOM     15  C   UNL     1     -34.165  20.490   0.161  0.00  0.00    +0.003 C 
ATOM     16  C   UNL     1     -33.505  21.861  -0.030  0.00  0.00    +0.000 C 
BRANCH  15  17
ATOM     17  C   UNL     1     -33.286  19.544   1.006  0.00  0.00    +0.000 C 
BRANCH  17  18
ATOM     18  C   UNL     1     -31.831  19.466   0.530  0.00  0.00    +0.000 C 
BRANCH  18  19
ATOM     19  C   UNL     1     -31.223  18.069   0.673  0.00  0.00    +0.000 C 
ATOM     20  C   UNL     1     -32.187  16.948   0.313  0.00  0.00    +0.000 C 
ENDBRANCH  18  19
ENDBRANCH  17  18
ENDBRANCH  15  17
ENDBRANCH  14  15
ENDBRANCH  11  14
ENDBRANCH  10  11
ENDBRANCH   3   9
BRANCH   2  21
ATOM     21  C   UNL     1     -37.280  25.720   3.114  0.00  0.00    +0.072 C 
BRANCH  21  23
ATOM     22  O   UNL     1     -36.563  25.409   0.827  0.00  0.00    -0.296 OA
ATOM     23  C   UNL     1     -37.492  25.546   1.621  0.00  0.00    +0.151 C 
BRANCH  23  24
ATOM     24  C   UNL     1     -38.918  25.553   1.152  0.00  0.00    +0.058 C 
ATOM     25  C   UNL     1     -39.053  24.856  -0.203  0.00  0.00    +0.008 C 
ATOM     26  C   UNL     1     -39.826  24.944   2.223  0.00  0.00    +0.008 C 
ATOM     27  C   UNL     1     -39.956  22.780   0.925  0.00  0.00    +0.099 C 
ATOM     28  C   UNL     1     -38.982  23.332  -0.114  0.00  0.00    +0.012 C 
ATOM     29  C   UNL     1     -39.732  23.421   2.293  0.00  0.00    +0.012 C 
BRANCH  27  31
ATOM     30  O   UNL     1     -39.953  20.498   0.131  0.00  0.00    -0.250 OA
ATOM     31  C   UNL     1     -39.789  21.296   1.041  0.00  0.00    +0.313 C 
BRANCH  31  32
ATOM     32  O   UNL     1     -39.431  20.952   2.303  0.00  0.00    -0.480 OA
ATOM     33  H   UNL     1     -38.631  20.489   2.453  0.00  0.00    +0.295 HD
ENDBRANCH  31  32
ENDBRANCH  27  31
ENDBRANCH  23  24
ENDBRANCH  21  23
ENDBRANCH   2  21
TORSDOF 14
ENDMDL
MODEL 2
REMARK VINA RESULT:      -6.2      1.301      1.622
REMARK  Name = 5311227
REMARK  14 active torsions:
REMARK  status: ('A' for Active; 'I' for Inactive)
REMARK    1  A    between atoms: C_2  and  C_21
REMARK    2  A    between atoms: C_3  and  C_9
REMARK    3  A    between atoms: C_4  and  O_7
REMARK    4  A    between atoms: C_10  and  C_11
REMARK    5  A    between atoms: C_11  and  O_12
REMARK    6  A    between atoms: C_11  and  C_14
REMARK    7  A    between atoms: C_14  and  C_15
REMARK    8  A    between atoms: C_15  and  C_17
REMARK    9  A    between atoms: C_17  and  C_18
REMARK   10  A    between atoms: C_18  and  C_19
REMARK   11  A    between atoms: C_21  and  C_23
REMARK   12  A    between atoms: C_23  and  C_24
REMARK   13  A    between atoms: C_27  and  C_31
REMARK   14  A    between atoms: C_31  and  O_32
REMARK                            x       y       z     vdW  Elec       q    Type
REMARK                         _______ _______ _______ _____ _____    ______ ____
ROOT
ATOM      1  O   UNL     1     -35.616  25.272   5.556  0.00  0.00    -0.296 OA
ATOM      2  C   UNL     1     -35.547  23.570   3.827  0.00  0.00    +0.071 C 
ATOM      3  C   UNL     1     -35.792  22.072   4.066  0.00  0.00    +0.056 C 
ATOM      4  C   UNL     1     -35.030  21.779   5.365  0.00  0.00    +0.122 C 
ATOM      5  C   UNL     1     -35.309  22.988   6.255  0.00  0.00    +0.094 C 
ATOM      6  C   UNL     1     -35.509  24.091   5.250  0.00  0.00    +0.154 C 
ENDROOT
BRANCH   4   7
ATOM      7  O   UNL     1     -35.528  20.593   5.965  0.00  0.00    -0.384 OA
ATOM      8  H   UNL     1     -35.477  19.862   5.330  0.00  0.00    +0.210 HD
ENDBRANCH   4   7
BRANCH   3   9
ATOM      9  C   UNL     1     -35.338  21.225   2.920  0.00  0.00    -0.026 C 
ATOM     10  C   UNL     1     -36.122  20.327   2.305  0.00  0.00    -0.002 C 
BRANCH  10  11
ATOM     11  C   UNL     1     -35.755  19.437   1.142  0.00  0.00    +0.132 C 
BRANCH  11  12
ATOM     12  O   UNL     1     -36.952  18.808   0.683  0.00  0.00    -0.380 OA
ATOM     13  H   UNL     1     -37.144  18.035   1.236  0.00  0.00    +0.211 HD
ENDBRANCH  11  12
BRANCH  11  14
ATOM     14  C   UNL     1     -35.050  20.110  -0.050  0.00  0.00    +0.034 C 
BRANCH  14  15
ATOM     15  C   UNL     1     -33.511  19.937  -0.083  0.00  0.00    +0.003 C 
ATOM     16  C   UNL     1     -32.861  21.325  -0.141  0.00  0.00    +0.000 C 
BRANCH  15  17
ATOM     17  C   UNL     1     -33.001  19.117   1.121  0.00  0.00    +0.000 C 
BRANCH  17  18
ATOM     18  C   UNL     1     -32.048  17.980   0.734  0.00  0.00    +0.000 C 
BRANCH  18  19
ATOM     19  C   UNL     1     -30.627  18.461   0.433  0.00  0.00    +0.000 C 
ATOM     20  C   UNL     1     -29.546  17.560   1.012  0.00  0.00    +0.000 C 
ENDBRANCH  18  19
ENDBRANCH  17  18
ENDBRANCH  15  17
ENDBRANCH  14  15
ENDBRANCH  11  14
ENDBRANCH  10  11
ENDBRANCH   3   9
BRANCH   2  21
ATOM     21  C   UNL     1     -36.630  24.232   2.993  0.00  0.00    +0.072 C 
BRANCH  21  23
ATOM     22  O   UNL     1     -35.123  24.120   1.107  0.00  0.00    -0.296 OA
ATOM     23  C   UNL     1     -36.263  24.321   1.524  0.00  0.00    +0.151 C 
BRANCH  23  24
ATOM     24  C   UNL     1     -37.379  24.676   0.585  0.00  0.00    +0.058 C 
ATOM     25  C   UNL     1     -37.352  23.788  -0.661  0.00  0.00    +0.008 C 
ATOM     26  C   UNL     1     -38.721  24.624   1.319  0.00  0.00    +0.008 C 
ATOM     27  C   UNL     1     -39.244  22.387   0.265  0.00  0.00    +0.099 C 
ATOM     28  C   UNL     1     -37.874  22.374  -0.412  0.00  0.00    +0.012 C 
ATOM     29  C   UNL     1     -39.217  23.199   1.558  0.00  0.00    +0.012 C 
BRANCH  27  31
ATOM     30  O   UNL     1     -39.448  20.013  -0.134  0.00  0.00    -0.250 OA
ATOM     31  C   UNL     1     -39.675  20.986   0.569  0.00  0.00    +0.313 C 
BRANCH  31  32
ATOM     32  O   UNL     1     -40.359  20.939   1.740  0.00  0.00    -0.480 OA
ATOM     33  H   UNL     1     -41.262  20.689   1.745  0.00  0.00    +0.295 HD
ENDBRANCH  31  32
ENDBRANCH  27  31
ENDBRANCH  23  24
ENDBRANCH  21  23
ENDBRANCH   2  21
TORSDOF 14
ENDMDL
MODEL 3
REMARK VINA RESULT:      -6.0      1.135      2.151
REMARK  Name = 5311227
REMARK  14 active torsions:
REMARK  status: ('A' for Active; 'I' for Inactive)
REMARK    1  A    between atoms: C_2  and  C_21
REMARK    2  A    between atoms: C_3  and  C_9
REMARK    3  A    between atoms: C_4  and  O_7
REMARK    4  A    between atoms: C_10  and  C_11
REMARK    5  A    between atoms: C_11  and  O_12
REMARK    6  A    between atoms: C_11  and  C_14
REMARK    7  A    between atoms: C_14  and  C_15
REMARK    8  A    between atoms: C_15  and  C_17
REMARK    9  A    between atoms: C_17  and  C_18
REMARK   10  A    between atoms: C_18  and  C_19
REMARK   11  A    between atoms: C_21  and  C_23
REMARK   12  A    between atoms: C_23  and  C_24
REMARK   13  A    between atoms: C_27  and  C_31
REMARK   14  A    between atoms: C_31  and  O_32
REMARK                            x       y       z     vdW  Elec       q    Type
REMARK                         _______ _______ _______ _____ _____    ______ ____
ROOT
ATOM      1  O   UNL     1     -34.844  27.474   4.196  0.00  0.00    -0.296 OA
ATOM      2  C   UNL     1     -35.050  25.343   3.051  0.00  0.00    +0.071 C 
ATOM      3  C   UNL     1     -35.633  24.068   3.677  0.00  0.00    +0.056 C 
ATOM      4  C   UNL     1     -35.033  24.046   5.090  0.00  0.00    +0.122 C 
ATOM      5  C   UNL     1     -35.091  25.500   5.553  0.00  0.00    +0.094 C 
ATOM      6  C   UNL     1     -34.983  26.259   4.256  0.00  0.00    +0.154 C 
ENDROOT
BRANCH   4   7
ATOM      7  O   UNL     1     -35.815  23.221   5.939  0.00  0.00    -0.384 OA
ATOM      8  H   UNL     1     -36.145  22.459   5.436  0.00  0.00    +0.210 HD
ENDBRANCH   4   7
BRANCH   3   9
ATOM      9  C   UNL     1     -35.309  22.840   2.888  0.00  0.00    -0.026 C 
ATOM     10  C   UNL     1     -35.790  21.622   3.181  0.00  0.00    -0.002 C 
BRANCH  10  11
ATOM     11  C   UNL     1     -35.525  20.332   2.442  0.00  0.00    +0.132 C 
BRANCH  11  12
ATOM     12  O   UNL     1     -36.732  19.569   2.454  0.00  0.00    -0.380 OA
ATOM     13  H   UNL     1     -36.750  18.979   1.686  0.00  0.00    +0.211 HD
ENDBRANCH  11  12
BRANCH  11  14
ATOM     14  C   UNL     1     -35.023  20.455   0.992  0.00  0.00    +0.034 C 
BRANCH  14  15
ATOM     15  C   UNL     1     -33.484  20.395   0.824  0.00  0.00    +0.003 C 
ATOM     16  C   UNL     1     -33.017  18.955   1.074  0.00  0.00    +0.000 C 
BRANCH  15  17
ATOM     17  C   UNL     1     -33.039  20.908  -0.562  0.00  0.00    +0.000 C 
BRANCH  17  18
ATOM     18  C   UNL     1     -32.216  22.200  -0.505  0.00  0.00    +0.000 C 
BRANCH  18  19
ATOM     19  C   UNL     1     -33.035  23.418  -0.070  0.00  0.00    +0.000 C 
ATOM     20  C   UNL     1     -34.320  23.600  -0.864  0.00  0.00    +0.000 C 
ENDBRANCH  18  19
ENDBRANCH  17  18
ENDBRANCH  15  17
ENDBRANCH  14  15
ENDBRANCH  11  14
ENDBRANCH  10  11
ENDBRANCH   3   9
BRANCH   2  21
ATOM     21  C   UNL     1     -35.909  25.913   1.935  0.00  0.00    +0.072 C 
BRANCH  21  23
ATOM     22  O   UNL     1     -37.848  25.854   3.376  0.00  0.00    -0.296 OA
ATOM     23  C   UNL     1     -37.393  25.817   2.234  0.00  0.00    +0.151 C 
BRANCH  23  24
ATOM     24  C   UNL     1     -38.298  25.668   1.044  0.00  0.00    +0.058 C 
ATOM     25  C   UNL     1     -37.752  24.625   0.067  0.00  0.00    +0.008 C 
ATOM     26  C   UNL     1     -39.724  25.358   1.504  0.00  0.00    +0.008 C 
ATOM     27  C   UNL     1     -39.415  22.919   0.918  0.00  0.00    +0.099 C 
ATOM     28  C   UNL     1     -37.960  23.185   0.535  0.00  0.00    +0.012 C 
ATOM     29  C   UNL     1     -39.903  23.914   1.969  0.00  0.00    +0.012 C 
BRANCH  27  31
ATOM     30  O   UNL     1     -40.379  21.174   2.283  0.00  0.00    -0.250 OA
ATOM     31  C   UNL     1     -39.555  21.527   1.453  0.00  0.00    +0.313 C 
BRANCH  31  32
ATOM     32  O   UNL     1     -38.637  20.704   0.889  0.00  0.00    -0.480 OA
ATOM     33  H   UNL     1     -37.970  21.056   0.334  0.00  0.00    +0.295 HD
ENDBRANCH  31  32
ENDBRANCH  27  31
ENDBRANCH  23  24
ENDBRANCH  21  23
ENDBRANCH   2  21
TORSDOF 14
ENDMDL
MODEL 4
REMARK VINA RESULT:      -5.9      1.508      4.617
REMARK  Name = 5311227
REMARK  14 active torsions:
REMARK  status: ('A' for Active; 'I' for Inactive)
REMARK    1  A    between atoms: C_2  and  C_21
REMARK    2  A    between atoms: C_3  and  C_9
REMARK    3  A    between atoms: C_4  and  O_7
REMARK    4  A    between atoms: C_10  and  C_11
REMARK    5  A    between atoms: C_11  and  O_12
REMARK    6  A    between atoms: C_11  and  C_14
REMARK    7  A    between atoms: C_14  and  C_15
REMARK    8  A    between atoms: C_15  and  C_17
REMARK    9  A    between atoms: C_17  and  C_18
REMARK   10  A    between atoms: C_18  and  C_19
REMARK   11  A    between atoms: C_21  and  C_23
REMARK   12  A    between atoms: C_23  and  C_24
REMARK   13  A    between atoms: C_27  and  C_31
REMARK   14  A    between atoms: C_31  and  O_32
REMARK                            x       y       z     vdW  Elec       q    Type
REMARK                         _______ _______ _______ _____ _____    ______ ____
ROOT
ATOM      1  O   UNL     1     -39.763  26.400   2.078  0.00  0.00    -0.296 OA
ATOM      2  C   UNL     1     -38.534  24.309   2.177  0.00  0.00    +0.071 C 
ATOM      3  C   UNL     1     -38.850  23.069   1.328  0.00  0.00    +0.056 C 
ATOM      4  C   UNL     1     -40.382  22.981   1.364  0.00  0.00    +0.122 C 
ATOM      5  C   UNL     1     -40.853  24.427   1.229  0.00  0.00    +0.094 C 
ATOM      6  C   UNL     1     -39.718  25.197   1.853  0.00  0.00    +0.154 C 
ENDROOT
BRANCH   4   7
ATOM      7  O   UNL     1     -40.851  22.200   0.276  0.00  0.00    -0.384 OA
ATOM      8  H   UNL     1     -40.943  22.761  -0.510  0.00  0.00    +0.210 HD
ENDBRANCH   4   7
BRANCH   3   9
ATOM      9  C   UNL     1     -38.183  21.834   1.843  0.00  0.00    -0.026 C 
ATOM     10  C   UNL     1     -37.262  21.145   1.152  0.00  0.00    -0.002 C 
BRANCH  10  11
ATOM     11  C   UNL     1     -36.533  19.898   1.591  0.00  0.00    +0.132 C 
BRANCH  11  12
ATOM     12  O   UNL     1     -36.863  18.856   0.672  0.00  0.00    -0.380 OA
ATOM     13  H   UNL     1     -36.634  17.998   1.059  0.00  0.00    +0.211 HD
ENDBRANCH  11  12
BRANCH  11  14
ATOM     14  C   UNL     1     -35.002  19.997   1.710  0.00  0.00    +0.034 C 
BRANCH  14  15
ATOM     15  C   UNL     1     -34.233  19.913   0.367  0.00  0.00    +0.003 C 
ATOM     16  C   UNL     1     -33.319  21.139   0.246  0.00  0.00    +0.000 C 
BRANCH  15  17
ATOM     17  C   UNL     1     -33.441  18.594   0.244  0.00  0.00    +0.000 C 
BRANCH  17  18
ATOM     18  C   UNL     1     -32.481  18.340   1.412  0.00  0.00    +0.000 C 
BRANCH  18  19
ATOM     19  C   UNL     1     -31.060  17.995   0.960  0.00  0.00    +0.000 C 
ATOM     20  C   UNL     1     -30.504  18.957  -0.080  0.00  0.00    +0.000 C 
ENDBRANCH  18  19
ENDBRANCH  17  18
ENDBRANCH  15  17
ENDBRANCH  14  15
ENDBRANCH  11  14
ENDBRANCH  10  11
ENDBRANCH   3   9
BRANCH   2  21
ATOM     21  C   UNL     1     -37.207  24.959   1.825  0.00  0.00    +0.072 C 
BRANCH  21  23
ATOM     22  O   UNL     1     -37.077  26.316   3.821  0.00  0.00    -0.296 OA
ATOM     23  C   UNL     1     -36.512  25.559   3.033  0.00  0.00    +0.151 C 
BRANCH  23  24
ATOM     24  C   UNL     1     -35.072  25.177   3.224  0.00  0.00    +0.058 C 
ATOM     25  C   UNL     1     -34.643  25.363   4.681  0.00  0.00    +0.008 C 
ATOM     26  C   UNL     1     -34.834  23.754   2.714  0.00  0.00    +0.008 C 
ATOM     27  C   UNL     1     -34.838  22.873   5.083  0.00  0.00    +0.099 C 
ATOM     28  C   UNL     1     -35.163  24.269   5.612  0.00  0.00    +0.012 C 
ATOM     29  C   UNL     1     -35.366  22.681   3.662  0.00  0.00    +0.012 C 
BRANCH  27  31
ATOM     30  O   UNL     1     -36.082  22.070   6.992  0.00  0.00    -0.250 OA
ATOM     31  C   UNL     1     -35.442  21.835   5.979  0.00  0.00    +0.313 C 
BRANCH  31  32
ATOM     32  O   UNL     1     -35.178  20.589   5.513  0.00  0.00    -0.480 OA
ATOM     33  H   UNL     1     -34.695  20.479   4.718  0.00  0.00    +0.295 HD
ENDBRANCH  31  32
ENDBRANCH  27  31
ENDBRANCH  23  24
ENDBRANCH  21  23
ENDBRANCH   2  21
TORSDOF 14
ENDMDL
MODEL 5
REMARK VINA RESULT:      -5.9      1.211      1.681
REMARK  Name = 5311227
REMARK  14 active torsions:
REMARK  status: ('A' for Active; 'I' for Inactive)
REMARK    1  A    between atoms: C_2  and  C_21
REMARK    2  A    between atoms: C_3  and  C_9
REMARK    3  A    between atoms: C_4  and  O_7
REMARK    4  A    between atoms: C_10  and  C_11
REMARK    5  A    between atoms: C_11  and  O_12
REMARK    6  A    between atoms: C_11  and  C_14
REMARK    7  A    between atoms: C_14  and  C_15
REMARK    8  A    between atoms: C_15  and  C_17
REMARK    9  A    between atoms: C_17  and  C_18
REMARK   10  A    between atoms: C_18  and  C_19
REMARK   11  A    between atoms: C_21  and  C_23
REMARK   12  A    between atoms: C_23  and  C_24
REMARK   13  A    between atoms: C_27  and  C_31
REMARK   14  A    between atoms: C_31  and  O_32
REMARK                            x       y       z     vdW  Elec       q    Type
REMARK                         _______ _______ _______ _____ _____    ______ ____
ROOT
ATOM      1  O   UNL     1     -35.158  27.022   4.531  0.00  0.00    -0.296 OA
ATOM      2  C   UNL     1     -36.079  24.976   3.606  0.00  0.00    +0.071 C 
ATOM      3  C   UNL     1     -36.286  23.675   4.396  0.00  0.00    +0.056 C 
ATOM      4  C   UNL     1     -35.006  23.548   5.234  0.00  0.00    +0.122 C 
ATOM      5  C   UNL     1     -34.718  24.969   5.712  0.00  0.00    +0.094 C 
ATOM      6  C   UNL     1     -35.305  25.809   4.607  0.00  0.00    +0.154 C 
ENDROOT
BRANCH   4   7
ATOM      7  O   UNL     1     -35.230  22.687   6.338  0.00  0.00    -0.384 OA
ATOM      8  H   UNL     1     -35.356  21.779   6.021  0.00  0.00    +0.210 HD
ENDBRANCH   4   7
BRANCH   3   9
ATOM      9  C   UNL     1     -36.521  22.495   3.509  0.00  0.00    -0.026 C 
ATOM     10  C   UNL     1     -35.563  21.620   3.168  0.00  0.00    -0.002 C 
BRANCH  10  11
ATOM     11  C   UNL     1     -35.707  20.402   2.289  0.00  0.00    +0.132 C 
BRANCH  11  12
ATOM     12  O   UNL     1     -36.978  19.813   2.568  0.00  0.00    -0.380 OA
ATOM     13  H   UNL     1     -37.355  20.218   3.364  0.00  0.00    +0.211 HD
ENDBRANCH  11  12
BRANCH  11  14
ATOM     14  C   UNL     1     -35.578  20.624   0.771  0.00  0.00    +0.034 C 
BRANCH  14  15
ATOM     15  C   UNL     1     -34.417  19.853   0.093  0.00  0.00    +0.003 C 
ATOM     16  C   UNL     1     -33.618  19.114   1.175  0.00  0.00    +0.000 C 
BRANCH  15  17
ATOM     17  C   UNL     1     -34.930  18.889  -0.997  0.00  0.00    +0.000 C 
BRANCH  17  18
ATOM     18  C   UNL     1     -34.712  17.408  -0.664  0.00  0.00    +0.000 C 
BRANCH  18  19
ATOM     19  C   UNL     1     -36.012  16.662  -0.355  0.00  0.00    +0.000 C 
ATOM     20  C   UNL     1     -37.254  17.532  -0.475  0.00  0.00    +0.000 C 
ENDBRANCH  18  19
ENDBRANCH  17  18
ENDBRANCH  15  17
ENDBRANCH  14  15
ENDBRANCH  11  14
ENDBRANCH  10  11
ENDBRANCH   3   9
BRANCH   2  21
ATOM     21  C   UNL     1     -37.380  25.636   3.182  0.00  0.00    +0.072 C 
BRANCH  21  23
ATOM     22  O   UNL     1     -36.584  25.809   0.906  0.00  0.00    -0.296 OA
ATOM     23  C   UNL     1     -37.539  25.698   1.674  0.00  0.00    +0.151 C 
BRANCH  23  24
ATOM     24  C   UNL     1     -38.945  25.617   1.154  0.00  0.00    +0.058 C 
ATOM     25  C   UNL     1     -38.999  24.843  -0.165  0.00  0.00    +0.008 C 
ATOM     26  C   UNL     1     -39.867  25.028   2.224  0.00  0.00    +0.008 C 
ATOM     27  C   UNL     1     -39.857  22.793   1.043  0.00  0.00    +0.099 C 
ATOM     28  C   UNL     1     -38.868  23.331   0.011  0.00  0.00    +0.012 C 
ATOM     29  C   UNL     1     -39.713  23.516   2.381  0.00  0.00    +0.012 C 
BRANCH  27  31
ATOM     30  O   UNL     1     -39.167  20.565   0.414  0.00  0.00    -0.250 OA
ATOM     31  C   UNL     1     -39.633  21.326   1.248  0.00  0.00    +0.313 C 
BRANCH  31  32
ATOM     32  O   UNL     1     -40.023  20.951   2.491  0.00  0.00    -0.480 OA
ATOM     33  H   UNL     1     -40.829  21.270   2.845  0.00  0.00    +0.295 HD
ENDBRANCH  31  32
ENDBRANCH  27  31
ENDBRANCH  23  24
ENDBRANCH  21  23
ENDBRANCH   2  21
TORSDOF 14
ENDMDL
MODEL 6
REMARK VINA RESULT:      -5.7      2.274      6.257
REMARK  Name = 5311227
REMARK  14 active torsions:
REMARK  status: ('A' for Active; 'I' for Inactive)
REMARK    1  A    between atoms: C_2  and  C_21
REMARK    2  A    between atoms: C_3  and  C_9
REMARK    3  A    between atoms: C_4  and  O_7
REMARK    4  A    between atoms: C_10  and  C_11
REMARK    5  A    between atoms: C_11  and  O_12
REMARK    6  A    between atoms: C_11  and  C_14
REMARK    7  A    between atoms: C_14  and  C_15
REMARK    8  A    between atoms: C_15  and  C_17
REMARK    9  A    between atoms: C_17  and  C_18
REMARK   10  A    between atoms: C_18  and  C_19
REMARK   11  A    between atoms: C_21  and  C_23
REMARK   12  A    between atoms: C_23  and  C_24
REMARK   13  A    between atoms: C_27  and  C_31
REMARK   14  A    between atoms: C_31  and  O_32
REMARK                            x       y       z     vdW  Elec       q    Type
REMARK                         _______ _______ _______ _____ _____    ______ ____
ROOT
ATOM      1  O   UNL     1     -40.800  22.859   0.995  0.00  0.00    -0.296 OA
ATOM      2  C   UNL     1     -38.865  24.038   1.865  0.00  0.00    +0.071 C 
ATOM      3  C   UNL     1     -38.915  25.098   2.976  0.00  0.00    +0.056 C 
ATOM      4  C   UNL     1     -40.146  25.943   2.622  0.00  0.00    +0.122 C 
ATOM      5  C   UNL     1     -41.191  24.926   2.167  0.00  0.00    +0.094 C 
ATOM      6  C   UNL     1     -40.341  23.817   1.603  0.00  0.00    +0.154 C 
ENDROOT
BRANCH   4   7
ATOM      7  O   UNL     1     -40.600  26.646   3.768  0.00  0.00    -0.384 OA
ATOM      8  H   UNL     1     -39.864  27.146   4.154  0.00  0.00    +0.210 HD
ENDBRANCH   4   7
BRANCH   3   9
ATOM      9  C   UNL     1     -37.659  25.904   3.058  0.00  0.00    -0.026 C 
ATOM     10  C   UNL     1     -37.178  26.635   2.041  0.00  0.00    -0.002 C 
BRANCH  10  11
ATOM     11  C   UNL     1     -35.929  27.482   2.033  0.00  0.00    +0.132 C 
BRANCH  11  12
ATOM     12  O   UNL     1     -36.331  28.849   1.938  0.00  0.00    -0.380 OA
ATOM     13  H   UNL     1     -35.546  29.417   1.926  0.00  0.00    +0.211 HD
ENDBRANCH  11  12
BRANCH  11  14
ATOM     14  C   UNL     1     -34.975  27.320   3.230  0.00  0.00    +0.034 C 
BRANCH  14  15
ATOM     15  C   UNL     1     -34.287  25.936   3.337  0.00  0.00    +0.003 C 
ATOM     16  C   UNL     1     -32.920  26.010   2.643  0.00  0.00    +0.000 C 
BRANCH  15  17
ATOM     17  C   UNL     1     -34.158  25.473   4.804  0.00  0.00    +0.000 C 
BRANCH  17  18
ATOM     18  C   UNL     1     -34.255  23.954   4.982  0.00  0.00    +0.000 C 
BRANCH  18  19
ATOM     19  C   UNL     1     -35.555  23.507   5.653  0.00  0.00    +0.000 C 
ATOM     20  C   UNL     1     -35.448  22.156   6.346  0.00  0.00    +0.000 C 
ENDBRANCH  18  19
ENDBRANCH  17  18
ENDBRANCH  15  17
ENDBRANCH  14  15
ENDBRANCH  11  14
ENDBRANCH  10  11
ENDBRANCH   3   9
BRANCH   2  21
ATOM     21  C   UNL     1     -38.151  22.763   2.280  0.00  0.00    +0.072 C 
BRANCH  21  23
ATOM     22  O   UNL     1     -37.033  22.243   0.201  0.00  0.00    -0.296 OA
ATOM     23  C   UNL     1     -36.946  22.459   1.409  0.00  0.00    +0.151 C 
BRANCH  23  24
ATOM     24  C   UNL     1     -35.617  22.432   2.107  0.00  0.00    +0.058 C 
ATOM     25  C   UNL     1     -35.381  21.080   2.784  0.00  0.00    +0.008 C 
ATOM     26  C   UNL     1     -34.502  22.807   1.129  0.00  0.00    +0.008 C 
ATOM     27  C   UNL     1     -33.845  20.377   0.901  0.00  0.00    +0.099 C 
ATOM     28  C   UNL     1     -35.005  19.967   1.806  0.00  0.00    +0.012 C 
ATOM     29  C   UNL     1     -34.149  21.678   0.161  0.00  0.00    +0.012 C 
BRANCH  27  31
ATOM     30  O   UNL     1     -32.491  18.743  -0.255  0.00  0.00    -0.250 OA
ATOM     31  C   UNL     1     -33.570  19.294  -0.097  0.00  0.00    +0.313 C 
BRANCH  31  32
ATOM     32  O   UNL     1     -34.688  19.004  -0.808  0.00  0.00    -0.480 OA
ATOM     33  H   UNL     1     -34.667  19.034  -1.744  0.00  0.00    +0.295 HD
ENDBRANCH  31  32
ENDBRANCH  27  31
ENDBRANCH  23  24
ENDBRANCH  21  23
ENDBRANCH   2  21
TORSDOF 14
ENDMDL
MODEL 7
REMARK VINA RESULT:      -5.7      2.594      7.484
REMARK  Name = 5311227
REMARK  14 active torsions:
REMARK  status: ('A' for Active; 'I' for Inactive)
REMARK    1  A    between atoms: C_2  and  C_21
REMARK    2  A    between atoms: C_3  and  C_9
REMARK    3  A    between atoms: C_4  and  O_7
REMARK    4  A    between atoms: C_10  and  C_11
REMARK    5  A    between atoms: C_11  and  O_12
REMARK    6  A    between atoms: C_11  and  C_14
REMARK    7  A    between atoms: C_14  and  C_15
REMARK    8  A    between atoms: C_15  and  C_17
REMARK    9  A    between atoms: C_17  and  C_18
REMARK   10  A    between atoms: C_18  and  C_19
REMARK   11  A    between atoms: C_21  and  C_23
REMARK   12  A    between atoms: C_23  and  C_24
REMARK   13  A    between atoms: C_27  and  C_31
REMARK   14  A    between atoms: C_31  and  O_32
REMARK                            x       y       z     vdW  Elec       q    Type
REMARK                         _______ _______ _______ _____ _____    ______ ____
ROOT
ATOM      1  O   UNL     1     -38.204  20.444  -2.877  0.00  0.00    -0.296 OA
ATOM      2  C   UNL     1     -37.486  20.867  -0.597  0.00  0.00    +0.071 C 
ATOM      3  C   UNL     1     -38.384  20.729   0.641  0.00  0.00    +0.056 C 
ATOM      4  C   UNL     1     -39.714  21.354   0.201  0.00  0.00    +0.122 C 
ATOM      5  C   UNL     1     -39.912  20.866  -1.232  0.00  0.00    +0.094 C 
ATOM      6  C   UNL     1     -38.495  20.690  -1.713  0.00  0.00    +0.154 C 
ENDROOT
BRANCH   4   7
ATOM      7  O   UNL     1     -40.768  20.895   1.034  0.00  0.00    -0.384 OA
ATOM      8  H   UNL     1     -40.603  21.173   1.948  0.00  0.00    +0.210 HD
ENDBRANCH   4   7
BRANCH   3   9
ATOM      9  C   UNL     1     -37.802  21.388   1.850  0.00  0.00    -0.026 C 
ATOM     10  C   UNL     1     -37.261  22.616   1.838  0.00  0.00    -0.002 C 
BRANCH  10  11
ATOM     11  C   UNL     1     -36.658  23.362   3.003  0.00  0.00    +0.132 C 
BRANCH  11  12
ATOM     12  O   UNL     1     -37.731  23.916   3.766  0.00  0.00    -0.380 OA
ATOM     13  H   UNL     1     -37.628  23.668   4.697  0.00  0.00    +0.211 HD
ENDBRANCH  11  12
BRANCH  11  14
ATOM     14  C   UNL     1     -35.739  22.558   3.940  0.00  0.00    +0.034 C 
BRANCH  14  15
ATOM     15  C   UNL     1     -35.511  23.190   5.336  0.00  0.00    +0.003 C 
ATOM     16  C   UNL     1     -35.320  22.065   6.361  0.00  0.00    +0.000 C 
BRANCH  15  17
ATOM     17  C   UNL     1     -34.318  24.170   5.333  0.00  0.00    +0.000 C 
BRANCH  17  18
ATOM     18  C   UNL     1     -34.718  25.628   5.583  0.00  0.00    +0.000 C 
BRANCH  18  19
ATOM     19  C   UNL     1     -34.267  26.576   4.469  0.00  0.00    +0.000 C 
ATOM     20  C   UNL     1     -35.317  26.784   3.388  0.00  0.00    +0.000 C 
ENDBRANCH  18  19
ENDBRANCH  17  18
ENDBRANCH  15  17
ENDBRANCH  14  15
ENDBRANCH  11  14
ENDBRANCH  10  11
ENDBRANCH   3   9
BRANCH   2  21
ATOM     21  C   UNL     1     -36.371  19.837  -0.652  0.00  0.00    +0.072 C 
BRANCH  21  23
ATOM     22  O   UNL     1     -34.514  20.610  -1.992  0.00  0.00    -0.296 OA
ATOM     23  C   UNL     1     -35.007  20.463  -0.875  0.00  0.00    +0.151 C 
BRANCH  23  24
ATOM     24  C   UNL     1     -34.273  20.903   0.360  0.00  0.00    +0.058 C 
ATOM     25  C   UNL     1     -34.397  19.859   1.472  0.00  0.00    +0.008 C 
ATOM     26  C   UNL     1     -32.819  21.233   0.017  0.00  0.00    +0.008 C 
ATOM     27  C   UNL     1     -32.059  19.025   0.983  0.00  0.00    +0.099 C 
ATOM     28  C   UNL     1     -33.510  18.633   1.257  0.00  0.00    +0.012 C 
ATOM     29  C   UNL     1     -31.957  19.989  -0.196  0.00  0.00    +0.012 C 
BRANCH  27  31
ATOM     30  O   UNL     1     -31.678  16.657   0.691  0.00  0.00    -0.250 OA
ATOM     31  C   UNL     1     -31.247  17.800   0.692  0.00  0.00    +0.313 C 
BRANCH  31  32
ATOM     32  O   UNL     1     -29.959  18.132   0.429  0.00  0.00    -0.480 OA
ATOM     33  H   UNL     1     -29.761  18.944   0.008  0.00  0.00    +0.295 HD
ENDBRANCH  31  32
ENDBRANCH  27  31
ENDBRANCH  23  24
ENDBRANCH  21  23
ENDBRANCH   2  21
TORSDOF 14
ENDMDL
MODEL 8
REMARK VINA RESULT:      -5.6      2.213      6.834
REMARK  Name = 5311227
REMARK  14 active torsions:
REMARK  status: ('A' for Active; 'I' for Inactive)
REMARK    1  A    between atoms: C_2  and  C_21
REMARK    2  A    between atoms: C_3  and  C_9
REMARK    3  A    between atoms: C_4  and  O_7
REMARK    4  A    between atoms: C_10  and  C_11
REMARK    5  A    between atoms: C_11  and  O_12
REMARK    6  A    between atoms: C_11  and  C_14
REMARK    7  A    between atoms: C_14  and  C_15
REMARK    8  A    between atoms: C_15  and  C_17
REMARK    9  A    between atoms: C_17  and  C_18
REMARK   10  A    between atoms: C_18  and  C_19
REMARK   11  A    between atoms: C_21  and  C_23
REMARK   12  A    between atoms: C_23  and  C_24
REMARK   13  A    between atoms: C_27  and  C_31
REMARK   14  A    between atoms: C_31  and  O_32
REMARK                            x       y       z     vdW  Elec       q    Type
REMARK                         _______ _______ _______ _____ _____    ______ ____
ROOT
ATOM      1  O   UNL     1     -38.830  21.334  -2.161  0.00  0.00    -0.296 OA
ATOM      2  C   UNL     1     -37.976  22.545  -0.239  0.00  0.00    +0.071 C 
ATOM      3  C   UNL     1     -38.289  22.195   1.224  0.00  0.00    +0.056 C 
ATOM      4  C   UNL     1     -39.790  21.875   1.211  0.00  0.00    +0.122 C 
ATOM      5  C   UNL     1     -40.001  21.075  -0.072  0.00  0.00    +0.094 C 
ATOM      6  C   UNL     1     -38.920  21.613  -0.972  0.00  0.00    +0.154 C 
ENDROOT
BRANCH   4   7
ATOM      7  O   UNL     1     -40.132  21.096   2.347  0.00  0.00    -0.384 OA
ATOM      8  H   UNL     1     -40.479  21.674   3.044  0.00  0.00    +0.210 HD
ENDBRANCH   4   7
BRANCH   3   9
ATOM      9  C   UNL     1     -37.937  23.300   2.168  0.00  0.00    -0.026 C 
ATOM     10  C   UNL     1     -38.242  24.588   1.950  0.00  0.00    -0.002 C 
BRANCH  10  11
ATOM     11  C   UNL     1     -37.935  25.765   2.843  0.00  0.00    +0.132 C 
BRANCH  11  12
ATOM     12  O   UNL     1     -39.179  26.325   3.266  0.00  0.00    -0.380 OA
ATOM     13  H   UNL     1     -39.737  25.627   3.643  0.00  0.00    +0.211 HD
ENDBRANCH  11  12
BRANCH  11  14
ATOM     14  C   UNL     1     -37.063  25.486   4.080  0.00  0.00    +0.034 C 
BRANCH  14  15
ATOM     15  C   UNL     1     -35.544  25.718   3.876  0.00  0.00    +0.003 C 
ATOM     16  C   UNL     1     -34.978  26.402   5.127  0.00  0.00    +0.000 C 
BRANCH  15  17
ATOM     17  C   UNL     1     -34.802  24.403   3.558  0.00  0.00    +0.000 C 
BRANCH  17  18
ATOM     18  C   UNL     1     -34.473  23.565   4.799  0.00  0.00    +0.000 C 
BRANCH  18  19
ATOM     19  C   UNL     1     -35.424  22.383   4.998  0.00  0.00    +0.000 C 
ATOM     20  C   UNL     1     -35.489  21.892   6.437  0.00  0.00    +0.000 C 
ENDBRANCH  18  19
ENDBRANCH  17  18
ENDBRANCH  15  17
ENDBRANCH  14  15
ENDBRANCH  11  14
ENDBRANCH  10  11
ENDBRANCH   3   9
BRANCH   2  21
ATOM     21  C   UNL     1     -36.522  22.315  -0.615  0.00  0.00    +0.072 C 
BRANCH  21  23
ATOM     22  O   UNL     1     -36.257  19.954  -0.172  0.00  0.00    -0.296 OA
ATOM     23  C   UNL     1     -35.922  21.110   0.084  0.00  0.00    +0.151 C 
BRANCH  23  24
ATOM     24  C   UNL     1     -34.881  21.402   1.126  0.00  0.00    +0.058 C 
ATOM     25  C   UNL     1     -34.690  20.206   2.061  0.00  0.00    +0.008 C 
ATOM     26  C   UNL     1     -33.577  21.844   0.457  0.00  0.00    +0.008 C 
ATOM     27  C   UNL     1     -32.571  19.558   0.841  0.00  0.00    +0.099 C 
ATOM     28  C   UNL     1     -33.889  19.065   1.435  0.00  0.00    +0.012 C 
ATOM     29  C   UNL     1     -32.800  20.684  -0.164  0.00  0.00    +0.012 C 
BRANCH  27  31
ATOM     30  O   UNL     1     -31.220  18.519  -0.872  0.00  0.00    -0.250 OA
ATOM     31  C   UNL     1     -31.864  18.425   0.162  0.00  0.00    +0.313 C 
BRANCH  31  32
ATOM     32  O   UNL     1     -32.035  17.271   0.853  0.00  0.00    -0.480 OA
ATOM     33  H   UNL     1     -32.829  17.122   1.327  0.00  0.00    +0.295 HD
ENDBRANCH  31  32
ENDBRANCH  27  31
ENDBRANCH  23  24
ENDBRANCH  21  23
ENDBRANCH   2  21
TORSDOF 14
ENDMDL
MODEL 9
REMARK VINA RESULT:      -5.5      2.635      7.169
REMARK  Name = 5311227
REMARK  14 active torsions:
REMARK  status: ('A' for Active; 'I' for Inactive)
REMARK    1  A    between atoms: C_2  and  C_21
REMARK    2  A    between atoms: C_3  and  C_9
REMARK    3  A    between atoms: C_4  and  O_7
REMARK    4  A    between atoms: C_10  and  C_11
REMARK    5  A    between atoms: C_11  and  O_12
REMARK    6  A    between atoms: C_11  and  C_14
REMARK    7  A    between atoms: C_14  and  C_15
REMARK    8  A    between atoms: C_15  and  C_17
REMARK    9  A    between atoms: C_17  and  C_18
REMARK   10  A    between atoms: C_18  and  C_19
REMARK   11  A    between atoms: C_21  and  C_23
REMARK   12  A    between atoms: C_23  and  C_24
REMARK   13  A    between atoms: C_27  and  C_31
REMARK   14  A    between atoms: C_31  and  O_32
REMARK                            x       y       z     vdW  Elec       q    Type
REMARK                         _______ _______ _______ _____ _____    ______ ____
ROOT
ATOM      1  O   UNL     1     -38.272  20.261  -2.195  0.00  0.00    -0.296 OA
ATOM      2  C   UNL     1     -37.092  20.764  -0.134  0.00  0.00    +0.071 C 
ATOM      3  C   UNL     1     -37.723  20.723   1.266  0.00  0.00    +0.056 C 
ATOM      4  C   UNL     1     -39.095  21.382   1.069  0.00  0.00    +0.122 C 
ATOM      5  C   UNL     1     -39.595  20.833  -0.265  0.00  0.00    +0.094 C 
ATOM      6  C   UNL     1     -38.313  20.575  -1.012  0.00  0.00    +0.154 C 
ENDROOT
BRANCH   4   7
ATOM      7  O   UNL     1     -39.970  21.008   2.121  0.00  0.00    -0.384 OA
ATOM      8  H   UNL     1     -40.780  21.540   2.073  0.00  0.00    +0.210 HD
ENDBRANCH   4   7
BRANCH   3   9
ATOM      9  C   UNL     1     -36.886  21.416   2.294  0.00  0.00    -0.026 C 
ATOM     10  C   UNL     1     -37.177  22.627   2.794  0.00  0.00    -0.002 C 
BRANCH  10  11
ATOM     11  C   UNL     1     -36.400  23.398   3.833  0.00  0.00    +0.132 C 
BRANCH  11  12
ATOM     12  O   UNL     1     -36.463  22.664   5.056  0.00  0.00    -0.380 OA
ATOM     13  H   UNL     1     -37.364  22.329   5.186  0.00  0.00    +0.211 HD
ENDBRANCH  11  12
BRANCH  11  14
ATOM     14  C   UNL     1     -34.927  23.708   3.508  0.00  0.00    +0.034 C 
BRANCH  14  15
ATOM     15  C   UNL     1     -34.710  24.798   2.428  0.00  0.00    +0.003 C 
ATOM     16  C   UNL     1     -33.816  25.899   3.012  0.00  0.00    +0.000 C 
BRANCH  15  17
ATOM     17  C   UNL     1     -34.117  24.207   1.131  0.00  0.00    +0.000 C 
BRANCH  17  18
ATOM     18  C   UNL     1     -35.162  23.932   0.044  0.00  0.00    +0.000 C 
BRANCH  18  19
ATOM     19  C   UNL     1     -36.274  24.983  -0.003  0.00  0.00    +0.000 C 
ATOM     20  C   UNL     1     -37.607  24.436  -0.491  0.00  0.00    +0.000 C 
ENDBRANCH  18  19
ENDBRANCH  17  18
ENDBRANCH  15  17
ENDBRANCH  14  15
ENDBRANCH  11  14
ENDBRANCH  10  11
ENDBRANCH   3   9
BRANCH   2  21
ATOM     21  C   UNL     1     -36.045  19.686  -0.355  0.00  0.00    +0.072 C 
BRANCH  21  23
ATOM     22  O   UNL     1     -34.276  20.468  -1.804  0.00  0.00    -0.296 OA
ATOM     23  C   UNL     1     -34.673  20.259  -0.659  0.00  0.00    +0.151 C 
BRANCH  23  24
ATOM     24  C   UNL     1     -33.806  20.562   0.529  0.00  0.00    +0.058 C 
ATOM     25  C   UNL     1     -33.897  19.447   1.573  0.00  0.00    +0.008 C 
ATOM     26  C   UNL     1     -32.369  20.832   0.076  0.00  0.00    +0.008 C 
ATOM     27  C   UNL     1     -31.670  18.518   0.812  0.00  0.00    +0.099 C 
ATOM     28  C   UNL     1     -33.113  18.191   1.192  0.00  0.00    +0.012 C 
ATOM     29  C   UNL     1     -31.611  19.561  -0.302  0.00  0.00    +0.012 C 
BRANCH  27  31
ATOM     30  O   UNL     1     -29.833  17.233  -0.088  0.00  0.00    -0.250 OA
ATOM     31  C   UNL     1     -30.967  17.274   0.363  0.00  0.00    +0.313 C 
BRANCH  31  32
ATOM     32  O   UNL     1     -31.766  16.189   0.521  0.00  0.00    -0.480 OA
ATOM     33  H   UNL     1     -31.586  15.570   1.201  0.00  0.00    +0.295 HD
ENDBRANCH  31  32
ENDBRANCH  27  31
ENDBRANCH  23  24
ENDBRANCH  21  23
ENDBRANCH   2  21
TORSDOF 14
ENDMDL
