MODEL 1
REMARK VINA RESULT:      -6.6      0.000      0.000
REMARK  Name = 58204997
REMARK  5 active torsions:
REMARK  status: ('A' for Active; 'I' for Inactive)
REMARK    1  A    between atoms: C_7  and  C_18
REMARK    2  A    between atoms: C_13  and  O_23
REMARK    3  A    between atoms: N_15  and  C_20
REMARK    4  A    between atoms: O_23  and  C_24
REMARK    5  A    between atoms: C_24  and  C_28
REMARK                            x       y       z     vdW  Elec       q    Type
REMARK                         _______ _______ _______ _____ _____    ______ ____
ROOT
ATOM      1  O   UNL     1     -34.166  27.905   2.414  0.00  0.00    -0.473 OA
ATOM      2  N   UNL     1     -31.615  28.597   3.898  0.00  0.00    -0.273 N 
ATOM      3  N   UNL     1     -31.534  27.743   5.929  0.00  0.00    -0.387 NA
ATOM      4  C   UNL     1     -32.246  27.771   4.808  0.00  0.00    +0.186 C 
ATOM      5  C   UNL     1     -32.010  28.925   2.543  0.00  0.00    +0.141 C 
ATOM      6  C   UNL     1     -33.503  27.019   4.622  0.00  0.00    +0.078 C 
ATOM      7  C   UNL     1     -30.455  28.558   5.736  0.00  0.00    +0.164 C 
ATOM      8  C   UNL     1     -30.483  29.105   4.481  0.00  0.00    +0.156 C 
ATOM      9  C   UNL     1     -32.843  27.847   1.891  0.00  0.00    +0.227 C 
ATOM     10  C   UNL     1     -34.364  27.119   3.516  0.00  0.00    +0.145 C 
ATOM     11  C   UNL     1     -33.894  26.152   5.665  0.00  0.00    +0.010 C 
ATOM     12  C   UNL     1     -35.581  26.417   3.490  0.00  0.00    +0.074 C 
ATOM     13  C   UNL     1     -35.943  25.574   4.535  0.00  0.00    +0.142 C 
ATOM     14  C   UNL     1     -35.094  25.436   5.623  0.00  0.00    +0.037 C 
ENDROOT
BRANCH   7  18
ATOM     15  N   UNL     1     -28.274  28.085   6.901  0.00  0.00    -0.193 N 
ATOM     16  N   UNL     1     -29.454  29.771   7.634  0.00  0.00    -0.204 NA
ATOM     17  N   UNL     1     -27.531  28.564   7.909  0.00  0.00    -0.154 NA
ATOM     18  C   UNL     1     -29.416  28.807   6.744  0.00  0.00    +0.180 C 
ATOM     19  C   UNL     1     -28.289  29.584   8.320  0.00  0.00    +0.218 C 
BRANCH  15  20
ATOM     20  C   UNL     1     -27.824  26.940   6.147  0.00  0.00    +0.098 C 
ATOM     21  C   UNL     1     -27.051  27.360   4.895  0.00  0.00    +0.024 C 
ATOM     22  C   UNL     1     -26.990  25.992   7.011  0.00  0.00    +0.024 C 
ENDBRANCH  15  20
ENDBRANCH   7  18
BRANCH  13  23
ATOM     23  O   UNL     1     -37.118  24.891   4.491  0.00  0.00    -0.470 OA
BRANCH  23  24
ATOM     24  C   UNL     1     -37.451  24.250   3.260  0.00  0.00    +0.241 C 
ATOM     25  C   UNL     1     -36.875  22.844   3.283  0.00  0.00    +0.057 C 
BRANCH  24  28
ATOM     26  O   UNL     1     -39.544  23.484   2.312  0.00  0.00    -0.271 OA
ATOM     27  N   UNL     1     -39.613  25.086   3.957  0.00  0.00    -0.326 N 
ATOM     28  C   UNL     1     -38.963  24.222   3.105  0.00  0.00    +0.260 C 
ATOM     29  H   UNL     1     -40.595  25.148   3.941  0.00  0.00    +0.145 HD
ATOM     30  H   UNL     1     -39.095  25.643   4.583  0.00  0.00    +0.145 HD
ENDBRANCH  24  28
ENDBRANCH  23  24
ENDBRANCH  13  23
TORSDOF 5
ENDMDL
MODEL 2
REMARK VINA RESULT:      -6.4      4.447      8.881
REMARK  Name = 58204997
REMARK  5 active torsions:
REMARK  status: ('A' for Active; 'I' for Inactive)
REMARK    1  A    between atoms: C_7  and  C_18
REMARK    2  A    between atoms: C_13  and  O_23
REMARK    3  A    between atoms: N_15  and  C_20
REMARK    4  A    between atoms: O_23  and  C_24
REMARK    5  A    between atoms: C_24  and  C_28
REMARK                            x       y       z     vdW  Elec       q    Type
REMARK                         _______ _______ _______ _____ _____    ______ ____
ROOT
ATOM      1  O   UNL     1     -35.712  24.282   5.499  0.00  0.00    -0.473 OA
ATOM      2  N   UNL     1     -35.440  21.907   3.635  0.00  0.00    -0.273 N 
ATOM      3  N   UNL     1     -34.812  22.471   1.598  0.00  0.00    -0.387 NA
ATOM      4  C   UNL     1     -35.026  22.943   2.821  0.00  0.00    +0.186 C 
ATOM      5  C   UNL     1     -35.778  21.938   5.043  0.00  0.00    +0.141 C 
ATOM      6  C   UNL     1     -34.834  24.360   3.192  0.00  0.00    +0.078 C 
ATOM      7  C   UNL     1     -35.099  21.135   1.632  0.00  0.00    +0.164 C 
ATOM      8  C   UNL     1     -35.495  20.760   2.887  0.00  0.00    +0.156 C 
ATOM      9  C   UNL     1     -35.076  23.043   5.797  0.00  0.00    +0.227 C 
ATOM     10  C   UNL     1     -35.175  24.939   4.425  0.00  0.00    +0.145 C 
ATOM     11  C   UNL     1     -34.297  25.216   2.206  0.00  0.00    +0.010 C 
ATOM     12  C   UNL     1     -35.028  26.321   4.634  0.00  0.00    +0.074 C 
ATOM     13  C   UNL     1     -34.501  27.141   3.642  0.00  0.00    +0.142 C 
ATOM     14  C   UNL     1     -34.129  26.586   2.426  0.00  0.00    +0.037 C 
ENDROOT
BRANCH   7  18
ATOM     15  N   UNL     1     -33.890  19.527   0.118  0.00  0.00    -0.193 N 
ATOM     16  N   UNL     1     -35.965  20.001  -0.378  0.00  0.00    -0.204 NA
ATOM     17  N   UNL     1     -34.115  18.802  -0.987  0.00  0.00    -0.154 NA
ATOM     18  C   UNL     1     -34.994  20.238   0.474  0.00  0.00    +0.180 C 
ATOM     19  C   UNL     1     -35.384  19.123  -1.248  0.00  0.00    +0.218 C 
BRANCH  15  20
ATOM     20  C   UNL     1     -32.601  19.486   0.765  0.00  0.00    +0.098 C 
ATOM     21  C   UNL     1     -32.211  18.058   1.150  0.00  0.00    +0.024 C 
ATOM     22  C   UNL     1     -31.518  20.133  -0.100  0.00  0.00    +0.024 C 
ENDBRANCH  15  20
ENDBRANCH   7  18
BRANCH  13  23
ATOM     23  O   UNL     1     -34.353  28.475   3.861  0.00  0.00    -0.470 OA
BRANCH  23  24
ATOM     24  C   UNL     1     -33.079  29.044   3.559  0.00  0.00    +0.241 C 
ATOM     25  C   UNL     1     -33.232  30.556   3.510  0.00  0.00    +0.057 C 
BRANCH  24  28
ATOM     26  O   UNL     1     -31.190  27.804   4.431  0.00  0.00    -0.271 OA
ATOM     27  N   UNL     1     -32.263  29.281   5.826  0.00  0.00    -0.326 N 
ATOM     28  C   UNL     1     -32.081  28.628   4.628  0.00  0.00    +0.260 C 
ATOM     29  H   UNL     1     -31.670  29.088   6.588  0.00  0.00    +0.145 HD
ATOM     30  H   UNL     1     -32.986  29.944   5.921  0.00  0.00    +0.145 HD
ENDBRANCH  24  28
ENDBRANCH  23  24
ENDBRANCH  13  23
TORSDOF 5
ENDMDL
MODEL 3
REMARK VINA RESULT:      -6.4      6.824     10.558
REMARK  Name = 58204997
REMARK  5 active torsions:
REMARK  status: ('A' for Active; 'I' for Inactive)
REMARK    1  A    between atoms: C_7  and  C_18
REMARK    2  A    between atoms: C_13  and  O_23
REMARK    3  A    between atoms: N_15  and  C_20
REMARK    4  A    between atoms: O_23  and  C_24
REMARK    5  A    between atoms: C_24  and  C_28
REMARK                            x       y       z     vdW  Elec       q    Type
REMARK                         _______ _______ _______ _____ _____    ______ ____
ROOT
ATOM      1  O   UNL     1     -36.198  17.634  -0.577  0.00  0.00    -0.473 OA
ATOM      2  N   UNL     1     -37.292  20.212   0.584  0.00  0.00    -0.273 N 
ATOM      3  N   UNL     1     -35.913  21.175   2.010  0.00  0.00    -0.387 NA
ATOM      4  C   UNL     1     -36.033  20.168   1.152  0.00  0.00    +0.186 C 
ATOM      5  C   UNL     1     -37.871  19.331  -0.409  0.00  0.00    +0.141 C 
ATOM      6  C   UNL     1     -34.959  19.189   0.889  0.00  0.00    +0.078 C 
ATOM      7  C   UNL     1     -37.098  21.855   1.994  0.00  0.00    +0.164 C 
ATOM      8  C   UNL     1     -37.974  21.274   1.118  0.00  0.00    +0.156 C 
ATOM      9  C   UNL     1     -36.838  18.680  -1.300  0.00  0.00    +0.227 C 
ATOM     10  C   UNL     1     -35.078  18.031   0.102  0.00  0.00    +0.145 C 
ATOM     11  C   UNL     1     -33.715  19.416   1.516  0.00  0.00    +0.010 C 
ATOM     12  C   UNL     1     -34.010  17.124  -0.005  0.00  0.00    +0.074 C 
ATOM     13  C   UNL     1     -32.797  17.372   0.628  0.00  0.00    +0.142 C 
ATOM     14  C   UNL     1     -32.647  18.523   1.386  0.00  0.00    +0.037 C 
ENDROOT
BRANCH   7  18
ATOM     15  N   UNL     1     -36.597  23.518   3.816  0.00  0.00    -0.193 N 
ATOM     16  N   UNL     1     -38.438  23.807   2.676  0.00  0.00    -0.204 NA
ATOM     17  N   UNL     1     -37.130  24.618   4.368  0.00  0.00    -0.154 NA
ATOM     18  C   UNL     1     -37.381  23.042   2.811  0.00  0.00    +0.180 C 
ATOM     19  C   UNL     1     -38.243  24.751   3.643  0.00  0.00    +0.218 C 
BRANCH  15  20
ATOM     20  C   UNL     1     -35.347  22.992   4.307  0.00  0.00    +0.098 C 
ATOM     21  C   UNL     1     -34.333  24.106   4.572  0.00  0.00    +0.024 C 
ATOM     22  C   UNL     1     -35.551  22.132   5.556  0.00  0.00    +0.024 C 
ENDBRANCH  15  20
ENDBRANCH   7  18
BRANCH  13  23
ATOM     23  O   UNL     1     -31.767  16.492   0.507  0.00  0.00    -0.470 OA
BRANCH  23  24
ATOM     24  C   UNL     1     -31.465  16.023  -0.808  0.00  0.00    +0.241 C 
ATOM     25  C   UNL     1     -30.488  16.996  -1.448  0.00  0.00    +0.057 C 
BRANCH  24  28
ATOM     26  O   UNL     1     -30.062  14.186  -1.530  0.00  0.00    -0.271 OA
ATOM     27  N   UNL     1     -31.308  13.921   0.382  0.00  0.00    -0.326 N 
ATOM     28  C   UNL     1     -30.869  14.627  -0.715  0.00  0.00    +0.260 C 
ATOM     29  H   UNL     1     -30.984  13.005   0.539  0.00  0.00    +0.145 HD
ATOM     30  H   UNL     1     -31.946  14.332   1.009  0.00  0.00    +0.145 HD
ENDBRANCH  24  28
ENDBRANCH  23  24
ENDBRANCH  13  23
TORSDOF 5
ENDMDL
MODEL 4
REMARK VINA RESULT:      -6.3      3.122      5.633
REMARK  Name = 58204997
REMARK  5 active torsions:
REMARK  status: ('A' for Active; 'I' for Inactive)
REMARK    1  A    between atoms: C_7  and  C_18
REMARK    2  A    between atoms: C_13  and  O_23
REMARK    3  A    between atoms: N_15  and  C_20
REMARK    4  A    between atoms: O_23  and  C_24
REMARK    5  A    between atoms: C_24  and  C_28
REMARK                            x       y       z     vdW  Elec       q    Type
REMARK                         _______ _______ _______ _____ _____    ______ ____
ROOT
ATOM      1  O   UNL     1     -32.165  27.130   6.307  0.00  0.00    -0.473 OA
ATOM      2  N   UNL     1     -31.627  29.402   4.373  0.00  0.00    -0.273 N 
ATOM      3  N   UNL     1     -32.956  29.376   2.614  0.00  0.00    -0.387 NA
ATOM      4  C   UNL     1     -32.715  28.789   3.781  0.00  0.00    +0.186 C 
ATOM      5  C   UNL     1     -31.007  29.113   5.650  0.00  0.00    +0.141 C 
ATOM      6  C   UNL     1     -33.514  27.665   4.309  0.00  0.00    +0.078 C 
ATOM      7  C   UNL     1     -32.018  30.358   2.460  0.00  0.00    +0.164 C 
ATOM      8  C   UNL     1     -31.177  30.392   3.539  0.00  0.00    +0.156 C 
ATOM      9  C   UNL     1     -31.960  28.498   6.648  0.00  0.00    +0.227 C 
ATOM     10  C   UNL     1     -33.221  26.920   5.463  0.00  0.00    +0.145 C 
ATOM     11  C   UNL     1     -34.651  27.280   3.565  0.00  0.00    +0.010 C 
ATOM     12  C   UNL     1     -34.008  25.811   5.819  0.00  0.00    +0.074 C 
ATOM     13  C   UNL     1     -35.119  25.452   5.065  0.00  0.00    +0.142 C 
ATOM     14  C   UNL     1     -35.446  26.192   3.938  0.00  0.00    +0.037 C 
ENDROOT
BRANCH   7  18
ATOM     15  N   UNL     1     -32.663  32.376   1.101  0.00  0.00    -0.193 N 
ATOM     16  N   UNL     1     -31.131  31.058   0.270  0.00  0.00    -0.204 NA
ATOM     17  N   UNL     1     -32.353  32.963  -0.064  0.00  0.00    -0.154 NA
ATOM     18  C   UNL     1     -31.933  31.244   1.292  0.00  0.00    +0.180 C 
ATOM     19  C   UNL     1     -31.422  32.127  -0.529  0.00  0.00    +0.218 C 
BRANCH  15  20
ATOM     20  C   UNL     1     -33.663  32.957   1.964  0.00  0.00    +0.098 C 
ATOM     21  C   UNL     1     -33.560  34.483   1.996  0.00  0.00    +0.024 C 
ATOM     22  C   UNL     1     -35.073  32.514   1.568  0.00  0.00    +0.024 C 
ENDBRANCH  15  20
ENDBRANCH   7  18
BRANCH  13  23
ATOM     23  O   UNL     1     -35.880  24.385   5.428  0.00  0.00    -0.470 OA
BRANCH  23  24
ATOM     24  C   UNL     1     -35.376  23.089   5.104  0.00  0.00    +0.241 C 
ATOM     25  C   UNL     1     -35.406  22.238   6.363  0.00  0.00    +0.057 C 
BRANCH  24  28
ATOM     26  O   UNL     1     -37.249  23.019   3.570  0.00  0.00    -0.271 OA
ATOM     27  N   UNL     1     -35.752  21.276   3.545  0.00  0.00    -0.326 N 
ATOM     28  C   UNL     1     -36.236  22.479   4.008  0.00  0.00    +0.260 C 
ATOM     29  H   UNL     1     -36.232  20.793   2.834  0.00  0.00    +0.145 HD
ATOM     30  H   UNL     1     -34.926  20.898   3.925  0.00  0.00    +0.145 HD
ENDBRANCH  24  28
ENDBRANCH  23  24
ENDBRANCH  13  23
TORSDOF 5
ENDMDL
MODEL 5
REMARK VINA RESULT:      -6.3      7.537     10.719
REMARK  Name = 58204997
REMARK  5 active torsions:
REMARK  status: ('A' for Active; 'I' for Inactive)
REMARK    1  A    between atoms: C_7  and  C_18
REMARK    2  A    between atoms: C_13  and  O_23
REMARK    3  A    between atoms: N_15  and  C_20
REMARK    4  A    between atoms: O_23  and  C_24
REMARK    5  A    between atoms: C_24  and  C_28
REMARK                            x       y       z     vdW  Elec       q    Type
REMARK                         _______ _______ _______ _____ _____    ______ ____
ROOT
ATOM      1  O   UNL     1     -35.530  17.914  -1.029  0.00  0.00    -0.473 OA
ATOM      2  N   UNL     1     -36.129  19.912   1.171  0.00  0.00    -0.273 N 
ATOM      3  N   UNL     1     -34.482  20.122   2.622  0.00  0.00    -0.387 NA
ATOM      4  C   UNL     1     -34.832  19.545   1.478  0.00  0.00    +0.186 C 
ATOM      5  C   UNL     1     -36.929  19.541   0.022  0.00  0.00    +0.141 C 
ATOM      6  C   UNL     1     -33.937  18.663   0.703  0.00  0.00    +0.078 C 
ATOM      7  C   UNL     1     -35.558  20.849   3.048  0.00  0.00    +0.164 C 
ATOM      8  C   UNL     1     -36.597  20.732   2.164  0.00  0.00    +0.156 C 
ATOM      9  C   UNL     1     -36.099  19.209  -1.196  0.00  0.00    +0.227 C 
ATOM     10  C   UNL     1     -34.299  17.920  -0.433  0.00  0.00    +0.145 C 
ATOM     11  C   UNL     1     -32.612  18.522   1.169  0.00  0.00    +0.010 C 
ATOM     12  C   UNL     1     -33.382  17.042  -1.037  0.00  0.00    +0.074 C 
ATOM     13  C   UNL     1     -32.084  16.921  -0.554  0.00  0.00    +0.142 C 
ATOM     14  C   UNL     1     -31.696  17.667   0.549  0.00  0.00    +0.037 C 
ENDROOT
BRANCH   7  18
ATOM     15  N   UNL     1     -35.889  22.963   4.374  0.00  0.00    -0.193 N 
ATOM     16  N   UNL     1     -35.316  21.168   5.479  0.00  0.00    -0.204 NA
ATOM     17  N   UNL     1     -35.824  23.392   5.643  0.00  0.00    -0.154 NA
ATOM     18  C   UNL     1     -35.584  21.640   4.285  0.00  0.00    +0.180 C 
ATOM     19  C   UNL     1     -35.474  22.268   6.272  0.00  0.00    +0.218 C 
BRANCH  15  20
ATOM     20  C   UNL     1     -36.243  23.877   3.315  0.00  0.00    +0.098 C 
ATOM     21  C   UNL     1     -37.296  24.887   3.773  0.00  0.00    +0.024 C 
ATOM     22  C   UNL     1     -35.011  24.590   2.753  0.00  0.00    +0.024 C 
ENDBRANCH  15  20
ENDBRANCH   7  18
BRANCH  13  23
ATOM     23  O   UNL     1     -31.204  16.077  -1.155  0.00  0.00    -0.470 OA
BRANCH  23  24
ATOM     24  C   UNL     1     -31.448  14.677  -1.018  0.00  0.00    +0.241 C 
ATOM     25  C   UNL     1     -31.248  14.023  -2.376  0.00  0.00    +0.057 C 
BRANCH  24  28
ATOM     26  O   UNL     1     -29.341  14.509   0.164  0.00  0.00    -0.271 OA
ATOM     27  N   UNL     1     -31.050  13.101   0.775  0.00  0.00    -0.326 N 
ATOM     28  C   UNL     1     -30.491  14.103   0.015  0.00  0.00    +0.260 C 
ATOM     29  H   UNL     1     -30.518  12.659   1.476  0.00  0.00    +0.145 HD
ATOM     30  H   UNL     1     -31.983  12.827   0.620  0.00  0.00    +0.145 HD
ENDBRANCH  24  28
ENDBRANCH  23  24
ENDBRANCH  13  23
TORSDOF 5
ENDMDL
MODEL 6
REMARK VINA RESULT:      -6.3      1.537      1.684
REMARK  Name = 58204997
REMARK  5 active torsions:
REMARK  status: ('A' for Active; 'I' for Inactive)
REMARK    1  A    between atoms: C_7  and  C_18
REMARK    2  A    between atoms: C_13  and  O_23
REMARK    3  A    between atoms: N_15  and  C_20
REMARK    4  A    between atoms: O_23  and  C_24
REMARK    5  A    between atoms: C_24  and  C_28
REMARK                            x       y       z     vdW  Elec       q    Type
REMARK                         _______ _______ _______ _____ _____    ______ ____
ROOT
ATOM      1  O   UNL     1     -35.672  27.719   2.617  0.00  0.00    -0.473 OA
ATOM      2  N   UNL     1     -33.046  28.730   3.747  0.00  0.00    -0.273 N 
ATOM      3  N   UNL     1     -32.171  27.376   5.251  0.00  0.00    -0.387 NA
ATOM      4  C   UNL     1     -33.164  27.506   4.378  0.00  0.00    +0.186 C 
ATOM      5  C   UNL     1     -33.887  29.304   2.717  0.00  0.00    +0.141 C 
ATOM      6  C   UNL     1     -34.198  26.475   4.160  0.00  0.00    +0.078 C 
ATOM      7  C   UNL     1     -31.427  28.520   5.182  0.00  0.00    +0.164 C 
ATOM      8  C   UNL     1     -31.953  29.380   4.256  0.00  0.00    +0.156 C 
ATOM      9  C   UNL     1     -34.587  28.264   1.873  0.00  0.00    +0.227 C 
ATOM     10  C   UNL     1     -35.341  26.616   3.356  0.00  0.00    +0.145 C 
ATOM     11  C   UNL     1     -34.044  25.254   4.852  0.00  0.00    +0.010 C 
ATOM     12  C   UNL     1     -36.304  25.594   3.294  0.00  0.00    +0.074 C 
ATOM     13  C   UNL     1     -36.128  24.404   3.991  0.00  0.00    +0.142 C 
ATOM     14  C   UNL     1     -34.992  24.230   4.767  0.00  0.00    +0.037 C 
ENDROOT
BRANCH   7  18
ATOM     15  N   UNL     1     -28.959  28.432   5.668  0.00  0.00    -0.193 N 
ATOM     16  N   UNL     1     -30.239  29.389   7.159  0.00  0.00    -0.204 NA
ATOM     17  N   UNL     1     -28.092  28.810   6.620  0.00  0.00    -0.154 NA
ATOM     18  C   UNL     1     -30.233  28.780   5.996  0.00  0.00    +0.180 C 
ATOM     19  C   UNL     1     -28.917  29.383   7.499  0.00  0.00    +0.218 C 
BRANCH  15  20
ATOM     20  C   UNL     1     -28.489  27.748   4.488  0.00  0.00    +0.098 C 
ATOM     21  C   UNL     1     -28.132  28.732   3.372  0.00  0.00    +0.024 C 
ATOM     22  C   UNL     1     -27.307  26.829   4.804  0.00  0.00    +0.024 C 
ENDBRANCH  15  20
ENDBRANCH   7  18
BRANCH  13  23
ATOM     23  O   UNL     1     -37.062  23.418   3.913  0.00  0.00    -0.470 OA
BRANCH  23  24
ATOM     24  C   UNL     1     -37.216  22.768   2.652  0.00  0.00    +0.241 C 
ATOM     25  C   UNL     1     -36.329  21.534   2.641  0.00  0.00    +0.057 C 
BRANCH  24  28
ATOM     26  O   UNL     1     -39.588  23.222   2.465  0.00  0.00    -0.271 OA
ATOM     27  N   UNL     1     -38.872  21.049   2.250  0.00  0.00    -0.326 N 
ATOM     28  C   UNL     1     -38.677  22.396   2.457  0.00  0.00    +0.260 C 
ATOM     29  H   UNL     1     -39.782  20.698   2.112  0.00  0.00    +0.145 HD
ATOM     30  H   UNL     1     -38.102  20.436   2.239  0.00  0.00    +0.145 HD
ENDBRANCH  24  28
ENDBRANCH  23  24
ENDBRANCH  13  23
TORSDOF 5
ENDMDL
MODEL 7
REMARK VINA RESULT:      -6.2      6.704     11.162
REMARK  Name = 58204997
REMARK  5 active torsions:
REMARK  status: ('A' for Active; 'I' for Inactive)
REMARK    1  A    between atoms: C_7  and  C_18
REMARK    2  A    between atoms: C_13  and  O_23
REMARK    3  A    between atoms: N_15  and  C_20
REMARK    4  A    between atoms: O_23  and  C_24
REMARK    5  A    between atoms: C_24  and  C_28
REMARK                            x       y       z     vdW  Elec       q    Type
REMARK                         _______ _______ _______ _____ _____    ______ ____
ROOT
ATOM      1  O   UNL     1     -40.956  23.737   1.019  0.00  0.00    -0.473 OA
ATOM      2  N   UNL     1     -42.581  25.975   2.262  0.00  0.00    -0.273 N 
ATOM      3  N   UNL     1     -41.518  27.019   3.886  0.00  0.00    -0.387 NA
ATOM      4  C   UNL     1     -41.386  26.091   2.946  0.00  0.00    +0.186 C 
ATOM      5  C   UNL     1     -42.910  25.105   1.151  0.00  0.00    +0.141 C 
ATOM      6  C   UNL     1     -40.138  25.335   2.715  0.00  0.00    +0.078 C 
ATOM      7  C   UNL     1     -42.798  27.489   3.806  0.00  0.00    +0.164 C 
ATOM      8  C   UNL     1     -43.482  26.853   2.805  0.00  0.00    +0.156 C 
ATOM      9  C   UNL     1     -41.708  24.724   0.319  0.00  0.00    +0.227 C 
ATOM     10  C   UNL     1     -39.985  24.253   1.834  0.00  0.00    +0.145 C 
ATOM     11  C   UNL     1     -39.010  25.709   3.478  0.00  0.00    +0.010 C 
ATOM     12  C   UNL     1     -38.768  23.552   1.763  0.00  0.00    +0.074 C 
ATOM     13  C   UNL     1     -37.675  23.940   2.531  0.00  0.00    +0.142 C 
ATOM     14  C   UNL     1     -37.794  25.025   3.386  0.00  0.00    +0.037 C 
ENDROOT
BRANCH   7  18
ATOM     15  N   UNL     1     -44.632  28.580   5.142  0.00  0.00    -0.193 N 
ATOM     16  N   UNL     1     -42.679  29.560   5.137  0.00  0.00    -0.204 NA
ATOM     17  N   UNL     1     -44.827  29.656   5.918  0.00  0.00    -0.154 NA
ATOM     18  C   UNL     1     -43.353  28.530   4.681  0.00  0.00    +0.180 C 
ATOM     19  C   UNL     1     -43.615  30.216   5.883  0.00  0.00    +0.218 C 
BRANCH  15  20
ATOM     20  C   UNL     1     -45.714  27.659   4.892  0.00  0.00    +0.098 C 
ATOM     21  C   UNL     1     -45.772  26.558   5.952  0.00  0.00    +0.024 C 
ATOM     22  C   UNL     1     -47.057  28.385   4.785  0.00  0.00    +0.024 C 
ENDBRANCH  15  20
ENDBRANCH   7  18
BRANCH  13  23
ATOM     23  O   UNL     1     -36.500  23.261   2.444  0.00  0.00    -0.470 OA
BRANCH  23  24
ATOM     24  C   UNL     1     -36.296  22.195   3.372  0.00  0.00    +0.241 C 
ATOM     25  C   UNL     1     -35.487  21.110   2.680  0.00  0.00    +0.057 C 
BRANCH  24  28
ATOM     26  O   UNL     1     -34.687  23.586   4.530  0.00  0.00    -0.271 OA
ATOM     27  N   UNL     1     -36.005  22.174   5.774  0.00  0.00    -0.326 N 
ATOM     28  C   UNL     1     -35.566  22.730   4.594  0.00  0.00    +0.260 C 
ATOM     29  H   UNL     1     -35.601  22.450   6.628  0.00  0.00    +0.145 HD
ATOM     30  H   UNL     1     -36.724  21.501   5.765  0.00  0.00    +0.145 HD
ENDBRANCH  24  28
ENDBRANCH  23  24
ENDBRANCH  13  23
TORSDOF 5
ENDMDL
MODEL 8
REMARK VINA RESULT:      -6.2      3.685      6.470
REMARK  Name = 58204997
REMARK  5 active torsions:
REMARK  status: ('A' for Active; 'I' for Inactive)
REMARK    1  A    between atoms: C_7  and  C_18
REMARK    2  A    between atoms: C_13  and  O_23
REMARK    3  A    between atoms: N_15  and  C_20
REMARK    4  A    between atoms: O_23  and  C_24
REMARK    5  A    between atoms: C_24  and  C_28
REMARK                            x       y       z     vdW  Elec       q    Type
REMARK                         _______ _______ _______ _____ _____    ______ ____
ROOT
ATOM      1  O   UNL     1     -38.796  22.714   2.437  0.00  0.00    -0.473 OA
ATOM      2  N   UNL     1     -37.092  24.886   3.690  0.00  0.00    -0.273 N 
ATOM      3  N   UNL     1     -34.962  24.338   3.841  0.00  0.00    -0.387 NA
ATOM      4  C   UNL     1     -36.138  23.939   3.370  0.00  0.00    +0.186 C 
ATOM      5  C   UNL     1     -38.507  24.891   3.378  0.00  0.00    +0.141 C 
ATOM      6  C   UNL     1     -36.334  22.676   2.631  0.00  0.00    +0.078 C 
ATOM      7  C   UNL     1     -35.168  25.534   4.468  0.00  0.00    +0.164 C 
ATOM      8  C   UNL     1     -36.486  25.896   4.391  0.00  0.00    +0.156 C 
ATOM      9  C   UNL     1     -38.842  24.104   2.133  0.00  0.00    +0.227 C 
ATOM     10  C   UNL     1     -37.570  22.141   2.233  0.00  0.00    +0.145 C 
ATOM     11  C   UNL     1     -35.179  21.921   2.332  0.00  0.00    +0.010 C 
ATOM     12  C   UNL     1     -37.640  20.882   1.611  0.00  0.00    +0.074 C 
ATOM     13  C   UNL     1     -36.486  20.158   1.334  0.00  0.00    +0.142 C 
ATOM     14  C   UNL     1     -35.251  20.681   1.689  0.00  0.00    +0.037 C 
ENDROOT
BRANCH   7  18
ATOM     15  N   UNL     1     -33.246  27.159   4.512  0.00  0.00    -0.193 N 
ATOM     16  N   UNL     1     -33.872  26.297   6.420  0.00  0.00    -0.204 NA
ATOM     17  N   UNL     1     -32.404  27.720   5.393  0.00  0.00    -0.154 NA
ATOM     18  C   UNL     1     -34.115  26.314   5.130  0.00  0.00    +0.180 C 
ATOM     19  C   UNL     1     -32.825  27.166   6.533  0.00  0.00    +0.218 C 
BRANCH  15  20
ATOM     20  C   UNL     1     -33.149  27.480   3.109  0.00  0.00    +0.098 C 
ATOM     21  C   UNL     1     -33.333  28.979   2.862  0.00  0.00    +0.024 C 
ATOM     22  C   UNL     1     -31.831  26.986   2.509  0.00  0.00    +0.024 C 
ENDBRANCH  15  20
ENDBRANCH   7  18
BRANCH  13  23
ATOM     23  O   UNL     1     -36.566  18.947   0.719  0.00  0.00    -0.470 OA
BRANCH  23  24
ATOM     24  C   UNL     1     -37.429  18.850  -0.414  0.00  0.00    +0.241 C 
ATOM     25  C   UNL     1     -36.611  19.141  -1.662  0.00  0.00    +0.057 C 
BRANCH  24  28
ATOM     26  O   UNL     1     -38.924  17.137  -1.247  0.00  0.00    -0.271 OA
ATOM     27  N   UNL     1     -37.459  16.584   0.435  0.00  0.00    -0.326 N 
ATOM     28  C   UNL     1     -38.030  17.455  -0.465  0.00  0.00    +0.260 C 
ATOM     29  H   UNL     1     -37.774  15.653   0.487  0.00  0.00    +0.145 HD
ATOM     30  H   UNL     1     -36.736  16.892   1.028  0.00  0.00    +0.145 HD
ENDBRANCH  24  28
ENDBRANCH  23  24
ENDBRANCH  13  23
TORSDOF 5
ENDMDL
MODEL 9
REMARK VINA RESULT:      -6.1      2.586      9.349
REMARK  Name = 58204997
REMARK  5 active torsions:
REMARK  status: ('A' for Active; 'I' for Inactive)
REMARK    1  A    between atoms: C_7  and  C_18
REMARK    2  A    between atoms: C_13  and  O_23
REMARK    3  A    between atoms: N_15  and  C_20
REMARK    4  A    between atoms: O_23  and  C_24
REMARK    5  A    between atoms: C_24  and  C_28
REMARK                            x       y       z     vdW  Elec       q    Type
REMARK                         _______ _______ _______ _____ _____    ______ ____
ROOT
ATOM      1  O   UNL     1     -33.576  27.763   2.147  0.00  0.00    -0.473 OA
ATOM      2  N   UNL     1     -35.991  26.063   1.459  0.00  0.00    -0.273 N 
ATOM      3  N   UNL     1     -36.602  24.723   3.100  0.00  0.00    -0.387 NA
ATOM      4  C   UNL     1     -35.765  25.701   2.774  0.00  0.00    +0.186 C 
ATOM      5  C   UNL     1     -35.331  27.086   0.674  0.00  0.00    +0.141 C 
ATOM      6  C   UNL     1     -34.773  26.270   3.708  0.00  0.00    +0.078 C 
ATOM      7  C   UNL     1     -37.355  24.457   1.991  0.00  0.00    +0.164 C 
ATOM      8  C   UNL     1     -36.992  25.274   0.955  0.00  0.00    +0.156 C 
ATOM      9  C   UNL     1     -34.771  28.210   1.514  0.00  0.00    +0.227 C 
ATOM     10  C   UNL     1     -33.776  27.202   3.379  0.00  0.00    +0.145 C 
ATOM     11  C   UNL     1     -34.805  25.805   5.041  0.00  0.00    +0.010 C 
ATOM     12  C   UNL     1     -32.828  27.606   4.335  0.00  0.00    +0.074 C 
ATOM     13  C   UNL     1     -32.881  27.128   5.639  0.00  0.00    +0.142 C 
ATOM     14  C   UNL     1     -33.876  26.229   5.995  0.00  0.00    +0.037 C 
ENDROOT
BRANCH   7  18
ATOM     15  N   UNL     1     -39.739  23.667   1.809  0.00  0.00    -0.193 N 
ATOM     16  N   UNL     1     -38.189  22.137   1.985  0.00  0.00    -0.204 NA
ATOM     17  N   UNL     1     -40.434  22.521   1.783  0.00  0.00    -0.154 NA
ATOM     18  C   UNL     1     -38.405  23.431   1.931  0.00  0.00    +0.180 C 
ATOM     19  C   UNL     1     -39.451  21.625   1.892  0.00  0.00    +0.218 C 
BRANCH  15  20
ATOM     20  C   UNL     1     -40.422  24.934   1.717  0.00  0.00    +0.098 C 
ATOM     21  C   UNL     1     -41.799  24.785   1.066  0.00  0.00    +0.024 C 
ATOM     22  C   UNL     1     -40.536  25.612   3.084  0.00  0.00    +0.024 C 
ENDBRANCH  15  20
ENDBRANCH   7  18
BRANCH  13  23
ATOM     23  O   UNL     1     -31.966  27.536   6.558  0.00  0.00    -0.470 OA
BRANCH  23  24
ATOM     24  C   UNL     1     -31.149  28.653   6.208  0.00  0.00    +0.241 C 
ATOM     25  C   UNL     1     -31.564  29.836   7.068  0.00  0.00    +0.057 C 
BRANCH  24  28
ATOM     26  O   UNL     1     -29.070  27.509   5.722  0.00  0.00    -0.271 OA
ATOM     27  N   UNL     1     -29.129  28.953   7.508  0.00  0.00    -0.326 N 
ATOM     28  C   UNL     1     -29.689  28.295   6.437  0.00  0.00    +0.260 C 
ATOM     29  H   UNL     1     -28.186  28.795   7.745  0.00  0.00    +0.145 HD
ATOM     30  H   UNL     1     -29.670  29.584   8.037  0.00  0.00    +0.145 HD
ENDBRANCH  24  28
ENDBRANCH  23  24
ENDBRANCH  13  23
TORSDOF 5
ENDMDL
