MODEL 1
REMARK VINA RESULT:      -6.2      0.000      0.000
REMARK  Name = 20373952
REMARK  6 active torsions:
REMARK  status: ('A' for Active; 'I' for Inactive)
REMARK    1  A    between atoms: C_3  and  N_15
REMARK    2  A    between atoms: C_4  and  S_11
REMARK    3  A    between atoms: N_15  and  C_17
REMARK    4  A    between atoms: C_17  and  C_18
REMARK    5  A    between atoms: C_18  and  N_20
REMARK    6  A    between atoms: C_21  and  C_24
REMARK                            x       y       z     vdW  Elec       q    Type
REMARK                         _______ _______ _______ _____ _____    ______ ____
ROOT
ATOM      1  C   UNL     1     -35.304  22.688   3.503  0.00  0.00    +0.014 C 
ATOM      2  C   UNL     1     -34.824  24.019   3.511  0.00  0.00    +0.019 C 
ATOM      3  C   UNL     1     -35.504  22.037   2.275  0.00  0.00    +0.045 C 
ATOM      4  C   UNL     1     -34.624  24.670   4.739  0.00  0.00    +0.112 C 
ATOM      5  C   UNL     1     -35.571  22.048   4.724  0.00  0.00    +0.001 C 
ATOM      6  C   UNL     1     -34.557  24.659   2.289  0.00  0.00    +0.001 C 
ATOM      7  C   UNL     1     -35.233  22.688   1.072  0.00  0.00    +0.014 C 
ATOM      8  C   UNL     1     -34.895  24.019   5.942  0.00  0.00    +0.019 C 
ATOM      9  C   UNL     1     -34.761  23.998   1.078  0.00  0.00    +0.001 C 
ATOM     10  C   UNL     1     -35.367  22.710   5.935  0.00  0.00    +0.001 C 
ENDROOT
BRANCH   4  11
ATOM     11  S   UNL     1     -34.033  26.321   4.856  0.00  0.00    +0.042 S 
ATOM     12  O   UNL     1     -33.881  26.526   6.301  0.00  0.00    -0.065 OA
ATOM     13  O   UNL     1     -32.765  26.335   4.114  0.00  0.00    -0.065 OA
ATOM     14  O   UNL     1     -35.098  27.111   4.226  0.00  0.00    -0.065 OA
ENDBRANCH   4  11
BRANCH   3  15
ATOM     15  N   UNL     1     -35.984  20.706   2.211  0.00  0.00    -0.331 N 
ATOM     16  H   UNL     1     -36.587  20.386   2.921  0.00  0.00    +0.147 HD
BRANCH  15  17
ATOM     17  C   UNL     1     -35.629  19.808   1.159  0.00  0.00    +0.109 C 
BRANCH  17  18
ATOM     18  C   UNL     1     -34.204  19.311   1.344  0.00  0.00    +0.111 C 
BRANCH  18  20
ATOM     19  O   UNL     1     -31.849  17.660   1.529  0.00  0.00    -0.274 OA
ATOM     20  N   UNL     1     -33.969  18.064   0.668  0.00  0.00    -0.302 N 
ATOM     21  C   UNL     1     -32.798  17.333   0.818  0.00  0.00    +0.233 C 
ATOM     22  H   UNL     1     -34.670  17.712   0.072  0.00  0.00    +0.150 HD
BRANCH  21  24
ATOM     23  I   UNL     1     -34.754  15.708  -0.671  0.00  0.00    -0.064 I 
ATOM     24  C   UNL     1     -32.780  16.064  -0.005  0.00  0.00    +0.147 C 
ENDBRANCH  21  24
ENDBRANCH  18  20
ENDBRANCH  17  18
ENDBRANCH  15  17
ENDBRANCH   3  15
TORSDOF 6
ENDMDL
MODEL 2
REMARK VINA RESULT:      -6.2      3.478      4.474
REMARK  Name = 20373952
REMARK  6 active torsions:
REMARK  status: ('A' for Active; 'I' for Inactive)
REMARK    1  A    between atoms: C_3  and  N_15
REMARK    2  A    between atoms: C_4  and  S_11
REMARK    3  A    between atoms: N_15  and  C_17
REMARK    4  A    between atoms: C_17  and  C_18
REMARK    5  A    between atoms: C_18  and  N_20
REMARK    6  A    between atoms: C_21  and  C_24
REMARK                            x       y       z     vdW  Elec       q    Type
REMARK                         _______ _______ _______ _____ _____    ______ ____
ROOT
ATOM      1  C   UNL     1     -35.203  22.739   3.128  0.00  0.00    +0.014 C 
ATOM      2  C   UNL     1     -34.726  24.062   3.282  0.00  0.00    +0.019 C 
ATOM      3  C   UNL     1     -35.274  22.179   1.843  0.00  0.00    +0.045 C 
ATOM      4  C   UNL     1     -34.656  24.622   4.568  0.00  0.00    +0.112 C 
ATOM      5  C   UNL     1     -35.597  22.015   4.266  0.00  0.00    +0.001 C 
ATOM      6  C   UNL     1     -34.332  24.786   2.144  0.00  0.00    +0.001 C 
ATOM      7  C   UNL     1     -34.878  22.912   0.724  0.00  0.00    +0.014 C 
ATOM      8  C   UNL     1     -35.051  23.889   5.686  0.00  0.00    +0.019 C 
ATOM      9  C   UNL     1     -34.409  24.214   0.874  0.00  0.00    +0.001 C 
ATOM     10  C   UNL     1     -35.521  22.588   5.535  0.00  0.00    +0.001 C 
ENDROOT
BRANCH   4  11
ATOM     11  S   UNL     1     -34.078  26.256   4.864  0.00  0.00    +0.042 S 
ATOM     12  O   UNL     1     -35.116  27.098   4.259  0.00  0.00    -0.065 OA
ATOM     13  O   UNL     1     -33.987  26.377   6.326  0.00  0.00    -0.065 OA
ATOM     14  O   UNL     1     -32.778  26.287   4.183  0.00  0.00    -0.065 OA
ENDBRANCH   4  11
BRANCH   3  15
ATOM     15  N   UNL     1     -35.745  20.859   1.633  0.00  0.00    -0.331 N 
ATOM     16  H   UNL     1     -35.599  20.188   2.339  0.00  0.00    +0.147 HD
BRANCH  15  17
ATOM     17  C   UNL     1     -36.423  20.463   0.441  0.00  0.00    +0.109 C 
BRANCH  17  18
ATOM     18  C   UNL     1     -37.926  20.429   0.673  0.00  0.00    +0.111 C 
BRANCH  18  20
ATOM     19  O   UNL     1     -40.326  21.155   2.096  0.00  0.00    -0.274 OA
ATOM     20  N   UNL     1     -38.487  21.747   0.803  0.00  0.00    -0.302 N 
ATOM     21  C   UNL     1     -39.654  22.004   1.511  0.00  0.00    +0.233 C 
ATOM     22  H   UNL     1     -38.024  22.501   0.370  0.00  0.00    +0.150 HD
BRANCH  21  24
ATOM     23  I   UNL     1     -38.747  24.495   2.798  0.00  0.00    -0.064 I 
ATOM     24  C   UNL     1     -40.050  23.463   1.493  0.00  0.00    +0.147 C 
ENDBRANCH  21  24
ENDBRANCH  18  20
ENDBRANCH  17  18
ENDBRANCH  15  17
ENDBRANCH   3  15
TORSDOF 6
ENDMDL
MODEL 3
REMARK VINA RESULT:      -6.1      3.837      4.865
REMARK  Name = 20373952
REMARK  6 active torsions:
REMARK  status: ('A' for Active; 'I' for Inactive)
REMARK    1  A    between atoms: C_3  and  N_15
REMARK    2  A    between atoms: C_4  and  S_11
REMARK    3  A    between atoms: N_15  and  C_17
REMARK    4  A    between atoms: C_17  and  C_18
REMARK    5  A    between atoms: C_18  and  N_20
REMARK    6  A    between atoms: C_21  and  C_24
REMARK                            x       y       z     vdW  Elec       q    Type
REMARK                         _______ _______ _______ _____ _____    ______ ____
ROOT
ATOM      1  C   UNL     1     -35.221  23.111   3.279  0.00  0.00    +0.014 C 
ATOM      2  C   UNL     1     -34.601  24.383   3.271  0.00  0.00    +0.019 C 
ATOM      3  C   UNL     1     -35.375  22.414   2.070  0.00  0.00    +0.045 C 
ATOM      4  C   UNL     1     -34.447  25.080   4.480  0.00  0.00    +0.112 C 
ATOM      5  C   UNL     1     -35.670  22.575   4.497  0.00  0.00    +0.001 C 
ATOM      6  C   UNL     1     -34.152  24.920   2.053  0.00  0.00    +0.001 C 
ATOM      7  C   UNL     1     -34.924  22.962   0.870  0.00  0.00    +0.014 C 
ATOM      8  C   UNL     1     -34.899  24.532   5.680  0.00  0.00    +0.019 C 
ATOM      9  C   UNL     1     -34.313  24.213   0.861  0.00  0.00    +0.001 C 
ATOM     10  C   UNL     1     -35.509  23.281   5.689  0.00  0.00    +0.001 C 
ENDROOT
BRANCH   4  11
ATOM     11  S   UNL     1     -33.691  26.664   4.576  0.00  0.00    +0.042 S 
ATOM     12  O   UNL     1     -32.429  26.483   3.852  0.00  0.00    -0.065 OA
ATOM     13  O   UNL     1     -34.630  27.584   3.920  0.00  0.00    -0.065 OA
ATOM     14  O   UNL     1     -33.551  26.888   6.021  0.00  0.00    -0.065 OA
ENDBRANCH   4  11
BRANCH   3  15
ATOM     15  N   UNL     1     -35.990  21.139   2.023  0.00  0.00    -0.331 N 
ATOM     16  H   UNL     1     -35.582  20.399   2.529  0.00  0.00    +0.147 HD
BRANCH  15  17
ATOM     17  C   UNL     1     -37.177  20.882   1.273  0.00  0.00    +0.109 C 
BRANCH  17  18
ATOM     18  C   UNL     1     -38.384  21.497   1.964  0.00  0.00    +0.111 C 
BRANCH  18  20
ATOM     19  O   UNL     1     -38.620  24.015   3.348  0.00  0.00    -0.274 OA
ATOM     20  N   UNL     1     -38.752  22.765   1.393  0.00  0.00    -0.302 N 
ATOM     21  C   UNL     1     -38.840  23.932   2.141  0.00  0.00    +0.233 C 
ATOM     22  H   UNL     1     -38.950  22.808   0.429  0.00  0.00    +0.150 HD
BRANCH  21  24
ATOM     23  I   UNL     1     -37.664  26.520   1.364  0.00  0.00    -0.064 I 
ATOM     24  C   UNL     1     -39.258  25.133   1.321  0.00  0.00    +0.147 C 
ENDBRANCH  21  24
ENDBRANCH  18  20
ENDBRANCH  17  18
ENDBRANCH  15  17
ENDBRANCH   3  15
TORSDOF 6
ENDMDL
MODEL 4
REMARK VINA RESULT:      -6.1      3.587      4.917
REMARK  Name = 20373952
REMARK  6 active torsions:
REMARK  status: ('A' for Active; 'I' for Inactive)
REMARK    1  A    between atoms: C_3  and  N_15
REMARK    2  A    between atoms: C_4  and  S_11
REMARK    3  A    between atoms: N_15  and  C_17
REMARK    4  A    between atoms: C_17  and  C_18
REMARK    5  A    between atoms: C_18  and  N_20
REMARK    6  A    between atoms: C_21  and  C_24
REMARK                            x       y       z     vdW  Elec       q    Type
REMARK                         _______ _______ _______ _____ _____    ______ ____
ROOT
ATOM      1  C   UNL     1     -34.948  23.075   2.958  0.00  0.00    +0.014 C 
ATOM      2  C   UNL     1     -34.791  24.060   3.962  0.00  0.00    +0.019 C 
ATOM      3  C   UNL     1     -35.298  21.767   3.329  0.00  0.00    +0.045 C 
ATOM      4  C   UNL     1     -34.441  25.369   3.592  0.00  0.00    +0.112 C 
ATOM      5  C   UNL     1     -34.748  23.428   1.614  0.00  0.00    +0.001 C 
ATOM      6  C   UNL     1     -34.990  23.708   5.307  0.00  0.00    +0.001 C 
ATOM      7  C   UNL     1     -35.492  21.435   4.669  0.00  0.00    +0.014 C 
ATOM      8  C   UNL     1     -34.247  25.701   2.251  0.00  0.00    +0.019 C 
ATOM      9  C   UNL     1     -35.338  22.403   5.657  0.00  0.00    +0.001 C 
ATOM     10  C   UNL     1     -34.400  24.733   1.264  0.00  0.00    +0.001 C 
ENDROOT
BRANCH   4  11
ATOM     11  S   UNL     1     -34.222  26.663   4.761  0.00  0.00    +0.042 S 
ATOM     12  O   UNL     1     -35.500  26.690   5.481  0.00  0.00    -0.065 OA
ATOM     13  O   UNL     1     -33.079  26.252   5.587  0.00  0.00    -0.065 OA
ATOM     14  O   UNL     1     -33.957  27.839   3.922  0.00  0.00    -0.065 OA
ENDBRANCH   4  11
BRANCH   3  15
ATOM     15  N   UNL     1     -35.467  20.743   2.364  0.00  0.00    -0.331 N 
ATOM     16  H   UNL     1     -34.672  20.405   1.890  0.00  0.00    +0.147 HD
BRANCH  15  17
ATOM     17  C   UNL     1     -36.741  20.180   2.051  0.00  0.00    +0.109 C 
BRANCH  17  18
ATOM     18  C   UNL     1     -37.413  20.975   0.943  0.00  0.00    +0.111 C 
BRANCH  18  20
ATOM     19  O   UNL     1     -40.238  21.061   1.513  0.00  0.00    -0.274 OA
ATOM     20  N   UNL     1     -38.158  22.096   1.451  0.00  0.00    -0.302 N 
ATOM     21  C   UNL     1     -39.523  22.046   1.696  0.00  0.00    +0.233 C 
ATOM     22  H   UNL     1     -37.677  22.937   1.632  0.00  0.00    +0.150 HD
BRANCH  21  24
ATOM     23  I   UNL     1     -38.457  24.674   2.498  0.00  0.00    -0.064 I 
ATOM     24  C   UNL     1     -40.082  23.352   2.214  0.00  0.00    +0.147 C 
ENDBRANCH  21  24
ENDBRANCH  18  20
ENDBRANCH  17  18
ENDBRANCH  15  17
ENDBRANCH   3  15
TORSDOF 6
ENDMDL
MODEL 5
REMARK VINA RESULT:      -6.0      2.580      2.787
REMARK  Name = 20373952
REMARK  6 active torsions:
REMARK  status: ('A' for Active; 'I' for Inactive)
REMARK    1  A    between atoms: C_3  and  N_15
REMARK    2  A    between atoms: C_4  and  S_11
REMARK    3  A    between atoms: N_15  and  C_17
REMARK    4  A    between atoms: C_17  and  C_18
REMARK    5  A    between atoms: C_18  and  N_20
REMARK    6  A    between atoms: C_21  and  C_24
REMARK                            x       y       z     vdW  Elec       q    Type
REMARK                         _______ _______ _______ _____ _____    ______ ____
ROOT
ATOM      1  C   UNL     1     -35.209  22.638   3.419  0.00  0.00    +0.014 C 
ATOM      2  C   UNL     1     -34.760  23.979   3.447  0.00  0.00    +0.019 C 
ATOM      3  C   UNL     1     -35.303  21.970   2.187  0.00  0.00    +0.045 C 
ATOM      4  C   UNL     1     -34.666  24.646   4.679  0.00  0.00    +0.112 C 
ATOM      5  C   UNL     1     -35.554  22.004   4.624  0.00  0.00    +0.001 C 
ATOM      6  C   UNL     1     -34.416  24.613   2.242  0.00  0.00    +0.001 C 
ATOM      7  C   UNL     1     -34.957  22.616   1.000  0.00  0.00    +0.014 C 
ATOM      8  C   UNL     1     -35.012  24.001   5.866  0.00  0.00    +0.019 C 
ATOM      9  C   UNL     1     -34.514  23.935   1.027  0.00  0.00    +0.001 C 
ATOM     10  C   UNL     1     -35.455  22.682   5.838  0.00  0.00    +0.001 C 
ENDROOT
BRANCH   4  11
ATOM     11  S   UNL     1     -34.120  26.310   4.822  0.00  0.00    +0.042 S 
ATOM     12  O   UNL     1     -32.849  26.315   4.088  0.00  0.00    -0.065 OA
ATOM     13  O   UNL     1     -35.174  27.121   4.197  0.00  0.00    -0.065 OA
ATOM     14  O   UNL     1     -33.999  26.507   6.272  0.00  0.00    -0.065 OA
ENDBRANCH   4  11
BRANCH   3  15
ATOM     15  N   UNL     1     -35.748  20.628   2.102  0.00  0.00    -0.331 N 
ATOM     16  H   UNL     1     -35.162  19.914   2.441  0.00  0.00    +0.147 HD
BRANCH  15  17
ATOM     17  C   UNL     1     -37.013  20.269   1.546  0.00  0.00    +0.109 C 
BRANCH  17  18
ATOM     18  C   UNL     1     -36.822  19.483   0.259  0.00  0.00    +0.111 C 
BRANCH  18  20
ATOM     19  O   UNL     1     -38.392  17.803  -1.480  0.00  0.00    -0.274 OA
ATOM     20  N   UNL     1     -37.097  18.081   0.430  0.00  0.00    -0.302 N 
ATOM     21  C   UNL     1     -37.868  17.349  -0.464  0.00  0.00    +0.233 C 
ATOM     22  H   UNL     1     -36.723  17.621   1.216  0.00  0.00    +0.150 HD
BRANCH  21  24
ATOM     23  I   UNL     1     -39.738  15.148  -1.049  0.00  0.00    -0.064 I 
ATOM     24  C   UNL     1     -38.027  15.900  -0.062  0.00  0.00    +0.147 C 
ENDBRANCH  21  24
ENDBRANCH  18  20
ENDBRANCH  17  18
ENDBRANCH  15  17
ENDBRANCH   3  15
TORSDOF 6
ENDMDL
MODEL 6
REMARK VINA RESULT:      -6.0      1.473      1.553
REMARK  Name = 20373952
REMARK  6 active torsions:
REMARK  status: ('A' for Active; 'I' for Inactive)
REMARK    1  A    between atoms: C_3  and  N_15
REMARK    2  A    between atoms: C_4  and  S_11
REMARK    3  A    between atoms: N_15  and  C_17
REMARK    4  A    between atoms: C_17  and  C_18
REMARK    5  A    between atoms: C_18  and  N_20
REMARK    6  A    between atoms: C_21  and  C_24
REMARK                            x       y       z     vdW  Elec       q    Type
REMARK                         _______ _______ _______ _____ _____    ______ ____
ROOT
ATOM      1  C   UNL     1     -35.322  22.652   3.410  0.00  0.00    +0.014 C 
ATOM      2  C   UNL     1     -34.841  23.983   3.437  0.00  0.00    +0.019 C 
ATOM      3  C   UNL     1     -35.495  22.008   2.175  0.00  0.00    +0.045 C 
ATOM      4  C   UNL     1     -34.669  24.627   4.673  0.00  0.00    +0.112 C 
ATOM      5  C   UNL     1     -35.618  22.006   4.622  0.00  0.00    +0.001 C 
ATOM      6  C   UNL     1     -34.546  24.629   2.226  0.00  0.00    +0.001 C 
ATOM      7  C   UNL     1     -35.196  22.666   0.982  0.00  0.00    +0.014 C 
ATOM      8  C   UNL     1     -34.968  23.969   5.866  0.00  0.00    +0.019 C 
ATOM      9  C   UNL     1     -34.723  23.975   1.006  0.00  0.00    +0.001 C 
ATOM     10  C   UNL     1     -35.441  22.661   5.840  0.00  0.00    +0.001 C 
ENDROOT
BRANCH   4  11
ATOM     11  S   UNL     1     -34.079  26.276   4.813  0.00  0.00    +0.042 S 
ATOM     12  O   UNL     1     -33.936  26.464   6.261  0.00  0.00    -0.065 OA
ATOM     13  O   UNL     1     -32.806  26.298   4.079  0.00  0.00    -0.065 OA
ATOM     14  O   UNL     1     -35.140  27.074   4.185  0.00  0.00    -0.065 OA
ENDBRANCH   4  11
BRANCH   3  15
ATOM     15  N   UNL     1     -35.974  20.678   2.092  0.00  0.00    -0.331 N 
ATOM     16  H   UNL     1     -35.858  20.085   2.870  0.00  0.00    +0.147 HD
BRANCH  15  17
ATOM     17  C   UNL     1     -36.619  20.161   0.928  0.00  0.00    +0.109 C 
BRANCH  17  18
ATOM     18  C   UNL     1     -35.853  18.965   0.385  0.00  0.00    +0.111 C 
BRANCH  18  20
ATOM     19  O   UNL     1     -33.326  18.849   1.766  0.00  0.00    -0.274 OA
ATOM     20  N   UNL     1     -34.565  19.335  -0.139  0.00  0.00    -0.302 N 
ATOM     21  C   UNL     1     -33.396  19.245   0.604  0.00  0.00    +0.233 C 
ATOM     22  H   UNL     1     -34.511  19.666  -1.064  0.00  0.00    +0.150 HD
BRANCH  21  24
ATOM     23  I   UNL     1     -30.655  18.263   0.146  0.00  0.00    -0.064 I 
ATOM     24  C   UNL     1     -32.172  19.703  -0.158  0.00  0.00    +0.147 C 
ENDBRANCH  21  24
ENDBRANCH  18  20
ENDBRANCH  17  18
ENDBRANCH  15  17
ENDBRANCH   3  15
TORSDOF 6
ENDMDL
MODEL 7
REMARK VINA RESULT:      -5.9      2.545      3.400
REMARK  Name = 20373952
REMARK  6 active torsions:
REMARK  status: ('A' for Active; 'I' for Inactive)
REMARK    1  A    between atoms: C_3  and  N_15
REMARK    2  A    between atoms: C_4  and  S_11
REMARK    3  A    between atoms: N_15  and  C_17
REMARK    4  A    between atoms: C_17  and  C_18
REMARK    5  A    between atoms: C_18  and  N_20
REMARK    6  A    between atoms: C_21  and  C_24
REMARK                            x       y       z     vdW  Elec       q    Type
REMARK                         _______ _______ _______ _____ _____    ______ ____
ROOT
ATOM      1  C   UNL     1     -35.106  22.863   3.193  0.00  0.00    +0.014 C 
ATOM      2  C   UNL     1     -34.901  23.900   4.133  0.00  0.00    +0.019 C 
ATOM      3  C   UNL     1     -35.353  21.559   3.653  0.00  0.00    +0.045 C 
ATOM      4  C   UNL     1     -34.654  25.204   3.673  0.00  0.00    +0.112 C 
ATOM      5  C   UNL     1     -35.057  23.159   1.821  0.00  0.00    +0.001 C 
ATOM      6  C   UNL     1     -34.950  23.604   5.505  0.00  0.00    +0.001 C 
ATOM      7  C   UNL     1     -35.398  21.282   5.019  0.00  0.00    +0.014 C 
ATOM      8  C   UNL     1     -34.609  25.481   2.307  0.00  0.00    +0.019 C 
ATOM      9  C   UNL     1     -35.196  22.303   5.944  0.00  0.00    +0.001 C 
ATOM     10  C   UNL     1     -34.810  24.460   1.383  0.00  0.00    +0.001 C 
ENDROOT
BRANCH   4  11
ATOM     11  S   UNL     1     -34.386  26.561   4.758  0.00  0.00    +0.042 S 
ATOM     12  O   UNL     1     -35.579  26.553   5.612  0.00  0.00    -0.065 OA
ATOM     13  O   UNL     1     -33.139  26.252   5.469  0.00  0.00    -0.065 OA
ATOM     14  O   UNL     1     -34.283  27.710   3.848  0.00  0.00    -0.065 OA
ENDBRANCH   4  11
BRANCH   3  15
ATOM     15  N   UNL     1     -35.563  20.483   2.755  0.00  0.00    -0.331 N 
ATOM     16  H   UNL     1     -34.833  19.838   2.611  0.00  0.00    +0.147 HD
BRANCH  15  17
ATOM     17  C   UNL     1     -36.791  20.296   2.051  0.00  0.00    +0.109 C 
BRANCH  17  18
ATOM     18  C   UNL     1     -36.529  19.685   0.683  0.00  0.00    +0.111 C 
BRANCH  18  20
ATOM     19  O   UNL     1     -38.214  18.288  -1.193  0.00  0.00    -0.274 OA
ATOM     20  N   UNL     1     -36.804  18.274   0.654  0.00  0.00    -0.302 N 
ATOM     21  C   UNL     1     -37.633  17.686  -0.292  0.00  0.00    +0.233 C 
ATOM     22  H   UNL     1     -36.385  17.699   1.336  0.00  0.00    +0.150 HD
BRANCH  21  24
ATOM     23  I   UNL     1     -39.533  15.590  -1.118  0.00  0.00    -0.064 I 
ATOM     24  C   UNL     1     -37.777  16.191  -0.108  0.00  0.00    +0.147 C 
ENDBRANCH  21  24
ENDBRANCH  18  20
ENDBRANCH  17  18
ENDBRANCH  15  17
ENDBRANCH   3  15
TORSDOF 6
ENDMDL
MODEL 8
REMARK VINA RESULT:      -5.8      4.269      7.110
REMARK  Name = 20373952
REMARK  6 active torsions:
REMARK  status: ('A' for Active; 'I' for Inactive)
REMARK    1  A    between atoms: C_3  and  N_15
REMARK    2  A    between atoms: C_4  and  S_11
REMARK    3  A    between atoms: N_15  and  C_17
REMARK    4  A    between atoms: C_17  and  C_18
REMARK    5  A    between atoms: C_18  and  N_20
REMARK    6  A    between atoms: C_21  and  C_24
REMARK                            x       y       z     vdW  Elec       q    Type
REMARK                         _______ _______ _______ _____ _____    ______ ____
ROOT
ATOM      1  C   UNL     1     -33.108  20.237   0.667  0.00  0.00    +0.014 C 
ATOM      2  C   UNL     1     -31.895  20.393  -0.045  0.00  0.00    +0.019 C 
ATOM      3  C   UNL     1     -34.050  21.278   0.656  0.00  0.00    +0.045 C 
ATOM      4  C   UNL     1     -30.953  19.352  -0.034  0.00  0.00    +0.112 C 
ATOM      5  C   UNL     1     -33.341  19.044   1.370  0.00  0.00    +0.001 C 
ATOM      6  C   UNL     1     -31.661  21.586  -0.749  0.00  0.00    +0.001 C 
ATOM      7  C   UNL     1     -33.801  22.456  -0.048  0.00  0.00    +0.014 C 
ATOM      8  C   UNL     1     -31.202  18.174   0.670  0.00  0.00    +0.019 C 
ATOM      9  C   UNL     1     -32.608  22.610  -0.749  0.00  0.00    +0.001 C 
ATOM     10  C   UNL     1     -32.394  18.020   1.371  0.00  0.00    +0.001 C 
ENDROOT
BRANCH   4  11
ATOM     11  S   UNL     1     -29.418  19.447  -0.886  0.00  0.00    +0.042 S 
ATOM     12  O   UNL     1     -29.814  19.461  -2.299  0.00  0.00    -0.065 OA
ATOM     13  O   UNL     1     -28.795  20.697  -0.427  0.00  0.00    -0.065 OA
ATOM     14  O   UNL     1     -28.711  18.236  -0.451  0.00  0.00    -0.065 OA
ENDBRANCH   4  11
BRANCH   3  15
ATOM     15  N   UNL     1     -35.279  21.174   1.353  0.00  0.00    -0.331 N 
ATOM     16  H   UNL     1     -35.509  20.316   1.778  0.00  0.00    +0.147 HD
BRANCH  15  17
ATOM     17  C   UNL     1     -36.196  22.261   1.465  0.00  0.00    +0.109 C 
BRANCH  17  18
ATOM     18  C   UNL     1     -37.122  22.053   2.653  0.00  0.00    +0.111 C 
BRANCH  18  20
ATOM     19  O   UNL     1     -35.182  20.916   4.457  0.00  0.00    -0.274 OA
ATOM     20  N   UNL     1     -36.607  22.651   3.856  0.00  0.00    -0.302 N 
ATOM     21  C   UNL     1     -35.670  22.026   4.668  0.00  0.00    +0.233 C 
ATOM     22  H   UNL     1     -36.934  23.543   4.115  0.00  0.00    +0.150 HD
BRANCH  21  24
ATOM     23  I   UNL     1     -34.998  24.838   5.239  0.00  0.00    -0.064 I 
ATOM     24  C   UNL     1     -35.293  22.846   5.881  0.00  0.00    +0.147 C 
ENDBRANCH  21  24
ENDBRANCH  18  20
ENDBRANCH  17  18
ENDBRANCH  15  17
ENDBRANCH   3  15
TORSDOF 6
ENDMDL
MODEL 9
REMARK VINA RESULT:      -5.8      4.949      7.742
REMARK  Name = 20373952
REMARK  6 active torsions:
REMARK  status: ('A' for Active; 'I' for Inactive)
REMARK    1  A    between atoms: C_3  and  N_15
REMARK    2  A    between atoms: C_4  and  S_11
REMARK    3  A    between atoms: N_15  and  C_17
REMARK    4  A    between atoms: C_17  and  C_18
REMARK    5  A    between atoms: C_18  and  N_20
REMARK    6  A    between atoms: C_21  and  C_24
REMARK                            x       y       z     vdW  Elec       q    Type
REMARK                         _______ _______ _______ _____ _____    ______ ____
ROOT
ATOM      1  C   UNL     1     -35.277  23.718   3.612  0.00  0.00    +0.014 C 
ATOM      2  C   UNL     1     -35.309  22.341   3.288  0.00  0.00    +0.019 C 
ATOM      3  C   UNL     1     -35.258  24.107   4.961  0.00  0.00    +0.045 C 
ATOM      4  C   UNL     1     -35.328  21.953   1.939  0.00  0.00    +0.112 C 
ATOM      5  C   UNL     1     -35.266  24.666   2.576  0.00  0.00    +0.001 C 
ATOM      6  C   UNL     1     -35.320  21.393   4.324  0.00  0.00    +0.001 C 
ATOM      7  C   UNL     1     -35.269  23.151   5.977  0.00  0.00    +0.014 C 
ATOM      8  C   UNL     1     -35.317  22.908   0.923  0.00  0.00    +0.019 C 
ATOM      9  C   UNL     1     -35.301  21.796   5.660  0.00  0.00    +0.001 C 
ATOM     10  C   UNL     1     -35.285  24.263   1.241  0.00  0.00    +0.001 C 
ENDROOT
BRANCH   4  11
ATOM     11  S   UNL     1     -35.369  20.270   1.433  0.00  0.00    +0.042 S 
ATOM     12  O   UNL     1     -35.323  20.355  -0.032  0.00  0.00    -0.065 OA
ATOM     13  O   UNL     1     -34.180  19.653   2.034  0.00  0.00    -0.065 OA
ATOM     14  O   UNL     1     -36.638  19.778   1.985  0.00  0.00    -0.065 OA
ENDBRANCH   4  11
BRANCH   3  15
ATOM     15  N   UNL     1     -35.226  25.471   5.340  0.00  0.00    -0.331 N 
ATOM     16  H   UNL     1     -36.038  26.015   5.216  0.00  0.00    +0.147 HD
BRANCH  15  17
ATOM     17  C   UNL     1     -34.066  26.091   5.894  0.00  0.00    +0.109 C 
BRANCH  17  18
ATOM     18  C   UNL     1     -33.420  27.014   4.873  0.00  0.00    +0.111 C 
BRANCH  18  20
ATOM     19  O   UNL     1     -33.207  27.776   2.101  0.00  0.00    -0.274 OA
ATOM     20  N   UNL     1     -34.393  27.737   4.099  0.00  0.00    -0.302 N 
ATOM     21  C   UNL     1     -34.204  28.062   2.762  0.00  0.00    +0.233 C 
ATOM     22  H   UNL     1     -35.231  28.014   4.536  0.00  0.00    +0.150 HD
BRANCH  21  24
ATOM     23  I   UNL     1     -35.094  30.870   2.673  0.00  0.00    -0.064 I 
ATOM     24  C   UNL     1     -35.361  28.835   2.169  0.00  0.00    +0.147 C 
ENDBRANCH  21  24
ENDBRANCH  18  20
ENDBRANCH  17  18
ENDBRANCH  15  17
ENDBRANCH   3  15
TORSDOF 6
ENDMDL
