MODEL 1
REMARK VINA RESULT:      -5.2      0.000      0.000
REMARK  Name = 196005
REMARK  8 active torsions:
REMARK  status: ('A' for Active; 'I' for Inactive)
REMARK    1  A    between atoms: C_4  and  C_13
REMARK    2  A    between atoms: C_6  and  C_10
REMARK    3  A    between atoms: C_8  and  S_17
REMARK    4  A    between atoms: C_10  and  O_11
REMARK    5  A    between atoms: C_13  and  O_15
REMARK    6  A    between atoms: S_17  and  C_18
REMARK    7  A    between atoms: C_18  and  C_19
REMARK    8  A    between atoms: C_19  and  N_20
REMARK                            x       y       z     vdW  Elec       q    Type
REMARK                         _______ _______ _______ _____ _____    ______ ____
ROOT
ATOM      1  O   UNL     1     -32.997  25.140   3.920  0.00  0.00    -0.275 OA
ATOM      2  N   UNL     1     -35.059  24.396   4.793  0.00  0.00    -0.272 N 
ATOM      3  C   UNL     1     -36.183  25.364   4.780  0.00  0.00    +0.088 C 
ATOM      4  C   UNL     1     -35.174  26.417   4.298  0.00  0.00    +0.122 C 
ATOM      5  C   UNL     1     -34.137  25.278   4.303  0.00  0.00    +0.230 C 
ATOM      6  C   UNL     1     -35.391  23.126   4.166  0.00  0.00    +0.184 C 
ATOM      7  C   UNL     1     -37.118  24.724   3.822  0.00  0.00    +0.033 C 
ATOM      8  C   UNL     1     -36.702  23.482   3.511  0.00  0.00    +0.078 C 
ENDROOT
BRANCH   6  10
ATOM      9  O   UNL     1     -35.969  22.389   6.390  0.00  0.00    -0.248 OA
ATOM     10  C   UNL     1     -35.595  22.125   5.257  0.00  0.00    +0.333 C 
BRANCH  10  11
ATOM     11  O   UNL     1     -35.304  20.876   4.821  0.00  0.00    -0.479 OA
ATOM     12  H   UNL     1     -35.880  20.442   4.223  0.00  0.00    +0.295 HD
ENDBRANCH  10  11
ENDBRANCH   6  10
BRANCH   4  13
ATOM     13  C   UNL     1     -35.412  27.051   2.946  0.00  0.00    +0.121 C 
ATOM     14  C   UNL     1     -34.915  28.492   2.918  0.00  0.00    +0.032 C 
BRANCH  13  15
ATOM     15  O   UNL     1     -34.727  26.301   1.943  0.00  0.00    -0.384 OA
ATOM     16  H   UNL     1     -34.074  25.721   2.363  0.00  0.00    +0.210 HD
ENDBRANCH  13  15
ENDBRANCH   4  13
BRANCH   8  17
ATOM     17  S   UNL     1     -37.510  22.421   2.429  0.00  0.00    -0.141 S 
BRANCH  17  18
ATOM     18  C   UNL     1     -36.125  21.929   1.375  0.00  0.00    +0.034 C 
BRANCH  18  19
ATOM     19  C   UNL     1     -35.962  20.414   1.390  0.00  0.00    -0.074 C 
BRANCH  19  20
ATOM     20  N   UNL     1     -36.876  19.825   2.363  0.00  0.00    +0.381 N 
ATOM     21  H   UNL     1     -36.404  19.069   2.858  0.00  0.00    -0.089 HD
ATOM     22  H   UNL     1     -37.695  19.456   1.881  0.00  0.00    -0.089 HD
ATOM     23  H   UNL     1     -37.167  20.539   3.031  0.00  0.00    -0.089 HD
ENDBRANCH  19  20
ENDBRANCH  18  19
ENDBRANCH  17  18
ENDBRANCH   8  17
TORSDOF 8
ENDMDL
MODEL 2
REMARK VINA RESULT:      -5.2      2.401      4.685
REMARK  Name = 196005
REMARK  8 active torsions:
REMARK  status: ('A' for Active; 'I' for Inactive)
REMARK    1  A    between atoms: C_4  and  C_13
REMARK    2  A    between atoms: C_6  and  C_10
REMARK    3  A    between atoms: C_8  and  S_17
REMARK    4  A    between atoms: C_10  and  O_11
REMARK    5  A    between atoms: C_13  and  O_15
REMARK    6  A    between atoms: S_17  and  C_18
REMARK    7  A    between atoms: C_18  and  C_19
REMARK    8  A    between atoms: C_19  and  N_20
REMARK                            x       y       z     vdW  Elec       q    Type
REMARK                         _______ _______ _______ _____ _____    ______ ____
ROOT
ATOM      1  O   UNL     1     -37.919  24.732   4.053  0.00  0.00    -0.275 OA
ATOM      2  N   UNL     1     -35.939  26.005   4.226  0.00  0.00    -0.272 N 
ATOM      3  C   UNL     1     -34.847  25.439   5.056  0.00  0.00    +0.088 C 
ATOM      4  C   UNL     1     -35.829  24.329   5.462  0.00  0.00    +0.122 C 
ATOM      5  C   UNL     1     -36.829  25.005   4.504  0.00  0.00    +0.230 C 
ATOM      6  C   UNL     1     -35.507  26.368   2.886  0.00  0.00    +0.184 C 
ATOM      7  C   UNL     1     -33.799  25.180   4.038  0.00  0.00    +0.033 C 
ATOM      8  C   UNL     1     -34.146  25.720   2.854  0.00  0.00    +0.078 C 
ENDROOT
BRANCH   6  10
ATOM      9  O   UNL     1     -34.522  28.511   3.397  0.00  0.00    -0.248 OA
ATOM     10  C   UNL     1     -35.391  27.857   2.838  0.00  0.00    +0.333 C 
BRANCH  10  11
ATOM     11  O   UNL     1     -36.386  28.391   2.090  0.00  0.00    -0.479 OA
ATOM     12  H   UNL     1     -37.050  28.913   2.497  0.00  0.00    +0.295 HD
ENDBRANCH  10  11
ENDBRANCH   6  10
BRANCH   4  13
ATOM     13  C   UNL     1     -35.469  22.906   5.102  0.00  0.00    +0.121 C 
ATOM     14  C   UNL     1     -35.245  22.061   6.350  0.00  0.00    +0.032 C 
BRANCH  13  15
ATOM     15  O   UNL     1     -36.524  22.331   4.331  0.00  0.00    -0.384 OA
ATOM     16  H   UNL     1     -36.295  21.418   4.100  0.00  0.00    +0.210 HD
ENDBRANCH  13  15
ENDBRANCH   4  13
BRANCH   8  17
ATOM     17  S   UNL     1     -33.200  25.631   1.423  0.00  0.00    -0.141 S 
BRANCH  17  18
ATOM     18  C   UNL     1     -34.278  24.606   0.395  0.00  0.00    +0.034 C 
BRANCH  18  19
ATOM     19  C   UNL     1     -34.477  23.239   1.036  0.00  0.00    -0.074 C 
BRANCH  19  20
ATOM     20  N   UNL     1     -35.885  23.050   1.374  0.00  0.00    +0.381 N 
ATOM     21  H   UNL     1     -35.968  22.812   2.362  0.00  0.00    -0.089 HD
ATOM     22  H   UNL     1     -36.272  22.294   0.809  0.00  0.00    -0.089 HD
ATOM     23  H   UNL     1     -36.397  23.911   1.187  0.00  0.00    -0.089 HD
ENDBRANCH  19  20
ENDBRANCH  18  19
ENDBRANCH  17  18
ENDBRANCH   8  17
TORSDOF 8
ENDMDL
MODEL 3
REMARK VINA RESULT:      -5.1      2.881      5.650
REMARK  Name = 196005
REMARK  8 active torsions:
REMARK  status: ('A' for Active; 'I' for Inactive)
REMARK    1  A    between atoms: C_4  and  C_13
REMARK    2  A    between atoms: C_6  and  C_10
REMARK    3  A    between atoms: C_8  and  S_17
REMARK    4  A    between atoms: C_10  and  O_11
REMARK    5  A    between atoms: C_13  and  O_15
REMARK    6  A    between atoms: S_17  and  C_18
REMARK    7  A    between atoms: C_18  and  C_19
REMARK    8  A    between atoms: C_19  and  N_20
REMARK                            x       y       z     vdW  Elec       q    Type
REMARK                         _______ _______ _______ _____ _____    ______ ____
ROOT
ATOM      1  O   UNL     1     -37.920  24.725   4.028  0.00  0.00    -0.275 OA
ATOM      2  N   UNL     1     -35.945  26.002   4.218  0.00  0.00    -0.272 N 
ATOM      3  C   UNL     1     -34.848  25.425   5.033  0.00  0.00    +0.088 C 
ATOM      4  C   UNL     1     -35.824  24.304   5.421  0.00  0.00    +0.122 C 
ATOM      5  C   UNL     1     -36.830  24.993   4.480  0.00  0.00    +0.230 C 
ATOM      6  C   UNL     1     -35.520  26.392   2.883  0.00  0.00    +0.184 C 
ATOM      7  C   UNL     1     -33.803  25.190   4.006  0.00  0.00    +0.033 C 
ATOM      8  C   UNL     1     -34.156  25.751   2.834  0.00  0.00    +0.078 C 
ENDROOT
BRANCH   6  10
ATOM      9  O   UNL     1     -34.572  28.532   3.472  0.00  0.00    -0.248 OA
ATOM     10  C   UNL     1     -35.409  27.882   2.864  0.00  0.00    +0.333 C 
BRANCH  10  11
ATOM     11  O   UNL     1     -36.372  28.423   2.078  0.00  0.00    -0.479 OA
ATOM     12  H   UNL     1     -36.410  28.207   1.167  0.00  0.00    +0.295 HD
ENDBRANCH  10  11
ENDBRANCH   6  10
BRANCH   4  13
ATOM     13  C   UNL     1     -35.460  22.889   5.033  0.00  0.00    +0.121 C 
ATOM     14  C   UNL     1     -35.141  22.044   6.261  0.00  0.00    +0.032 C 
BRANCH  13  15
ATOM     15  O   UNL     1     -36.550  22.295   4.328  0.00  0.00    -0.384 OA
ATOM     16  H   UNL     1     -36.539  22.593   3.405  0.00  0.00    +0.210 HD
ENDBRANCH  13  15
ENDBRANCH   4  13
BRANCH   8  17
ATOM     17  S   UNL     1     -33.215  25.693   1.399  0.00  0.00    -0.141 S 
BRANCH  17  18
ATOM     18  C   UNL     1     -31.609  26.204   2.053  0.00  0.00    +0.034 C 
BRANCH  18  19
ATOM     19  C   UNL     1     -31.494  27.723   2.048  0.00  0.00    -0.074 C 
BRANCH  19  20
ATOM     20  N   UNL     1     -31.555  28.230   3.415  0.00  0.00    +0.381 N 
ATOM     21  H   UNL     1     -30.932  29.032   3.509  0.00  0.00    -0.089 HD
ATOM     22  H   UNL     1     -31.264  27.497   4.063  0.00  0.00    -0.089 HD
ATOM     23  H   UNL     1     -32.510  28.514   3.630  0.00  0.00    -0.089 HD
ENDBRANCH  19  20
ENDBRANCH  18  19
ENDBRANCH  17  18
ENDBRANCH   8  17
TORSDOF 8
ENDMDL
MODEL 4
REMARK VINA RESULT:      -4.8      2.312      4.618
REMARK  Name = 196005
REMARK  8 active torsions:
REMARK  status: ('A' for Active; 'I' for Inactive)
REMARK    1  A    between atoms: C_4  and  C_13
REMARK    2  A    between atoms: C_6  and  C_10
REMARK    3  A    between atoms: C_8  and  S_17
REMARK    4  A    between atoms: C_10  and  O_11
REMARK    5  A    between atoms: C_13  and  O_15
REMARK    6  A    between atoms: S_17  and  C_18
REMARK    7  A    between atoms: C_18  and  C_19
REMARK    8  A    between atoms: C_19  and  N_20
REMARK                            x       y       z     vdW  Elec       q    Type
REMARK                         _______ _______ _______ _____ _____    ______ ____
ROOT
ATOM      1  O   UNL     1     -35.993  21.859   5.239  0.00  0.00    -0.275 OA
ATOM      2  N   UNL     1     -35.481  23.728   3.891  0.00  0.00    -0.272 N 
ATOM      3  C   UNL     1     -35.261  23.474   2.446  0.00  0.00    +0.088 C 
ATOM      4  C   UNL     1     -35.359  21.975   2.769  0.00  0.00    +0.122 C 
ATOM      5  C   UNL     1     -35.642  22.410   4.220  0.00  0.00    +0.230 C 
ATOM      6  C   UNL     1     -36.472  24.762   4.145  0.00  0.00    +0.184 C 
ATOM      7  C   UNL     1     -36.410  24.189   1.838  0.00  0.00    +0.033 C 
ATOM      8  C   UNL     1     -37.055  24.923   2.764  0.00  0.00    +0.078 C 
ENDROOT
BRANCH   6  10
ATOM      9  O   UNL     1     -34.617  26.304   4.189  0.00  0.00    -0.248 OA
ATOM     10  C   UNL     1     -35.739  25.995   4.563  0.00  0.00    +0.333 C 
BRANCH  10  11
ATOM     11  O   UNL     1     -36.487  26.729   5.421  0.00  0.00    -0.479 OA
ATOM     12  H   UNL     1     -36.079  27.170   6.140  0.00  0.00    +0.295 HD
ENDBRANCH  10  11
ENDBRANCH   6  10
BRANCH   4  13
ATOM     13  C   UNL     1     -36.471  21.187   2.116  0.00  0.00    +0.121 C 
ATOM     14  C   UNL     1     -36.116  20.819   0.680  0.00  0.00    +0.032 C 
BRANCH  13  15
ATOM     15  O   UNL     1     -36.706  19.992   2.860  0.00  0.00    -0.384 OA
ATOM     16  H   UNL     1     -37.195  19.360   2.311  0.00  0.00    +0.210 HD
ENDBRANCH  13  15
ENDBRANCH   4  13
BRANCH   8  17
ATOM     17  S   UNL     1     -38.441  25.889   2.456  0.00  0.00    -0.141 S 
BRANCH  17  18
ATOM     18  C   UNL     1     -39.740  24.772   3.034  0.00  0.00    +0.034 C 
BRANCH  18  19
ATOM     19  C   UNL     1     -40.367  24.036   1.857  0.00  0.00    -0.074 C 
BRANCH  19  20
ATOM     20  N   UNL     1     -40.065  22.610   1.945  0.00  0.00    +0.381 N 
ATOM     21  H   UNL     1     -40.697  22.091   1.337  0.00  0.00    -0.089 HD
ATOM     22  H   UNL     1     -40.186  22.297   2.908  0.00  0.00    -0.089 HD
ATOM     23  H   UNL     1     -39.102  22.449   1.653  0.00  0.00    -0.089 HD
ENDBRANCH  19  20
ENDBRANCH  18  19
ENDBRANCH  17  18
ENDBRANCH   8  17
TORSDOF 8
ENDMDL
MODEL 5
REMARK VINA RESULT:      -4.8      2.654      4.825
REMARK  Name = 196005
REMARK  8 active torsions:
REMARK  status: ('A' for Active; 'I' for Inactive)
REMARK    1  A    between atoms: C_4  and  C_13
REMARK    2  A    between atoms: C_6  and  C_10
REMARK    3  A    between atoms: C_8  and  S_17
REMARK    4  A    between atoms: C_10  and  O_11
REMARK    5  A    between atoms: C_13  and  O_15
REMARK    6  A    between atoms: S_17  and  C_18
REMARK    7  A    between atoms: C_18  and  C_19
REMARK    8  A    between atoms: C_19  and  N_20
REMARK                            x       y       z     vdW  Elec       q    Type
REMARK                         _______ _______ _______ _____ _____    ______ ____
ROOT
ATOM      1  O   UNL     1     -35.887  26.123   6.087  0.00  0.00    -0.275 OA
ATOM      2  N   UNL     1     -34.735  26.300   4.034  0.00  0.00    -0.272 N 
ATOM      3  C   UNL     1     -34.029  25.087   3.554  0.00  0.00    +0.088 C 
ATOM      4  C   UNL     1     -34.386  24.435   4.898  0.00  0.00    +0.122 C 
ATOM      5  C   UNL     1     -35.135  25.743   5.218  0.00  0.00    +0.230 C 
ATOM      6  C   UNL     1     -35.643  26.861   3.046  0.00  0.00    +0.184 C 
ATOM      7  C   UNL     1     -34.798  24.757   2.330  0.00  0.00    +0.033 C 
ATOM      8  C   UNL     1     -35.661  25.746   2.031  0.00  0.00    +0.078 C 
ENDROOT
BRANCH   6  10
ATOM      9  O   UNL     1     -34.295  28.109   1.481  0.00  0.00    -0.248 OA
ATOM     10  C   UNL     1     -34.994  28.084   2.483  0.00  0.00    +0.333 C 
BRANCH  10  11
ATOM     11  O   UNL     1     -35.282  29.170   3.241  0.00  0.00    -0.479 OA
ATOM     12  H   UNL     1     -35.361  30.013   2.840  0.00  0.00    +0.295 HD
ENDBRANCH  10  11
ENDBRANCH   6  10
BRANCH   4  13
ATOM     13  C   UNL     1     -35.255  23.198   4.871  0.00  0.00    +0.121 C 
ATOM     14  C   UNL     1     -34.891  22.243   6.001  0.00  0.00    +0.032 C 
BRANCH  13  15
ATOM     15  O   UNL     1     -36.625  23.578   5.003  0.00  0.00    -0.384 OA
ATOM     16  H   UNL     1     -36.782  24.398   4.510  0.00  0.00    +0.210 HD
ENDBRANCH  13  15
ENDBRANCH   4  13
BRANCH   8  17
ATOM     17  S   UNL     1     -36.735  25.737   0.691  0.00  0.00    -0.141 S 
BRANCH  17  18
ATOM     18  C   UNL     1     -38.313  25.948   1.549  0.00  0.00    +0.034 C 
BRANCH  18  19
ATOM     19  C   UNL     1     -38.665  24.686   2.328  0.00  0.00    -0.074 C 
BRANCH  19  20
ATOM     20  N   UNL     1     -38.780  24.997   3.749  0.00  0.00    +0.381 N 
ATOM     21  H   UNL     1     -38.397  25.926   3.926  0.00  0.00    -0.089 HD
ATOM     22  H   UNL     1     -38.259  24.308   4.291  0.00  0.00    -0.089 HD
ATOM     23  H   UNL     1     -39.761  24.976   4.024  0.00  0.00    -0.089 HD
ENDBRANCH  19  20
ENDBRANCH  18  19
ENDBRANCH  17  18
ENDBRANCH   8  17
TORSDOF 8
ENDMDL
MODEL 6
REMARK VINA RESULT:      -4.6      2.750      5.334
REMARK  Name = 196005
REMARK  8 active torsions:
REMARK  status: ('A' for Active; 'I' for Inactive)
REMARK    1  A    between atoms: C_4  and  C_13
REMARK    2  A    between atoms: C_6  and  C_10
REMARK    3  A    between atoms: C_8  and  S_17
REMARK    4  A    between atoms: C_10  and  O_11
REMARK    5  A    between atoms: C_13  and  O_15
REMARK    6  A    between atoms: S_17  and  C_18
REMARK    7  A    between atoms: C_18  and  C_19
REMARK    8  A    between atoms: C_19  and  N_20
REMARK                            x       y       z     vdW  Elec       q    Type
REMARK                         _______ _______ _______ _____ _____    ______ ____
ROOT
ATOM      1  O   UNL     1     -35.403  23.373  -0.068  0.00  0.00    -0.275 OA
ATOM      2  N   UNL     1     -36.568  22.547   1.810  0.00  0.00    -0.272 N 
ATOM      3  C   UNL     1     -36.283  21.149   2.217  0.00  0.00    +0.088 C 
ATOM      4  C   UNL     1     -35.430  21.030   0.945  0.00  0.00    +0.122 C 
ATOM      5  C   UNL     1     -35.769  22.513   0.701  0.00  0.00    +0.230 C 
ATOM      6  C   UNL     1     -36.419  23.500   2.899  0.00  0.00    +0.184 C 
ATOM      7  C   UNL     1     -35.639  21.347   3.538  0.00  0.00    +0.033 C 
ATOM      8  C   UNL     1     -35.743  22.631   3.929  0.00  0.00    +0.078 C 
ENDROOT
BRANCH   6  10
ATOM      9  O   UNL     1     -38.828  23.369   2.964  0.00  0.00    -0.248 OA
ATOM     10  C   UNL     1     -37.790  23.890   3.347  0.00  0.00    +0.333 C 
BRANCH  10  11
ATOM     11  O   UNL     1     -37.731  24.908   4.238  0.00  0.00    -0.479 OA
ATOM     12  H   UNL     1     -38.189  25.708   4.068  0.00  0.00    +0.295 HD
ENDBRANCH  10  11
ENDBRANCH   6  10
BRANCH   4  13
ATOM     13  C   UNL     1     -33.957  20.736   1.112  0.00  0.00    +0.121 C 
ATOM     14  C   UNL     1     -33.702  19.237   1.221  0.00  0.00    +0.032 C 
BRANCH  13  15
ATOM     15  O   UNL     1     -33.240  21.251  -0.011  0.00  0.00    -0.384 OA
ATOM     16  H   UNL     1     -32.312  20.977   0.045  0.00  0.00    +0.210 HD
ENDBRANCH  13  15
ENDBRANCH   4  13
BRANCH   8  17
ATOM     17  S   UNL     1     -35.118  23.261   5.399  0.00  0.00    -0.141 S 
BRANCH  17  18
ATOM     18  C   UNL     1     -34.251  24.720   4.775  0.00  0.00    +0.034 C 
BRANCH  18  19
ATOM     19  C   UNL     1     -34.594  25.941   5.619  0.00  0.00    -0.074 C 
BRANCH  19  20
ATOM     20  N   UNL     1     -35.601  26.748   4.937  0.00  0.00    +0.381 N 
ATOM     21  H   UNL     1     -36.134  27.280   5.625  0.00  0.00    -0.089 HD
ATOM     22  H   UNL     1     -36.231  26.138   4.417  0.00  0.00    -0.089 HD
ATOM     23  H   UNL     1     -35.142  27.391   4.292  0.00  0.00    -0.089 HD
ENDBRANCH  19  20
ENDBRANCH  18  19
ENDBRANCH  17  18
ENDBRANCH   8  17
TORSDOF 8
ENDMDL
MODEL 7
REMARK VINA RESULT:      -4.5      1.527      1.995
REMARK  Name = 196005
REMARK  8 active torsions:
REMARK  status: ('A' for Active; 'I' for Inactive)
REMARK    1  A    between atoms: C_4  and  C_13
REMARK    2  A    between atoms: C_6  and  C_10
REMARK    3  A    between atoms: C_8  and  S_17
REMARK    4  A    between atoms: C_10  and  O_11
REMARK    5  A    between atoms: C_13  and  O_15
REMARK    6  A    between atoms: S_17  and  C_18
REMARK    7  A    between atoms: C_18  and  C_19
REMARK    8  A    between atoms: C_19  and  N_20
REMARK                            x       y       z     vdW  Elec       q    Type
REMARK                         _______ _______ _______ _____ _____    ______ ____
ROOT
ATOM      1  O   UNL     1     -34.936  26.144   4.706  0.00  0.00    -0.275 OA
ATOM      2  N   UNL     1     -36.196  24.154   4.562  0.00  0.00    -0.272 N 
ATOM      3  C   UNL     1     -37.448  24.206   3.768  0.00  0.00    +0.088 C 
ATOM      4  C   UNL     1     -37.216  25.719   3.638  0.00  0.00    +0.122 C 
ATOM      5  C   UNL     1     -35.909  25.483   4.420  0.00  0.00    +0.230 C 
ATOM      6  C   UNL     1     -35.307  23.076   4.156  0.00  0.00    +0.184 C 
ATOM      7  C   UNL     1     -37.127  23.296   2.641  0.00  0.00    +0.033 C 
ATOM      8  C   UNL     1     -35.968  22.650   2.870  0.00  0.00    +0.078 C 
ENDROOT
BRANCH   6  10
ATOM      9  O   UNL     1     -35.036  20.845   5.034  0.00  0.00    -0.248 OA
ATOM     10  C   UNL     1     -35.405  22.000   5.188  0.00  0.00    +0.333 C 
BRANCH  10  11
ATOM     11  O   UNL     1     -35.964  22.477   6.326  0.00  0.00    -0.479 OA
ATOM     12  H   UNL     1     -36.506  21.922   6.851  0.00  0.00    +0.295 HD
ENDBRANCH  10  11
ENDBRANCH   6  10
BRANCH   4  13
ATOM     13  C   UNL     1     -37.028  26.284   2.248  0.00  0.00    +0.121 C 
ATOM     14  C   UNL     1     -38.368  26.483   1.548  0.00  0.00    +0.032 C 
BRANCH  13  15
ATOM     15  O   UNL     1     -36.355  27.540   2.334  0.00  0.00    -0.384 OA
ATOM     16  H   UNL     1     -35.397  27.395   2.332  0.00  0.00    +0.210 HD
ENDBRANCH  13  15
ENDBRANCH   4  13
BRANCH   8  17
ATOM     17  S   UNL     1     -35.252  21.515   1.798  0.00  0.00    -0.141 S 
BRANCH  17  18
ATOM     18  C   UNL     1     -36.505  21.477   0.495  0.00  0.00    +0.034 C 
BRANCH  18  19
ATOM     19  C   UNL     1     -36.929  20.041   0.210  0.00  0.00    -0.074 C 
BRANCH  19  20
ATOM     20  N   UNL     1     -36.744  19.223   1.404  0.00  0.00    +0.381 N 
ATOM     21  H   UNL     1     -37.647  18.864   1.714  0.00  0.00    -0.089 HD
ATOM     22  H   UNL     1     -36.332  19.790   2.145  0.00  0.00    -0.089 HD
ATOM     23  H   UNL     1     -36.124  18.443   1.189  0.00  0.00    -0.089 HD
ENDBRANCH  19  20
ENDBRANCH  18  19
ENDBRANCH  17  18
ENDBRANCH   8  17
TORSDOF 8
ENDMDL
MODEL 8
REMARK VINA RESULT:      -4.5      2.144      2.926
REMARK  Name = 196005
REMARK  8 active torsions:
REMARK  status: ('A' for Active; 'I' for Inactive)
REMARK    1  A    between atoms: C_4  and  C_13
REMARK    2  A    between atoms: C_6  and  C_10
REMARK    3  A    between atoms: C_8  and  S_17
REMARK    4  A    between atoms: C_10  and  O_11
REMARK    5  A    between atoms: C_13  and  O_15
REMARK    6  A    between atoms: S_17  and  C_18
REMARK    7  A    between atoms: C_18  and  C_19
REMARK    8  A    between atoms: C_19  and  N_20
REMARK                            x       y       z     vdW  Elec       q    Type
REMARK                         _______ _______ _______ _____ _____    ______ ____
ROOT
ATOM      1  O   UNL     1     -34.865  22.611   5.415  0.00  0.00    -0.275 OA
ATOM      2  N   UNL     1     -36.295  22.803   3.547  0.00  0.00    -0.272 N 
ATOM      3  C   UNL     1     -36.517  24.167   3.008  0.00  0.00    +0.088 C 
ATOM      4  C   UNL     1     -35.722  24.694   4.212  0.00  0.00    +0.122 C 
ATOM      5  C   UNL     1     -35.525  23.215   4.599  0.00  0.00    +0.230 C 
ATOM      6  C   UNL     1     -35.858  21.853   2.536  0.00  0.00    +0.184 C 
ATOM      7  C   UNL     1     -35.881  24.068   1.672  0.00  0.00    +0.033 C 
ATOM      8  C   UNL     1     -35.549  22.793   1.397  0.00  0.00    +0.078 C 
ENDROOT
BRANCH   6  10
ATOM      9  O   UNL     1     -38.071  21.365   1.706  0.00  0.00    -0.248 OA
ATOM     10  C   UNL     1     -37.024  20.979   2.205  0.00  0.00    +0.333 C 
BRANCH  10  11
ATOM     11  O   UNL     1     -36.766  19.691   2.538  0.00  0.00    -0.479 OA
ATOM     12  H   UNL     1     -37.377  19.018   2.313  0.00  0.00    +0.295 HD
ENDBRANCH  10  11
ENDBRANCH   6  10
BRANCH   4  13
ATOM     13  C   UNL     1     -34.444  25.451   3.934  0.00  0.00    +0.121 C 
ATOM     14  C   UNL     1     -34.719  26.933   3.708  0.00  0.00    +0.032 C 
BRANCH  13  15
ATOM     15  O   UNL     1     -33.555  25.304   5.041  0.00  0.00    -0.384 OA
ATOM     16  H   UNL     1     -34.060  25.331   5.867  0.00  0.00    +0.210 HD
ENDBRANCH  13  15
ENDBRANCH   4  13
BRANCH   8  17
ATOM     17  S   UNL     1     -34.786  22.269  -0.049  0.00  0.00    -0.141 S 
BRANCH  17  18
ATOM     18  C   UNL     1     -33.793  20.902   0.594  0.00  0.00    +0.034 C 
BRANCH  18  19
ATOM     19  C   UNL     1     -34.157  19.603  -0.114  0.00  0.00    -0.074 C 
BRANCH  19  20
ATOM     20  N   UNL     1     -34.477  18.574   0.870  0.00  0.00    +0.381 N 
ATOM     21  H   UNL     1     -33.624  18.085   1.140  0.00  0.00    -0.089 HD
ATOM     22  H   UNL     1     -35.136  17.909   0.465  0.00  0.00    -0.089 HD
ATOM     23  H   UNL     1     -34.895  19.009   1.692  0.00  0.00    -0.089 HD
ENDBRANCH  19  20
ENDBRANCH  18  19
ENDBRANCH  17  18
ENDBRANCH   8  17
TORSDOF 8
ENDMDL
MODEL 9
REMARK VINA RESULT:      -4.4      2.963      5.785
REMARK  Name = 196005
REMARK  8 active torsions:
REMARK  status: ('A' for Active; 'I' for Inactive)
REMARK    1  A    between atoms: C_4  and  C_13
REMARK    2  A    between atoms: C_6  and  C_10
REMARK    3  A    between atoms: C_8  and  S_17
REMARK    4  A    between atoms: C_10  and  O_11
REMARK    5  A    between atoms: C_13  and  O_15
REMARK    6  A    between atoms: S_17  and  C_18
REMARK    7  A    between atoms: C_18  and  C_19
REMARK    8  A    between atoms: C_19  and  N_20
REMARK                            x       y       z     vdW  Elec       q    Type
REMARK                         _______ _______ _______ _____ _____    ______ ____
ROOT
ATOM      1  O   UNL     1     -36.711  20.960  -0.741  0.00  0.00    -0.275 OA
ATOM      2  N   UNL     1     -36.973  21.291   1.580  0.00  0.00    -0.272 N 
ATOM      3  C   UNL     1     -36.064  20.531   2.474  0.00  0.00    +0.088 C 
ATOM      4  C   UNL     1     -35.558  19.803   1.220  0.00  0.00    +0.122 C 
ATOM      5  C   UNL     1     -36.510  20.719   0.428  0.00  0.00    +0.230 C 
ATOM      6  C   UNL     1     -36.969  22.721   1.844  0.00  0.00    +0.184 C 
ATOM      7  C   UNL     1     -35.265  21.621   3.085  0.00  0.00    +0.033 C 
ATOM      8  C   UNL     1     -35.781  22.823   2.766  0.00  0.00    +0.078 C 
ENDROOT
BRANCH   6  10
ATOM      9  O   UNL     1     -38.387  23.998   3.321  0.00  0.00    -0.248 OA
ATOM     10  C   UNL     1     -38.235  23.049   2.566  0.00  0.00    +0.333 C 
BRANCH  10  11
ATOM     11  O   UNL     1     -39.201  22.146   2.272  0.00  0.00    -0.479 OA
ATOM     12  H   UNL     1     -40.104  22.377   2.365  0.00  0.00    +0.295 HD
ENDBRANCH  10  11
ENDBRANCH   6  10
BRANCH   4  13
ATOM     13  C   UNL     1     -34.097  19.949   0.864  0.00  0.00    +0.121 C 
ATOM     14  C   UNL     1     -33.272  18.802   1.436  0.00  0.00    +0.032 C 
BRANCH  13  15
ATOM     15  O   UNL     1     -33.954  19.964  -0.556  0.00  0.00    -0.384 OA
ATOM     16  H   UNL     1     -34.627  20.544  -0.943  0.00  0.00    +0.210 HD
ENDBRANCH  13  15
ENDBRANCH   4  13
BRANCH   8  17
ATOM     17  S   UNL     1     -35.137  24.332   3.276  0.00  0.00    -0.141 S 
BRANCH  17  18
ATOM     18  C   UNL     1     -35.433  24.218   5.055  0.00  0.00    +0.034 C 
BRANCH  18  19
ATOM     19  C   UNL     1     -35.811  25.583   5.617  0.00  0.00    -0.074 C 
BRANCH  19  20
ATOM     20  N   UNL     1     -36.873  26.175   4.809  0.00  0.00    +0.381 N 
ATOM     21  H   UNL     1     -37.235  25.478   4.160  0.00  0.00    -0.089 HD
ATOM     22  H   UNL     1     -36.500  26.966   4.284  0.00  0.00    -0.089 HD
ATOM     23  H   UNL     1     -37.625  26.496   5.418  0.00  0.00    -0.089 HD
ENDBRANCH  19  20
ENDBRANCH  18  19
ENDBRANCH  17  18
ENDBRANCH   8  17
TORSDOF 8
ENDMDL
