MODEL 1
REMARK VINA RESULT:      -6.1      0.000      0.000
REMARK  Name = 5356
REMARK  3 active torsions:
REMARK  status: ('A' for Active; 'I' for Inactive)
REMARK    1  A    between atoms: C_1  and  N_10
REMARK    2  A    between atoms: C_4  and  S_15
REMARK    3  A    between atoms: S_15  and  N_18
REMARK                            x       y       z     vdW  Elec       q    Type
REMARK                         _______ _______ _______ _____ _____    ______ ____
ROOT
ATOM      1  C   UNL     1     -34.769  25.132   3.794  0.00  0.00    +0.069 C 
ATOM      2  C   UNL     1     -33.935  25.921   3.007  0.00  0.00    +0.017 C 
ATOM      3  C   UNL     1     -34.792  25.286   5.176  0.00  0.00    +0.017 C 
ATOM      4  C   UNL     1     -33.133  27.033   4.996  0.00  0.00    +0.122 C 
ATOM      5  C   UNL     1     -33.115  26.874   3.610  0.00  0.00    +0.021 C 
ATOM      6  C   UNL     1     -33.972  26.239   5.779  0.00  0.00    +0.021 C 
ENDROOT
BRANCH   1  10
ATOM      7  S   UNL     1     -37.242  24.681   2.904  0.00  0.00    +0.057 S 
ATOM      8  O   UNL     1     -38.004  24.553   4.131  0.00  0.00    -0.154 OA
ATOM      9  O   UNL     1     -37.229  25.932   2.169  0.00  0.00    -0.154 OA
ATOM     10  N   UNL     1     -35.620  24.144   3.168  0.00  0.00    -0.194 N 
ATOM     11  C   UNL     1     -37.517  22.012   2.343  0.00  0.00    +0.029 C 
ATOM     12  C   UNL     1     -37.771  23.403   1.781  0.00  0.00    +0.173 C 
ATOM     13  C   UNL     1     -36.036  21.771   2.634  0.00  0.00    +0.025 C 
ATOM     14  C   UNL     1     -35.477  22.745   3.668  0.00  0.00    +0.116 C 
ENDBRANCH   1  10
BRANCH   4  15
ATOM     15  S   UNL     1     -32.106  28.226   5.751  0.00  0.00    +0.057 S 
ATOM     16  O   UNL     1     -30.719  27.880   5.472  0.00  0.00    -0.153 OA
ATOM     17  O   UNL     1     -32.604  29.551   5.406  0.00  0.00    -0.153 OA
BRANCH  15  18
ATOM     18  N   UNL     1     -32.425  27.934   7.404  0.00  0.00    -0.203 NA
ATOM     19  H   UNL     1     -31.571  28.070   7.944  0.00  0.00    +0.144 HD
ATOM     20  H   UNL     1     -32.754  26.975   7.522  0.00  0.00    +0.144 HD
ENDBRANCH  15  18
ENDBRANCH   4  15
TORSDOF 3
ENDMDL
MODEL 2
REMARK VINA RESULT:      -6.1      2.326      6.531
REMARK  Name = 5356
REMARK  3 active torsions:
REMARK  status: ('A' for Active; 'I' for Inactive)
REMARK    1  A    between atoms: C_1  and  N_10
REMARK    2  A    between atoms: C_4  and  S_15
REMARK    3  A    between atoms: S_15  and  N_18
REMARK                            x       y       z     vdW  Elec       q    Type
REMARK                         _______ _______ _______ _____ _____    ______ ____
ROOT
ATOM      1  C   UNL     1     -33.550  26.603   4.827  0.00  0.00    +0.069 C 
ATOM      2  C   UNL     1     -33.571  26.056   3.548  0.00  0.00    +0.017 C 
ATOM      3  C   UNL     1     -34.286  26.025   5.856  0.00  0.00    +0.017 C 
ATOM      4  C   UNL     1     -35.078  24.334   4.324  0.00  0.00    +0.122 C 
ATOM      5  C   UNL     1     -34.337  24.919   3.296  0.00  0.00    +0.021 C 
ATOM      6  C   UNL     1     -35.052  24.888   5.604  0.00  0.00    +0.021 C 
ENDROOT
BRANCH   1  10
ATOM      7  S   UNL     1     -31.753  28.262   3.764  0.00  0.00    +0.057 S 
ATOM      8  O   UNL     1     -30.546  27.458   3.751  0.00  0.00    -0.154 OA
ATOM      9  O   UNL     1     -32.559  28.404   2.567  0.00  0.00    -0.154 OA
ATOM     10  N   UNL     1     -32.755  27.783   5.089  0.00  0.00    -0.194 N 
ATOM     11  C   UNL     1     -30.762  29.888   5.736  0.00  0.00    +0.029 C 
ATOM     12  C   UNL     1     -31.328  29.898   4.324  0.00  0.00    +0.173 C 
ATOM     13  C   UNL     1     -31.749  29.308   6.748  0.00  0.00    +0.025 C 
ATOM     14  C   UNL     1     -32.122  27.860   6.439  0.00  0.00    +0.116 C 
ENDBRANCH   1  10
BRANCH   4  15
ATOM     15  S   UNL     1     -36.037  22.910   4.007  0.00  0.00    +0.057 S 
ATOM     16  O   UNL     1     -37.396  23.331   3.699  0.00  0.00    -0.153 OA
ATOM     17  O   UNL     1     -35.312  22.063   3.069  0.00  0.00    -0.153 OA
BRANCH  15  18
ATOM     18  N   UNL     1     -36.025  22.160   5.543  0.00  0.00    -0.203 NA
ATOM     19  H   UNL     1     -36.984  21.990   5.845  0.00  0.00    +0.144 HD
ATOM     20  H   UNL     1     -35.560  22.771   6.215  0.00  0.00    +0.144 HD
ENDBRANCH  15  18
ENDBRANCH   4  15
TORSDOF 3
ENDMDL
MODEL 3
REMARK VINA RESULT:      -6.1      1.559      2.095
REMARK  Name = 5356
REMARK  3 active torsions:
REMARK  status: ('A' for Active; 'I' for Inactive)
REMARK    1  A    between atoms: C_1  and  N_10
REMARK    2  A    between atoms: C_4  and  S_15
REMARK    3  A    between atoms: S_15  and  N_18
REMARK                            x       y       z     vdW  Elec       q    Type
REMARK                         _______ _______ _______ _____ _____    ______ ____
ROOT
ATOM      1  C   UNL     1     -35.683  25.638   4.030  0.00  0.00    +0.069 C 
ATOM      2  C   UNL     1     -35.136  26.599   3.186  0.00  0.00    +0.017 C 
ATOM      3  C   UNL     1     -35.137  25.408   5.289  0.00  0.00    +0.017 C 
ATOM      4  C   UNL     1     -33.478  27.112   4.867  0.00  0.00    +0.122 C 
ATOM      5  C   UNL     1     -34.031  27.338   3.606  0.00  0.00    +0.021 C 
ATOM      6  C   UNL     1     -34.031  26.147   5.708  0.00  0.00    +0.021 C 
ENDROOT
BRANCH   1  10
ATOM      7  S   UNL     1     -36.436  23.546   2.557  0.00  0.00    +0.057 S 
ATOM      8  O   UNL     1     -36.251  24.028   1.201  0.00  0.00    -0.154 OA
ATOM      9  O   UNL     1     -35.433  22.712   3.189  0.00  0.00    -0.154 OA
ATOM     10  N   UNL     1     -36.830  24.872   3.595  0.00  0.00    -0.194 N 
ATOM     11  C   UNL     1     -39.165  23.576   2.294  0.00  0.00    +0.029 C 
ATOM     12  C   UNL     1     -37.987  22.674   2.633  0.00  0.00    +0.173 C 
ATOM     13  C   UNL     1     -39.271  24.765   3.248  0.00  0.00    +0.025 C 
ATOM     14  C   UNL     1     -38.036  25.661   3.205  0.00  0.00    +0.116 C 
ENDBRANCH   1  10
BRANCH   4  15
ATOM     15  S   UNL     1     -32.093  28.037   5.391  0.00  0.00    +0.057 S 
ATOM     16  O   UNL     1     -30.975  27.728   4.511  0.00  0.00    -0.153 OA
ATOM     17  O   UNL     1     -32.505  29.422   5.577  0.00  0.00    -0.153 OA
BRANCH  15  18
ATOM     18  N   UNL     1     -31.798  27.343   6.924  0.00  0.00    -0.203 NA
ATOM     19  H   UNL     1     -32.563  26.712   7.164  0.00  0.00    +0.144 HD
ATOM     20  H   UNL     1     -31.734  28.082   7.625  0.00  0.00    +0.144 HD
ENDBRANCH  15  18
ENDBRANCH   4  15
TORSDOF 3
ENDMDL
MODEL 4
REMARK VINA RESULT:      -5.8      2.711      6.946
REMARK  Name = 5356
REMARK  3 active torsions:
REMARK  status: ('A' for Active; 'I' for Inactive)
REMARK    1  A    between atoms: C_1  and  N_10
REMARK    2  A    between atoms: C_4  and  S_15
REMARK    3  A    between atoms: S_15  and  N_18
REMARK                            x       y       z     vdW  Elec       q    Type
REMARK                         _______ _______ _______ _____ _____    ______ ____
ROOT
ATOM      1  C   UNL     1     -32.853  27.637   4.676  0.00  0.00    +0.069 C 
ATOM      2  C   UNL     1     -33.446  27.277   3.469  0.00  0.00    +0.017 C 
ATOM      3  C   UNL     1     -33.187  26.975   5.853  0.00  0.00    +0.017 C 
ATOM      4  C   UNL     1     -34.722  25.577   4.618  0.00  0.00    +0.122 C 
ATOM      5  C   UNL     1     -34.382  26.245   3.440  0.00  0.00    +0.021 C 
ATOM      6  C   UNL     1     -34.124  25.943   5.824  0.00  0.00    +0.021 C 
ENDROOT
BRANCH   1  10
ATOM      7  S   UNL     1     -30.241  28.169   4.598  0.00  0.00    +0.057 S 
ATOM      8  O   UNL     1     -29.787  27.727   5.902  0.00  0.00    -0.154 OA
ATOM      9  O   UNL     1     -30.081  27.321   3.432  0.00  0.00    -0.154 OA
ATOM     10  N   UNL     1     -31.881  28.707   4.706  0.00  0.00    -0.194 N 
ATOM     11  C   UNL     1     -29.847  30.802   5.249  0.00  0.00    +0.029 C 
ATOM     12  C   UNL     1     -29.467  29.732   4.237  0.00  0.00    +0.173 C 
ATOM     13  C   UNL     1     -31.355  31.046   5.290  0.00  0.00    +0.025 C 
ATOM     14  C   UNL     1     -32.138  29.799   5.691  0.00  0.00    +0.116 C 
ENDBRANCH   1  10
BRANCH   4  15
ATOM     15  S   UNL     1     -35.895  24.285   4.581  0.00  0.00    +0.057 S 
ATOM     16  O   UNL     1     -35.751  23.570   3.320  0.00  0.00    -0.153 OA
ATOM     17  O   UNL     1     -35.820  23.555   5.839  0.00  0.00    -0.153 OA
BRANCH  15  18
ATOM     18  N   UNL     1     -37.356  25.172   4.549  0.00  0.00    -0.203 NA
ATOM     19  H   UNL     1     -37.971  24.840   5.292  0.00  0.00    +0.144 HD
ATOM     20  H   UNL     1     -37.812  25.042   3.646  0.00  0.00    +0.144 HD
ENDBRANCH  15  18
ENDBRANCH   4  15
TORSDOF 3
ENDMDL
MODEL 5
REMARK VINA RESULT:      -5.8      3.527      7.480
REMARK  Name = 5356
REMARK  3 active torsions:
REMARK  status: ('A' for Active; 'I' for Inactive)
REMARK    1  A    between atoms: C_1  and  N_10
REMARK    2  A    between atoms: C_4  and  S_15
REMARK    3  A    between atoms: S_15  and  N_18
REMARK                            x       y       z     vdW  Elec       q    Type
REMARK                         _______ _______ _______ _____ _____    ______ ____
ROOT
ATOM      1  C   UNL     1     -35.734  22.519   2.361  0.00  0.00    +0.069 C 
ATOM      2  C   UNL     1     -36.785  22.859   1.515  0.00  0.00    +0.017 C 
ATOM      3  C   UNL     1     -35.247  21.217   2.397  0.00  0.00    +0.017 C 
ATOM      4  C   UNL     1     -36.870  20.577   0.726  0.00  0.00    +0.122 C 
ATOM      5  C   UNL     1     -37.354  21.885   0.695  0.00  0.00    +0.021 C 
ATOM      6  C   UNL     1     -35.817  20.243   1.578  0.00  0.00    +0.021 C 
ENDROOT
BRANCH   1  10
ATOM      7  S   UNL     1     -35.991  23.781   4.697  0.00  0.00    +0.057 S 
ATOM      8  O   UNL     1     -37.131  24.648   4.467  0.00  0.00    -0.154 OA
ATOM      9  O   UNL     1     -36.153  22.516   5.387  0.00  0.00    -0.154 OA
ATOM     10  N   UNL     1     -35.143  23.530   3.211  0.00  0.00    -0.194 N 
ATOM     11  C   UNL     1     -34.264  25.909   4.757  0.00  0.00    +0.029 C 
ATOM     12  C   UNL     1     -34.746  24.712   5.565  0.00  0.00    +0.173 C 
ATOM     13  C   UNL     1     -33.661  25.492   3.416  0.00  0.00    +0.025 C 
ATOM     14  C   UNL     1     -34.665  24.766   2.524  0.00  0.00    +0.116 C 
ENDBRANCH   1  10
BRANCH   4  15
ATOM     15  S   UNL     1     -37.584  19.358  -0.300  0.00  0.00    +0.057 S 
ATOM     16  O   UNL     1     -39.030  19.531  -0.281  0.00  0.00    -0.153 OA
ATOM     17  O   UNL     1     -36.873  19.348  -1.571  0.00  0.00    -0.153 OA
BRANCH  15  18
ATOM     18  N   UNL     1     -37.188  17.935   0.560  0.00  0.00    -0.203 NA
ATOM     19  H   UNL     1     -38.038  17.403   0.746  0.00  0.00    +0.144 HD
ATOM     20  H   UNL     1     -36.742  18.185   1.443  0.00  0.00    +0.144 HD
ENDBRANCH  15  18
ENDBRANCH   4  15
TORSDOF 3
ENDMDL
MODEL 6
REMARK VINA RESULT:      -5.8      1.997      2.733
REMARK  Name = 5356
REMARK  3 active torsions:
REMARK  status: ('A' for Active; 'I' for Inactive)
REMARK    1  A    between atoms: C_1  and  N_10
REMARK    2  A    between atoms: C_4  and  S_15
REMARK    3  A    between atoms: S_15  and  N_18
REMARK                            x       y       z     vdW  Elec       q    Type
REMARK                         _______ _______ _______ _____ _____    ______ ____
ROOT
ATOM      1  C   UNL     1     -34.477  26.278   4.681  0.00  0.00    +0.069 C 
ATOM      2  C   UNL     1     -34.085  26.195   6.014  0.00  0.00    +0.017 C 
ATOM      3  C   UNL     1     -33.818  27.132   3.802  0.00  0.00    +0.017 C 
ATOM      4  C   UNL     1     -32.359  27.832   5.595  0.00  0.00    +0.122 C 
ATOM      5  C   UNL     1     -33.024  26.974   6.471  0.00  0.00    +0.021 C 
ATOM      6  C   UNL     1     -32.757  27.911   4.260  0.00  0.00    +0.021 C 
ENDROOT
BRANCH   1  10
ATOM      7  S   UNL     1     -35.133  23.848   3.800  0.00  0.00    +0.057 S 
ATOM      8  O   UNL     1     -34.548  23.821   2.473  0.00  0.00    -0.154 OA
ATOM      9  O   UNL     1     -34.450  23.233   4.921  0.00  0.00    -0.154 OA
ATOM     10  N   UNL     1     -35.578  25.469   4.206  0.00  0.00    -0.194 N 
ATOM     11  C   UNL     1     -37.676  23.925   2.778  0.00  0.00    +0.029 C 
ATOM     12  C   UNL     1     -36.763  23.136   3.705  0.00  0.00    +0.173 C 
ATOM     13  C   UNL     1     -37.844  25.375   3.233  0.00  0.00    +0.025 C 
ATOM     14  C   UNL     1     -36.521  26.136   3.260  0.00  0.00    +0.116 C 
ENDBRANCH   1  10
BRANCH   4  15
ATOM     15  S   UNL     1     -31.031  28.808   6.169  0.00  0.00    +0.057 S 
ATOM     16  O   UNL     1     -30.417  29.468   5.025  0.00  0.00    -0.153 OA
ATOM     17  O   UNL     1     -31.494  29.603   7.299  0.00  0.00    -0.153 OA
BRANCH  15  18
ATOM     18  N   UNL     1     -29.966  27.603   6.748  0.00  0.00    -0.203 NA
ATOM     19  H   UNL     1     -30.331  26.683   6.505  0.00  0.00    +0.144 HD
ATOM     20  H   UNL     1     -29.885  27.680   7.762  0.00  0.00    +0.144 HD
ENDBRANCH  15  18
ENDBRANCH   4  15
TORSDOF 3
ENDMDL
MODEL 7
REMARK VINA RESULT:      -5.6      3.092      3.669
REMARK  Name = 5356
REMARK  3 active torsions:
REMARK  status: ('A' for Active; 'I' for Inactive)
REMARK    1  A    between atoms: C_1  and  N_10
REMARK    2  A    between atoms: C_4  and  S_15
REMARK    3  A    between atoms: S_15  and  N_18
REMARK                            x       y       z     vdW  Elec       q    Type
REMARK                         _______ _______ _______ _____ _____    ______ ____
ROOT
ATOM      1  C   UNL     1     -35.159  22.619   2.253  0.00  0.00    +0.069 C 
ATOM      2  C   UNL     1     -34.547  23.775   1.779  0.00  0.00    +0.017 C 
ATOM      3  C   UNL     1     -35.695  22.578   3.536  0.00  0.00    +0.017 C 
ATOM      4  C   UNL     1     -35.008  24.867   3.884  0.00  0.00    +0.122 C 
ATOM      5  C   UNL     1     -34.472  24.902   2.596  0.00  0.00    +0.021 C 
ATOM      6  C   UNL     1     -35.619  23.704   4.354  0.00  0.00    +0.021 C 
ENDROOT
BRANCH   1  10
ATOM      7  S   UNL     1     -36.716  21.327   0.516  0.00  0.00    +0.057 S 
ATOM      8  O   UNL     1     -37.752  20.772   1.368  0.00  0.00    -0.154 OA
ATOM      9  O   UNL     1     -36.946  22.553  -0.224  0.00  0.00    -0.154 OA
ATOM     10  N   UNL     1     -35.238  21.450   1.405  0.00  0.00    -0.194 N 
ATOM     11  C   UNL     1     -35.652  18.847   0.035  0.00  0.00    +0.029 C 
ATOM     12  C   UNL     1     -36.225  20.077  -0.653  0.00  0.00    +0.173 C 
ATOM     13  C   UNL     1     -34.422  19.181   0.879  0.00  0.00    +0.025 C 
ATOM     14  C   UNL     1     -34.732  20.176   1.995  0.00  0.00    +0.116 C 
ENDBRANCH   1  10
BRANCH   4  15
ATOM     15  S   UNL     1     -34.912  26.278   4.908  0.00  0.00    +0.057 S 
ATOM     16  O   UNL     1     -34.101  25.947   6.071  0.00  0.00    -0.153 OA
ATOM     17  O   UNL     1     -34.559  27.425   4.083  0.00  0.00    -0.153 OA
BRANCH  15  18
ATOM     18  N   UNL     1     -36.541  26.437   5.398  0.00  0.00    -0.203 NA
ATOM     19  H   UNL     1     -36.776  25.685   6.045  0.00  0.00    +0.144 HD
ATOM     20  H   UNL     1     -37.149  26.384   4.580  0.00  0.00    +0.144 HD
ENDBRANCH  15  18
ENDBRANCH   4  15
TORSDOF 3
ENDMDL
MODEL 8
REMARK VINA RESULT:      -5.6      4.495      6.752
REMARK  Name = 5356
REMARK  3 active torsions:
REMARK  status: ('A' for Active; 'I' for Inactive)
REMARK    1  A    between atoms: C_1  and  N_10
REMARK    2  A    between atoms: C_4  and  S_15
REMARK    3  A    between atoms: S_15  and  N_18
REMARK                            x       y       z     vdW  Elec       q    Type
REMARK                         _______ _______ _______ _____ _____    ______ ____
ROOT
ATOM      1  C   UNL     1     -35.362  21.973   1.716  0.00  0.00    +0.069 C 
ATOM      2  C   UNL     1     -35.332  20.698   2.271  0.00  0.00    +0.017 C 
ATOM      3  C   UNL     1     -34.457  22.334   0.724  0.00  0.00    +0.017 C 
ATOM      4  C   UNL     1     -33.475  20.130   0.834  0.00  0.00    +0.122 C 
ATOM      5  C   UNL     1     -34.386  19.774   1.829  0.00  0.00    +0.021 C 
ATOM      6  C   UNL     1     -33.510  21.411   0.282  0.00  0.00    +0.021 C 
ENDROOT
BRANCH   1  10
ATOM      7  S   UNL     1     -35.943  23.682   3.679  0.00  0.00    +0.057 S 
ATOM      8  O   UNL     1     -36.301  22.800   4.774  0.00  0.00    -0.154 OA
ATOM      9  O   UNL     1     -34.615  24.260   3.599  0.00  0.00    -0.154 OA
ATOM     10  N   UNL     1     -36.344  22.931   2.174  0.00  0.00    -0.194 N 
ATOM     11  C   UNL     1     -38.535  24.528   3.389  0.00  0.00    +0.029 C 
ATOM     12  C   UNL     1     -37.117  25.021   3.634  0.00  0.00    +0.173 C 
ATOM     13  C   UNL     1     -38.661  23.774   2.065  0.00  0.00    +0.025 C 
ATOM     14  C   UNL     1     -37.774  22.533   2.011  0.00  0.00    +0.116 C 
ENDBRANCH   1  10
BRANCH   4  15
ATOM     15  S   UNL     1     -32.290  18.973   0.282  0.00  0.00    +0.057 S 
ATOM     16  O   UNL     1     -32.831  18.281  -0.879  0.00  0.00    -0.153 OA
ATOM     17  O   UNL     1     -30.998  19.641   0.189  0.00  0.00    -0.153 OA
BRANCH  15  18
ATOM     18  N   UNL     1     -32.252  17.889   1.603  0.00  0.00    -0.203 NA
ATOM     19  H   UNL     1     -32.231  16.931   1.255  0.00  0.00    +0.144 HD
ATOM     20  H   UNL     1     -33.084  18.025   2.177  0.00  0.00    +0.144 HD
ENDBRANCH  15  18
ENDBRANCH   4  15
TORSDOF 3
ENDMDL
MODEL 9
REMARK VINA RESULT:      -5.5      3.873      7.782
REMARK  Name = 5356
REMARK  3 active torsions:
REMARK  status: ('A' for Active; 'I' for Inactive)
REMARK    1  A    between atoms: C_1  and  N_10
REMARK    2  A    between atoms: C_4  and  S_15
REMARK    3  A    between atoms: S_15  and  N_18
REMARK                            x       y       z     vdW  Elec       q    Type
REMARK                         _______ _______ _______ _____ _____    ______ ____
ROOT
ATOM      1  C   UNL     1     -36.576  21.849   2.567  0.00  0.00    +0.069 C 
ATOM      2  C   UNL     1     -35.669  20.859   2.202  0.00  0.00    +0.017 C 
ATOM      3  C   UNL     1     -37.839  21.901   1.985  0.00  0.00    +0.017 C 
ATOM      4  C   UNL     1     -37.294  19.958   0.657  0.00  0.00    +0.122 C 
ATOM      5  C   UNL     1     -36.029  19.911   1.245  0.00  0.00    +0.021 C 
ATOM      6  C   UNL     1     -38.199  20.954   1.028  0.00  0.00    +0.021 C 
ENDROOT
BRANCH   1  10
ATOM      7  S   UNL     1     -35.707  24.349   2.895  0.00  0.00    +0.057 S 
ATOM      8  O   UNL     1     -34.323  24.264   2.467  0.00  0.00    -0.154 OA
ATOM      9  O   UNL     1     -36.730  24.846   1.995  0.00  0.00    -0.154 OA
ATOM     10  N   UNL     1     -36.203  22.832   3.560  0.00  0.00    -0.194 N 
ATOM     11  C   UNL     1     -34.974  24.703   5.513  0.00  0.00    +0.029 C 
ATOM     12  C   UNL     1     -35.773  25.330   4.380  0.00  0.00    +0.173 C 
ATOM     13  C   UNL     1     -35.483  23.307   5.872  0.00  0.00    +0.025 C 
ATOM     14  C   UNL     1     -35.385  22.330   4.704  0.00  0.00    +0.116 C 
ENDBRANCH   1  10
BRANCH   4  15
ATOM     15  S   UNL     1     -37.744  18.772  -0.542  0.00  0.00    +0.057 S 
ATOM     16  O   UNL     1     -39.187  18.832  -0.729  0.00  0.00    -0.153 OA
ATOM     17  O   UNL     1     -36.859  18.916  -1.690  0.00  0.00    -0.153 OA
BRANCH  15  18
ATOM     18  N   UNL     1     -37.353  17.321   0.272  0.00  0.00    -0.203 NA
ATOM     19  H   UNL     1     -36.914  16.673  -0.381  0.00  0.00    +0.144 HD
ATOM     20  H   UNL     1     -38.204  16.902   0.647  0.00  0.00    +0.144 HD
ENDBRANCH  15  18
ENDBRANCH   4  15
TORSDOF 3
ENDMDL
