MODEL 1
REMARK VINA RESULT:      -6.9      0.000      0.000
REMARK  Name = 58459115
REMARK  4 active torsions:
REMARK  status: ('A' for Active; 'I' for Inactive)
REMARK    1  A    between atoms: N_2  and  C_13
REMARK    2  A    between atoms: C_4  and  C_18
REMARK    3  A    between atoms: C_18  and  N_20
REMARK    4  A    between atoms: C_24  and  C_32
REMARK                            x       y       z     vdW  Elec       q    Type
REMARK                         _______ _______ _______ _____ _____    ______ ____
ROOT
ATOM      1  F   UNL     1     -34.749  21.525   5.740  0.00  0.00    -0.204 F 
ATOM      2  N   UNL     1     -37.734  23.849   2.664  0.00  0.00    -0.255 N 
ATOM      3  N   UNL     1     -37.274  25.856   3.502  0.00  0.00    -0.392 NA
ATOM      4  C   UNL     1     -37.967  25.195   2.602  0.00  0.00    +0.182 C 
ATOM      5  C   UNL     1     -36.830  23.627   3.670  0.00  0.00    +0.156 C 
ATOM      6  C   UNL     1     -36.558  24.894   4.177  0.00  0.00    +0.133 C 
ATOM      7  C   UNL     1     -36.243  22.461   4.165  0.00  0.00    +0.030 C 
ATOM      8  C   UNL     1     -35.651  25.026   5.242  0.00  0.00    +0.032 C 
ATOM      9  C   UNL     1     -35.342  22.611   5.225  0.00  0.00    +0.138 C 
ATOM     10  C   UNL     1     -35.050  23.870   5.755  0.00  0.00    +0.032 C 
ENDROOT
BRANCH   2  13
ATOM     11  F   UNL     1     -37.744  21.104  -1.274  0.00  0.00    -0.202 F 
ATOM     12  N   UNL     1     -40.118  21.315   1.460  0.00  0.00    -0.239 NA
ATOM     13  C   UNL     1     -38.311  22.873   1.850  0.00  0.00    +0.075 C 
ATOM     14  C   UNL     1     -37.705  22.478   0.662  0.00  0.00    +0.048 C 
ATOM     15  C   UNL     1     -39.506  22.265   2.201  0.00  0.00    +0.114 C 
ATOM     16  C   UNL     1     -38.304  21.502  -0.127  0.00  0.00    +0.160 C 
ATOM     17  C   UNL     1     -39.501  20.957   0.313  0.00  0.00    +0.128 C 
ENDBRANCH   2  13
BRANCH   4  18
ATOM     18  C   UNL     1     -38.898  25.797   1.624  0.00  0.00    +0.138 C 
ATOM     19  C   UNL     1     -38.264  26.884   0.735  0.00  0.00    +0.030 C 
BRANCH  18  20
ATOM     20  N   UNL     1     -40.066  26.377   2.283  0.00  0.00    -0.315 N 
ATOM     21  N   UNL     1     -41.532  25.048   1.055  0.00  0.00    -0.233 NA
ATOM     22  N   UNL     1     -43.909  25.232   1.401  0.00  0.00    -0.233 NA
ATOM     23  C   UNL     1     -41.358  26.000   1.995  0.00  0.00    +0.124 C 
ATOM     24  C   UNL     1     -42.396  26.606   2.673  0.00  0.00    +0.197 C 
ATOM     25  C   UNL     1     -43.662  26.178   2.331  0.00  0.00    +0.120 C 
ATOM     26  C   UNL     1     -42.814  24.717   0.811  0.00  0.00    +0.252 C 
ATOM     27  H   UNL     1     -39.922  27.070   2.967  0.00  0.00    +0.148 HD
ATOM     28  N   UNL     1     -44.779  26.757   2.985  0.00  0.00    -0.345 N 
ATOM     29  H   UNL     1     -45.691  26.465   2.754  0.00  0.00    +0.143 HD
ATOM     30  H   UNL     1     -44.643  27.452   3.669  0.00  0.00    +0.143 HD
BRANCH  24  32
ATOM     31  N   UNL     1     -41.993  28.430   4.470  0.00  0.00    -0.195 NA
ATOM     32  C   UNL     1     -42.173  27.613   3.665  0.00  0.00    +0.087 C 
ENDBRANCH  24  32
ENDBRANCH  18  20
ENDBRANCH   4  18
TORSDOF 4
ENDMDL
MODEL 2
REMARK VINA RESULT:      -6.4      3.188      5.879
REMARK  Name = 58459115
REMARK  4 active torsions:
REMARK  status: ('A' for Active; 'I' for Inactive)
REMARK    1  A    between atoms: N_2  and  C_13
REMARK    2  A    between atoms: C_4  and  C_18
REMARK    3  A    between atoms: C_18  and  N_20
REMARK    4  A    between atoms: C_24  and  C_32
REMARK                            x       y       z     vdW  Elec       q    Type
REMARK                         _______ _______ _______ _____ _____    ______ ____
ROOT
ATOM      1  F   UNL     1     -32.114  18.117   1.356  0.00  0.00    -0.204 F 
ATOM      2  N   UNL     1     -35.935  21.048   2.118  0.00  0.00    -0.255 N 
ATOM      3  N   UNL     1     -37.189  20.060   0.573  0.00  0.00    -0.392 NA
ATOM      4  C   UNL     1     -37.142  21.013   1.475  0.00  0.00    +0.182 C 
ATOM      5  C   UNL     1     -35.153  20.051   1.596  0.00  0.00    +0.156 C 
ATOM      6  C   UNL     1     -35.958  19.448   0.634  0.00  0.00    +0.133 C 
ATOM      7  C   UNL     1     -33.850  19.636   1.875  0.00  0.00    +0.030 C 
ATOM      8  C   UNL     1     -35.449  18.366  -0.105  0.00  0.00    +0.032 C 
ATOM      9  C   UNL     1     -33.359  18.558   1.130  0.00  0.00    +0.138 C 
ATOM     10  C   UNL     1     -34.144  17.933   0.158  0.00  0.00    +0.032 C 
ENDROOT
BRANCH   2  13
ATOM     11  F   UNL     1     -35.194  22.125   6.738  0.00  0.00    -0.202 F 
ATOM     12  N   UNL     1     -34.799  24.147   3.752  0.00  0.00    -0.239 NA
ATOM     13  C   UNL     1     -35.563  21.940   3.126  0.00  0.00    +0.075 C 
ATOM     14  C   UNL     1     -35.571  21.556   4.463  0.00  0.00    +0.048 C 
ATOM     15  C   UNL     1     -35.172  23.235   2.826  0.00  0.00    +0.114 C 
ATOM     16  C   UNL     1     -35.194  22.466   5.444  0.00  0.00    +0.160 C 
ATOM     17  C   UNL     1     -34.821  23.738   5.040  0.00  0.00    +0.128 C 
ENDBRANCH   2  13
BRANCH   4  18
ATOM     18  C   UNL     1     -38.238  21.955   1.787  0.00  0.00    +0.138 C 
ATOM     19  C   UNL     1     -39.628  21.299   1.875  0.00  0.00    +0.030 C 
BRANCH  18  20
ATOM     20  N   UNL     1     -38.309  23.037   0.806  0.00  0.00    -0.315 N 
ATOM     21  N   UNL     1     -38.277  24.667   2.469  0.00  0.00    -0.233 NA
ATOM     22  N   UNL     1     -38.363  27.000   1.875  0.00  0.00    -0.233 NA
ATOM     23  C   UNL     1     -38.327  24.368   1.154  0.00  0.00    +0.124 C 
ATOM     24  C   UNL     1     -38.395  25.317   0.155  0.00  0.00    +0.197 C 
ATOM     25  C   UNL     1     -38.411  26.630   0.579  0.00  0.00    +0.120 C 
ATOM     26  C   UNL     1     -38.298  25.983   2.754  0.00  0.00    +0.252 C 
ATOM     27  H   UNL     1     -38.345  22.802  -0.149  0.00  0.00    +0.148 HD
ATOM     28  N   UNL     1     -38.481  27.661  -0.392  0.00  0.00    -0.345 N 
ATOM     29  H   UNL     1     -38.494  28.604  -0.110  0.00  0.00    +0.143 HD
ATOM     30  H   UNL     1     -38.519  27.433  -1.349  0.00  0.00    +0.143 HD
BRANCH  24  32
ATOM     31  N   UNL     1     -38.491  24.672  -2.354  0.00  0.00    -0.195 NA
ATOM     32  C   UNL     1     -38.448  24.961  -1.231  0.00  0.00    +0.087 C 
ENDBRANCH  24  32
ENDBRANCH  18  20
ENDBRANCH   4  18
TORSDOF 4
ENDMDL
MODEL 3
REMARK VINA RESULT:      -6.3      3.558      6.743
REMARK  Name = 58459115
REMARK  4 active torsions:
REMARK  status: ('A' for Active; 'I' for Inactive)
REMARK    1  A    between atoms: N_2  and  C_13
REMARK    2  A    between atoms: C_4  and  C_18
REMARK    3  A    between atoms: C_18  and  N_20
REMARK    4  A    between atoms: C_24  and  C_32
REMARK                            x       y       z     vdW  Elec       q    Type
REMARK                         _______ _______ _______ _____ _____    ______ ____
ROOT
ATOM      1  F   UNL     1     -40.778  23.596   0.318  0.00  0.00    -0.204 F 
ATOM      2  N   UNL     1     -36.668  23.017   2.878  0.00  0.00    -0.255 N 
ATOM      3  N   UNL     1     -37.238  24.521   4.412  0.00  0.00    -0.392 NA
ATOM      4  C   UNL     1     -36.316  23.667   4.028  0.00  0.00    +0.182 C 
ATOM      5  C   UNL     1     -37.900  23.481   2.495  0.00  0.00    +0.156 C 
ATOM      6  C   UNL     1     -38.235  24.418   3.469  0.00  0.00    +0.133 C 
ATOM      7  C   UNL     1     -38.727  23.170   1.414  0.00  0.00    +0.030 C 
ATOM      8  C   UNL     1     -39.462  25.097   3.374  0.00  0.00    +0.032 C 
ATOM      9  C   UNL     1     -39.945  23.855   1.336  0.00  0.00    +0.138 C 
ATOM     10  C   UNL     1     -40.307  24.801   2.298  0.00  0.00    +0.032 C 
ENDROOT
BRANCH   2  13
ATOM     11  F   UNL     1     -33.423  21.742  -0.421  0.00  0.00    -0.202 F 
ATOM     12  N   UNL     1     -35.318  19.726   1.926  0.00  0.00    -0.239 NA
ATOM     13  C   UNL     1     -35.912  22.053   2.210  0.00  0.00    +0.075 C 
ATOM     14  C   UNL     1     -35.024  22.410   1.201  0.00  0.00    +0.048 C 
ATOM     15  C   UNL     1     -36.020  20.710   2.532  0.00  0.00    +0.114 C 
ATOM     16  C   UNL     1     -34.283  21.427   0.554  0.00  0.00    +0.160 C 
ATOM     17  C   UNL     1     -34.466  20.111   0.950  0.00  0.00    +0.128 C 
ENDBRANCH   2  13
BRANCH   4  18
ATOM     18  C   UNL     1     -35.037  23.413   4.727  0.00  0.00    +0.138 C 
ATOM     19  C   UNL     1     -35.173  22.558   6.000  0.00  0.00    +0.030 C 
BRANCH  18  20
ATOM     20  N   UNL     1     -34.368  24.662   5.089  0.00  0.00    -0.315 N 
ATOM     21  N   UNL     1     -34.143  25.293   2.859  0.00  0.00    -0.233 NA
ATOM     22  N   UNL     1     -33.079  27.379   2.295  0.00  0.00    -0.233 NA
ATOM     23  C   UNL     1     -33.933  25.579   4.160  0.00  0.00    +0.124 C 
ATOM     24  C   UNL     1     -33.313  26.730   4.601  0.00  0.00    +0.197 C 
ATOM     25  C   UNL     1     -32.902  27.602   3.614  0.00  0.00    +0.120 C 
ATOM     26  C   UNL     1     -33.697  26.222   1.993  0.00  0.00    +0.252 C 
ATOM     27  H   UNL     1     -34.223  24.856   6.043  0.00  0.00    +0.148 HD
ATOM     28  N   UNL     1     -32.255  28.806   3.991  0.00  0.00    -0.345 N 
ATOM     29  H   UNL     1     -31.954  29.441   3.301  0.00  0.00    +0.143 HD
ATOM     30  H   UNL     1     -32.104  29.006   4.943  0.00  0.00    +0.143 HD
BRANCH  24  32
ATOM     31  N   UNL     1     -32.938  27.218   7.119  0.00  0.00    -0.195 NA
ATOM     32  C   UNL     1     -33.106  26.999   5.992  0.00  0.00    +0.087 C 
ENDBRANCH  24  32
ENDBRANCH  18  20
ENDBRANCH   4  18
TORSDOF 4
ENDMDL
MODEL 4
REMARK VINA RESULT:      -6.3      4.938      8.515
REMARK  Name = 58459115
REMARK  4 active torsions:
REMARK  status: ('A' for Active; 'I' for Inactive)
REMARK    1  A    between atoms: N_2  and  C_13
REMARK    2  A    between atoms: C_4  and  C_18
REMARK    3  A    between atoms: C_18  and  N_20
REMARK    4  A    between atoms: C_24  and  C_32
REMARK                            x       y       z     vdW  Elec       q    Type
REMARK                         _______ _______ _______ _____ _____    ______ ____
ROOT
ATOM      1  F   UNL     1     -36.162  25.321   6.005  0.00  0.00    -0.204 F 
ATOM      2  N   UNL     1     -35.671  22.443   2.101  0.00  0.00    -0.255 N 
ATOM      3  N   UNL     1     -35.103  20.661   3.302  0.00  0.00    -0.392 NA
ATOM      4  C   UNL     1     -35.316  21.122   2.090  0.00  0.00    +0.182 C 
ATOM      5  C   UNL     1     -35.689  22.861   3.406  0.00  0.00    +0.156 C 
ATOM      6  C   UNL     1     -35.332  21.732   4.136  0.00  0.00    +0.133 C 
ATOM      7  C   UNL     1     -35.978  24.094   3.993  0.00  0.00    +0.030 C 
ATOM      8  C   UNL     1     -35.252  21.818   5.537  0.00  0.00    +0.032 C 
ATOM      9  C   UNL     1     -35.895  24.162   5.388  0.00  0.00    +0.138 C 
ATOM     10  C   UNL     1     -35.539  23.045   6.148  0.00  0.00    +0.032 C 
ENDROOT
BRANCH   2  13
ATOM     11  F   UNL     1     -34.419  25.646  -1.249  0.00  0.00    -0.202 F 
ATOM     12  N   UNL     1     -37.566  23.931  -0.684  0.00  0.00    -0.239 NA
ATOM     13  C   UNL     1     -35.963  23.227   0.984  0.00  0.00    +0.075 C 
ATOM     14  C   UNL     1     -35.002  24.063   0.423  0.00  0.00    +0.048 C 
ATOM     15  C   UNL     1     -37.217  23.197   0.398  0.00  0.00    +0.114 C 
ATOM     16  C   UNL     1     -35.323  24.833  -0.690  0.00  0.00    +0.160 C 
ATOM     17  C   UNL     1     -36.607  24.731  -1.200  0.00  0.00    +0.128 C 
ENDBRANCH   2  13
BRANCH   4  18
ATOM     18  C   UNL     1     -35.196  20.339   0.842  0.00  0.00    +0.138 C 
ATOM     19  C   UNL     1     -36.298  19.280   0.652  0.00  0.00    +0.030 C 
BRANCH  18  20
ATOM     20  N   UNL     1     -33.902  19.666   0.755  0.00  0.00    -0.315 N 
ATOM     21  N   UNL     1     -32.905  21.518  -0.246  0.00  0.00    -0.233 NA
ATOM     22  N   UNL     1     -30.575  21.454  -0.854  0.00  0.00    -0.233 NA
ATOM     23  C   UNL     1     -32.781  20.257   0.217  0.00  0.00    +0.124 C 
ATOM     24  C   UNL     1     -31.603  19.539   0.180  0.00  0.00    +0.197 C 
ATOM     25  C   UNL     1     -30.522  20.195  -0.373  0.00  0.00    +0.120 C 
ATOM     26  C   UNL     1     -31.780  22.048  -0.761  0.00  0.00    +0.252 C 
ATOM     27  H   UNL     1     -33.828  18.746   1.097  0.00  0.00    +0.148 HD
ATOM     28  N   UNL     1     -29.278  19.520  -0.446  0.00  0.00    -0.345 N 
ATOM     29  H   UNL     1     -28.495  19.971  -0.838  0.00  0.00    +0.143 HD
ATOM     30  H   UNL     1     -29.197  18.599  -0.108  0.00  0.00    +0.143 HD
BRANCH  24  32
ATOM     31  N   UNL     1     -31.433  17.116   1.086  0.00  0.00    -0.195 NA
ATOM     32  C   UNL     1     -31.509  18.201   0.681  0.00  0.00    +0.087 C 
ENDBRANCH  24  32
ENDBRANCH  18  20
ENDBRANCH   4  18
TORSDOF 4
ENDMDL
MODEL 5
REMARK VINA RESULT:      -6.0      3.403      6.438
REMARK  Name = 58459115
REMARK  4 active torsions:
REMARK  status: ('A' for Active; 'I' for Inactive)
REMARK    1  A    between atoms: N_2  and  C_13
REMARK    2  A    between atoms: C_4  and  C_18
REMARK    3  A    between atoms: C_18  and  N_20
REMARK    4  A    between atoms: C_24  and  C_32
REMARK                            x       y       z     vdW  Elec       q    Type
REMARK                         _______ _______ _______ _____ _____    ______ ____
ROOT
ATOM      1  F   UNL     1     -34.162  29.946   2.450  0.00  0.00    -0.204 F 
ATOM      2  N   UNL     1     -35.907  25.488   3.374  0.00  0.00    -0.255 N 
ATOM      3  N   UNL     1     -34.159  24.901   4.615  0.00  0.00    -0.392 NA
ATOM      4  C   UNL     1     -35.316  24.512   4.128  0.00  0.00    +0.182 C 
ATOM      5  C   UNL     1     -35.077  26.579   3.376  0.00  0.00    +0.156 C 
ATOM      6  C   UNL     1     -33.994  26.188   4.158  0.00  0.00    +0.133 C 
ATOM      7  C   UNL     1     -35.177  27.837   2.780  0.00  0.00    +0.030 C 
ATOM      8  C   UNL     1     -32.937  27.092   4.367  0.00  0.00    +0.032 C 
ATOM      9  C   UNL     1     -34.118  28.725   2.999  0.00  0.00    +0.138 C 
ATOM     10  C   UNL     1     -33.017  28.360   3.778  0.00  0.00    +0.032 C 
ENDROOT
BRANCH   2  13
ATOM     11  F   UNL     1     -40.707  25.511   3.382  0.00  0.00    -0.202 F 
ATOM     12  N   UNL     1     -38.355  25.086   0.654  0.00  0.00    -0.239 NA
ATOM     13  C   UNL     1     -37.135  25.394   2.718  0.00  0.00    +0.075 C 
ATOM     14  C   UNL     1     -38.333  25.506   3.417  0.00  0.00    +0.048 C 
ATOM     15  C   UNL     1     -37.200  25.187   1.350  0.00  0.00    +0.114 C 
ATOM     16  C   UNL     1     -39.541  25.409   2.736  0.00  0.00    +0.160 C 
ATOM     17  C   UNL     1     -39.498  25.199   1.366  0.00  0.00    +0.128 C 
ENDBRANCH   2  13
BRANCH   4  18
ATOM     18  C   UNL     1     -35.937  23.188   4.345  0.00  0.00    +0.138 C 
ATOM     19  C   UNL     1     -35.562  22.527   5.684  0.00  0.00    +0.030 C 
BRANCH  18  20
ATOM     20  N   UNL     1     -35.598  22.256   3.270  0.00  0.00    -0.315 N 
ATOM     21  N   UNL     1     -37.827  22.053   2.624  0.00  0.00    -0.233 NA
ATOM     22  N   UNL     1     -38.424  20.625   0.778  0.00  0.00    -0.233 NA
ATOM     23  C   UNL     1     -36.538  21.704   2.430  0.00  0.00    +0.124 C 
ATOM     24  C   UNL     1     -36.120  20.835   1.443  0.00  0.00    +0.197 C 
ATOM     25  C   UNL     1     -37.117  20.321   0.639  0.00  0.00    +0.120 C 
ATOM     26  C   UNL     1     -38.704  21.484   1.776  0.00  0.00    +0.252 C 
ATOM     27  H   UNL     1     -34.654  22.013   3.141  0.00  0.00    +0.148 HD
ATOM     28  N   UNL     1     -36.763  19.418  -0.395  0.00  0.00    -0.345 N 
ATOM     29  H   UNL     1     -37.460  19.040  -0.979  0.00  0.00    +0.143 HD
ATOM     30  H   UNL     1     -35.820  19.168  -0.529  0.00  0.00    +0.143 HD
BRANCH  24  32
ATOM     31  N   UNL     1     -33.625  20.206   1.125  0.00  0.00    -0.195 NA
ATOM     32  C   UNL     1     -34.742  20.488   1.267  0.00  0.00    +0.087 C 
ENDBRANCH  24  32
ENDBRANCH  18  20
ENDBRANCH   4  18
TORSDOF 4
ENDMDL
MODEL 6
REMARK VINA RESULT:      -5.9      4.148      8.562
REMARK  Name = 58459115
REMARK  4 active torsions:
REMARK  status: ('A' for Active; 'I' for Inactive)
REMARK    1  A    between atoms: N_2  and  C_13
REMARK    2  A    between atoms: C_4  and  C_18
REMARK    3  A    between atoms: C_18  and  N_20
REMARK    4  A    between atoms: C_24  and  C_32
REMARK                            x       y       z     vdW  Elec       q    Type
REMARK                         _______ _______ _______ _____ _____    ______ ____
ROOT
ATOM      1  F   UNL     1     -40.942  25.500   3.159  0.00  0.00    -0.204 F 
ATOM      2  N   UNL     1     -36.828  22.998   2.391  0.00  0.00    -0.255 N 
ATOM      3  N   UNL     1     -37.570  22.069   0.512  0.00  0.00    -0.392 NA
ATOM      4  C   UNL     1     -36.559  22.155   1.347  0.00  0.00    +0.182 C 
ATOM      5  C   UNL     1     -38.096  23.488   2.217  0.00  0.00    +0.156 C 
ATOM      6  C   UNL     1     -38.538  22.894   1.037  0.00  0.00    +0.133 C 
ATOM      7  C   UNL     1     -38.872  24.373   2.966  0.00  0.00    +0.030 C 
ATOM      8  C   UNL     1     -39.828  23.189   0.563  0.00  0.00    +0.032 C 
ATOM      9  C   UNL     1     -40.153  24.656   2.479  0.00  0.00    +0.138 C 
ATOM     10  C   UNL     1     -40.624  24.075   1.299  0.00  0.00    +0.032 C 
ENDROOT
BRANCH   2  13
ATOM     11  F   UNL     1     -35.019  22.125   6.751  0.00  0.00    -0.202 F 
ATOM     12  N   UNL     1     -34.260  24.749   4.365  0.00  0.00    -0.239 NA
ATOM     13  C   UNL     1     -35.968  23.305   3.446  0.00  0.00    +0.075 C 
ATOM     14  C   UNL     1     -35.937  22.525   4.597  0.00  0.00    +0.048 C 
ATOM     15  C   UNL     1     -35.117  24.396   3.379  0.00  0.00    +0.114 C 
ATOM     16  C   UNL     1     -35.069  22.856   5.632  0.00  0.00    +0.160 C 
ATOM     17  C   UNL     1     -34.259  23.969   5.468  0.00  0.00    +0.128 C 
ENDBRANCH   2  13
BRANCH   4  18
ATOM     18  C   UNL     1     -35.270  21.443   1.211  0.00  0.00    +0.138 C 
ATOM     19  C   UNL     1     -34.192  22.231   0.444  0.00  0.00    +0.030 C 
BRANCH  18  20
ATOM     20  N   UNL     1     -35.441  20.150   0.551  0.00  0.00    -0.315 N 
ATOM     21  N   UNL     1     -33.435  19.344   1.417  0.00  0.00    -0.233 NA
ATOM     22  N   UNL     1     -32.706  17.108   0.895  0.00  0.00    -0.233 NA
ATOM     23  C   UNL     1     -34.530  19.124   0.661  0.00  0.00    +0.124 C 
ATOM     24  C   UNL     1     -34.780  17.939   0.000  0.00  0.00    +0.197 C 
ATOM     25  C   UNL     1     -33.823  16.956   0.155  0.00  0.00    +0.120 C 
ATOM     26  C   UNL     1     -32.577  18.308   1.489  0.00  0.00    +0.252 C 
ATOM     27  H   UNL     1     -36.246  20.006   0.004  0.00  0.00    +0.148 HD
ATOM     28  N   UNL     1     -34.011  15.711  -0.496  0.00  0.00    -0.345 N 
ATOM     29  H   UNL     1     -33.340  14.998  -0.399  0.00  0.00    +0.143 HD
ATOM     30  H   UNL     1     -34.813  15.560  -1.048  0.00  0.00    +0.143 HD
BRANCH  24  32
ATOM     31  N   UNL     1     -36.906  17.583  -1.440  0.00  0.00    -0.195 NA
ATOM     32  C   UNL     1     -35.955  17.742  -0.795  0.00  0.00    +0.087 C 
ENDBRANCH  24  32
ENDBRANCH  18  20
ENDBRANCH   4  18
TORSDOF 4
ENDMDL
MODEL 7
REMARK VINA RESULT:      -5.9      6.481      9.616
REMARK  Name = 58459115
REMARK  4 active torsions:
REMARK  status: ('A' for Active; 'I' for Inactive)
REMARK    1  A    between atoms: N_2  and  C_13
REMARK    2  A    between atoms: C_4  and  C_18
REMARK    3  A    between atoms: C_18  and  N_20
REMARK    4  A    between atoms: C_24  and  C_32
REMARK                            x       y       z     vdW  Elec       q    Type
REMARK                         _______ _______ _______ _____ _____    ______ ____
ROOT
ATOM      1  F   UNL     1     -32.895  35.700   2.517  0.00  0.00    -0.204 F 
ATOM      2  N   UNL     1     -32.845  30.850   3.015  0.00  0.00    -0.255 N 
ATOM      3  N   UNL     1     -34.437  30.530   1.497  0.00  0.00    -0.392 NA
ATOM      4  C   UNL     1     -33.621  29.945   2.344  0.00  0.00    +0.182 C 
ATOM      5  C   UNL     1     -33.183  32.102   2.571  0.00  0.00    +0.156 C 
ATOM      6  C   UNL     1     -34.178  31.876   1.623  0.00  0.00    +0.133 C 
ATOM      7  C   UNL     1     -32.718  33.374   2.905  0.00  0.00    +0.030 C 
ATOM      8  C   UNL     1     -34.756  32.973   0.961  0.00  0.00    +0.032 C 
ATOM      9  C   UNL     1     -33.303  34.455   2.236  0.00  0.00    +0.138 C 
ATOM     10  C   UNL     1     -34.304  34.259   1.281  0.00  0.00    +0.032 C 
ENDROOT
BRANCH   2  13
ATOM     11  F   UNL     1     -31.560  29.903   7.542  0.00  0.00    -0.202 F 
ATOM     12  N   UNL     1     -29.561  30.148   4.525  0.00  0.00    -0.239 NA
ATOM     13  C   UNL     1     -31.881  30.555   3.980  0.00  0.00    +0.075 C 
ATOM     14  C   UNL     1     -32.233  30.374   5.314  0.00  0.00    +0.048 C 
ATOM     15  C   UNL     1     -30.544  30.432   3.640  0.00  0.00    +0.114 C 
ATOM     16  C   UNL     1     -31.250  30.081   6.253  0.00  0.00    +0.160 C 
ATOM     17  C   UNL     1     -29.941  29.980   5.811  0.00  0.00    +0.128 C 
ENDBRANCH   2  13
BRANCH   4  18
ATOM     18  C   UNL     1     -33.523  28.487   2.574  0.00  0.00    +0.138 C 
ATOM     19  C   UNL     1     -32.556  27.762   1.621  0.00  0.00    +0.030 C 
BRANCH  18  20
ATOM     20  N   UNL     1     -34.830  27.841   2.471  0.00  0.00    -0.315 N 
ATOM     21  N   UNL     1     -34.501  26.658   4.450  0.00  0.00    -0.233 NA
ATOM     22  N   UNL     1     -36.206  25.163   5.262  0.00  0.00    -0.233 NA
ATOM     23  C   UNL     1     -35.300  26.942   3.401  0.00  0.00    +0.124 C 
ATOM     24  C   UNL     1     -36.549  26.385   3.216  0.00  0.00    +0.197 C 
ATOM     25  C   UNL     1     -36.954  25.492   4.188  0.00  0.00    +0.120 C 
ATOM     26  C   UNL     1     -35.008  25.774   5.329  0.00  0.00    +0.252 C 
ATOM     27  H   UNL     1     -35.401  28.059   1.700  0.00  0.00    +0.148 HD
ATOM     28  N   UNL     1     -38.225  24.878   4.065  0.00  0.00    -0.345 N 
ATOM     29  H   UNL     1     -38.531  24.238   4.748  0.00  0.00    +0.143 HD
ATOM     30  H   UNL     1     -38.801  25.089   3.295  0.00  0.00    +0.143 HD
BRANCH  24  32
ATOM     31  N   UNL     1     -38.035  26.972   1.175  0.00  0.00    -0.195 NA
ATOM     32  C   UNL     1     -37.370  26.710   2.089  0.00  0.00    +0.087 C 
ENDBRANCH  24  32
ENDBRANCH  18  20
ENDBRANCH   4  18
TORSDOF 4
ENDMDL
MODEL 8
REMARK VINA RESULT:      -5.8      4.191      6.713
REMARK  Name = 58459115
REMARK  4 active torsions:
REMARK  status: ('A' for Active; 'I' for Inactive)
REMARK    1  A    between atoms: N_2  and  C_13
REMARK    2  A    between atoms: C_4  and  C_18
REMARK    3  A    between atoms: C_18  and  N_20
REMARK    4  A    between atoms: C_24  and  C_32
REMARK                            x       y       z     vdW  Elec       q    Type
REMARK                         _______ _______ _______ _____ _____    ______ ____
ROOT
ATOM      1  F   UNL     1     -39.338  19.639  -1.778  0.00  0.00    -0.204 F 
ATOM      2  N   UNL     1     -36.075  21.114   1.532  0.00  0.00    -0.255 N 
ATOM      3  N   UNL     1     -37.596  22.129   2.795  0.00  0.00    -0.392 NA
ATOM      4  C   UNL     1     -36.321  21.841   2.664  0.00  0.00    +0.182 C 
ATOM      5  C   UNL     1     -37.271  20.920   0.890  0.00  0.00    +0.156 C 
ATOM      6  C   UNL     1     -38.205  21.563   1.698  0.00  0.00    +0.133 C 
ATOM      7  C   UNL     1     -37.607  20.258  -0.292  0.00  0.00    +0.030 C 
ATOM      8  C   UNL     1     -39.559  21.556   1.320  0.00  0.00    +0.032 C 
ATOM      9  C   UNL     1     -38.959  20.260  -0.653  0.00  0.00    +0.138 C 
ATOM     10  C   UNL     1     -39.918  20.897   0.138  0.00  0.00    +0.032 C 
ENDROOT
BRANCH   2  13
ATOM     11  F   UNL     1     -32.486  17.929   1.657  0.00  0.00    -0.202 F 
ATOM     12  N   UNL     1     -32.894  20.946  -0.315  0.00  0.00    -0.239 NA
ATOM     13  C   UNL     1     -34.830  20.651   1.102  0.00  0.00    +0.075 C 
ATOM     14  C   UNL     1     -34.281  19.483   1.622  0.00  0.00    +0.048 C 
ATOM     15  C   UNL     1     -34.104  21.339   0.144  0.00  0.00    +0.114 C 
ATOM     16  C   UNL     1     -33.039  19.047   1.174  0.00  0.00    +0.160 C 
ATOM     17  C   UNL     1     -32.392  19.808   0.213  0.00  0.00    +0.128 C 
ENDBRANCH   2  13
BRANCH   4  18
ATOM     18  C   UNL     1     -35.251  22.236   3.604  0.00  0.00    +0.138 C 
ATOM     19  C   UNL     1     -35.165  21.359   4.867  0.00  0.00    +0.030 C 
BRANCH  18  20
ATOM     20  N   UNL     1     -35.398  23.627   4.028  0.00  0.00    -0.315 N 
ATOM     21  N   UNL     1     -34.498  24.424   2.033  0.00  0.00    -0.233 NA
ATOM     22  N   UNL     1     -34.272  26.795   1.672  0.00  0.00    -0.233 NA
ATOM     23  C   UNL     1     -35.024  24.696   3.246  0.00  0.00    +0.124 C 
ATOM     24  C   UNL     1     -35.204  25.973   3.734  0.00  0.00    +0.197 C 
ATOM     25  C   UNL     1     -34.805  26.994   2.895  0.00  0.00    +0.120 C 
ATOM     26  C   UNL     1     -34.149  25.504   1.310  0.00  0.00    +0.252 C 
ATOM     27  H   UNL     1     -35.784  23.808   4.915  0.00  0.00    +0.148 HD
ATOM     28  N   UNL     1     -34.958  28.335   3.330  0.00  0.00    -0.345 N 
ATOM     29  H   UNL     1     -34.679  29.077   2.745  0.00  0.00    +0.143 HD
ATOM     30  H   UNL     1     -35.341  28.524   4.216  0.00  0.00    +0.143 HD
BRANCH  24  32
ATOM     31  N   UNL     1     -36.220  26.425   6.075  0.00  0.00    -0.195 NA
ATOM     32  C   UNL     1     -35.765  26.223   5.027  0.00  0.00    +0.087 C 
ENDBRANCH  24  32
ENDBRANCH  18  20
ENDBRANCH   4  18
TORSDOF 4
ENDMDL
MODEL 9
REMARK VINA RESULT:      -5.8      5.985      9.645
REMARK  Name = 58459115
REMARK  4 active torsions:
REMARK  status: ('A' for Active; 'I' for Inactive)
REMARK    1  A    between atoms: N_2  and  C_13
REMARK    2  A    between atoms: C_4  and  C_18
REMARK    3  A    between atoms: C_18  and  N_20
REMARK    4  A    between atoms: C_24  and  C_32
REMARK                            x       y       z     vdW  Elec       q    Type
REMARK                         _______ _______ _______ _____ _____    ______ ____
ROOT
ATOM      1  F   UNL     1     -33.734  34.066   2.436  0.00  0.00    -0.204 F 
ATOM      2  N   UNL     1     -32.316  29.468   3.228  0.00  0.00    -0.255 N 
ATOM      3  N   UNL     1     -33.392  28.675   1.453  0.00  0.00    -0.392 NA
ATOM      4  C   UNL     1     -32.627  28.369   2.476  0.00  0.00    +0.182 C 
ATOM      5  C   UNL     1     -32.920  30.555   2.652  0.00  0.00    +0.156 C 
ATOM      6  C   UNL     1     -33.585  30.034   1.545  0.00  0.00    +0.133 C 
ATOM      7  C   UNL     1     -32.942  31.908   2.992  0.00  0.00    +0.030 C 
ATOM      8  C   UNL     1     -34.321  30.900   0.718  0.00  0.00    +0.032 C 
ATOM      9  C   UNL     1     -33.679  32.756   2.157  0.00  0.00    +0.138 C 
ATOM     10  C   UNL     1     -34.357  32.262   1.040  0.00  0.00    +0.032 C 
ENDROOT
BRANCH   2  13
ATOM     11  F   UNL     1     -31.812  29.625   8.000  0.00  0.00    -0.202 F 
ATOM     12  N   UNL     1     -29.321  29.448   5.370  0.00  0.00    -0.239 NA
ATOM     13  C   UNL     1     -31.526  29.484   4.379  0.00  0.00    +0.075 C 
ATOM     14  C   UNL     1     -32.101  29.549   5.644  0.00  0.00    +0.048 C 
ATOM     15  C   UNL     1     -30.144  29.435   4.297  0.00  0.00    +0.114 C 
ATOM     16  C   UNL     1     -31.287  29.563   6.771  0.00  0.00    +0.160 C 
ATOM     17  C   UNL     1     -29.915  29.511   6.582  0.00  0.00    +0.128 C 
ENDBRANCH   2  13
BRANCH   4  18
ATOM     18  C   UNL     1     -32.140  27.013   2.809  0.00  0.00    +0.138 C 
ATOM     19  C   UNL     1     -30.886  26.583   2.026  0.00  0.00    +0.030 C 
BRANCH  18  20
ATOM     20  N   UNL     1     -33.176  26.005   2.593  0.00  0.00    -0.315 N 
ATOM     21  N   UNL     1     -33.775  26.008   4.843  0.00  0.00    -0.233 NA
ATOM     22  N   UNL     1     -35.543  24.572   5.625  0.00  0.00    -0.233 NA
ATOM     23  C   UNL     1     -33.975  25.518   3.602  0.00  0.00    +0.124 C 
ATOM     24  C   UNL     1     -34.927  24.567   3.298  0.00  0.00    +0.197 C 
ATOM     25  C   UNL     1     -35.689  24.126   4.360  0.00  0.00    +0.120 C 
ATOM     26  C   UNL     1     -34.582  25.499   5.793  0.00  0.00    +0.252 C 
ATOM     27  H   UNL     1     -33.309  25.658   1.682  0.00  0.00    +0.148 HD
ATOM     28  N   UNL     1     -36.687  23.146   4.125  0.00  0.00    -0.345 N 
ATOM     29  H   UNL     1     -37.241  22.818   4.870  0.00  0.00    +0.143 HD
ATOM     30  H   UNL     1     -36.825  22.793   3.216  0.00  0.00    +0.143 HD
BRANCH  24  32
ATOM     31  N   UNL     1     -35.259  23.665   0.891  0.00  0.00    -0.195 NA
ATOM     32  C   UNL     1     -35.110  24.070   1.968  0.00  0.00    +0.087 C 
ENDBRANCH  24  32
ENDBRANCH  18  20
ENDBRANCH   4  18
TORSDOF 4
ENDMDL
