MODEL 1
REMARK VINA RESULT:      -6.5      0.000      0.000
REMARK  Name = 193749
REMARK  8 active torsions:
REMARK  status: ('A' for Active; 'I' for Inactive)
REMARK    1  A    between atoms: N_1  and  C_14
REMARK    2  A    between atoms: N_1  and  O_26
REMARK    3  A    between atoms: C_5  and  O_20
REMARK    4  A    between atoms: C_9  and  O_22
REMARK    5  A    between atoms: C_19  and  O_24
REMARK    6  A    between atoms: O_26  and  C_27
REMARK    7  A    between atoms: C_27  and  C_29
REMARK    8  A    between atoms: C_29  and  O_30
REMARK                            x       y       z     vdW  Elec       q    Type
REMARK                         _______ _______ _______ _____ _____    ______ ____
ROOT
ATOM      1  C   UNL     1     -35.701  23.554   2.891  0.00  0.00    +0.027 C 
ATOM      2  C   UNL     1     -34.831  24.249   3.973  0.00  0.00    +0.005 C 
ATOM      3  C   UNL     1     -35.554  25.404   4.731  0.00  0.00    +0.006 C 
ATOM      4  C   UNL     1     -36.546  22.585   3.749  0.00  0.00    +0.137 C 
ATOM      5  C   UNL     1     -36.273  26.393   3.788  0.00  0.00    +0.022 C 
ATOM      6  C   UNL     1     -36.564  24.534   2.074  0.00  0.00    +0.003 C 
ATOM      7  C   UNL     1     -34.459  23.092   4.931  0.00  0.00    +0.032 C 
ATOM      8  C   UNL     1     -35.563  22.037   4.786  0.00  0.00    +0.137 C 
ATOM      9  C   UNL     1     -37.259  25.601   2.913  0.00  0.00    +0.004 C 
ATOM     10  C   UNL     1     -34.812  22.780   1.888  0.00  0.00    +0.002 C 
ATOM     11  C   UNL     1     -34.614  26.187   5.654  0.00  0.00    +0.025 C 
ATOM     12  C   UNL     1     -35.294  27.299   3.048  0.00  0.00    -0.025 C 
ATOM     13  C   UNL     1     -33.605  26.997   4.876  0.00  0.00    +0.125 C 
ATOM     14  C   UNL     1     -34.018  27.578   3.577  0.00  0.00    -0.005 C 
ATOM     15  C   UNL     1     -35.659  27.942   1.852  0.00  0.00    -0.001 C 
ATOM     16  C   UNL     1     -33.127  28.422   2.895  0.00  0.00    +0.033 C 
ATOM     17  C   UNL     1     -34.771  28.784   1.178  0.00  0.00    +0.036 C 
ATOM     18  C   UNL     1     -33.504  29.017   1.695  0.00  0.00    +0.133 C 
ENDROOT
BRANCH   4  19
ATOM     19  O   UNL     1     -37.105  21.517   3.000  0.00  0.00    -0.382 OA
ATOM     20  H   UNL     1     -37.378  20.808   3.602  0.00  0.00    +0.210 HD
ENDBRANCH   4  19
BRANCH   8  21
ATOM     21  O   UNL     1     -36.221  21.815   6.025  0.00  0.00    -0.382 OA
ATOM     22  H   UNL     1     -35.615  21.373   6.639  0.00  0.00    +0.210 HD
ENDBRANCH   8  21
BRANCH  18  23
ATOM     23  O   UNL     1     -32.640  29.838   1.037  0.00  0.00    -0.506 OA
ATOM     24  H   UNL     1     -32.160  30.489   1.511  0.00  0.00    +0.292 HD
ENDBRANCH  18  23
BRANCH  13  25
ATOM     25  N   UNL     1     -32.422  27.201   5.361  0.00  0.00    -0.080 NA
BRANCH  25  26
ATOM     26  O   UNL     1     -32.563  27.785   6.626  0.00  0.00    -0.254 OA
BRANCH  26  27
ATOM     27  C   UNL     1     -31.803  28.985   6.639  0.00  0.00    +0.277 C 
BRANCH  27  29
ATOM     28  O   UNL     1     -29.738  29.393   5.424  0.00  0.00    -0.247 OA
ATOM     29  C   UNL     1     -30.397  28.702   6.187  0.00  0.00    +0.347 C 
BRANCH  29  30
ATOM     30  O   UNL     1     -29.947  27.553   6.750  0.00  0.00    -0.478 OA
ATOM     31  H   UNL     1     -30.389  26.744   6.581  0.00  0.00    +0.295 HD
ENDBRANCH  29  30
ENDBRANCH  27  29
ENDBRANCH  26  27
ENDBRANCH  25  26
ENDBRANCH  13  25
TORSDOF 8
ENDMDL
MODEL 2
REMARK VINA RESULT:      -6.2      2.643      7.533
REMARK  Name = 193749
REMARK  8 active torsions:
REMARK  status: ('A' for Active; 'I' for Inactive)
REMARK    1  A    between atoms: N_1  and  C_14
REMARK    2  A    between atoms: N_1  and  O_26
REMARK    3  A    between atoms: C_5  and  O_20
REMARK    4  A    between atoms: C_9  and  O_22
REMARK    5  A    between atoms: C_19  and  O_24
REMARK    6  A    between atoms: O_26  and  C_27
REMARK    7  A    between atoms: C_27  and  C_29
REMARK    8  A    between atoms: C_29  and  O_30
REMARK                            x       y       z     vdW  Elec       q    Type
REMARK                         _______ _______ _______ _____ _____    ______ ____
ROOT
ATOM      1  C   UNL     1     -33.186  26.813   2.375  0.00  0.00    +0.027 C 
ATOM      2  C   UNL     1     -34.442  26.140   1.758  0.00  0.00    +0.005 C 
ATOM      3  C   UNL     1     -35.764  26.416   2.537  0.00  0.00    +0.006 C 
ATOM      4  C   UNL     1     -33.310  28.256   1.836  0.00  0.00    +0.137 C 
ATOM      5  C   UNL     1     -35.629  26.191   4.060  0.00  0.00    +0.022 C 
ATOM      6  C   UNL     1     -33.150  26.752   3.913  0.00  0.00    +0.003 C 
ATOM      7  C   UNL     1     -34.498  26.731   0.328  0.00  0.00    +0.032 C 
ATOM      8  C   UNL     1     -33.778  28.084   0.389  0.00  0.00    +0.137 C 
ATOM      9  C   UNL     1     -34.482  27.075   4.581  0.00  0.00    +0.004 C 
ATOM     10  C   UNL     1     -31.893  26.135   1.860  0.00  0.00    +0.002 C 
ATOM     11  C   UNL     1     -36.944  25.590   2.014  0.00  0.00    +0.025 C 
ATOM     12  C   UNL     1     -35.556  24.712   4.420  0.00  0.00    -0.025 C 
ATOM     13  C   UNL     1     -36.782  24.120   2.315  0.00  0.00    +0.125 C 
ATOM     14  C   UNL     1     -36.108  23.728   3.576  0.00  0.00    -0.005 C 
ATOM     15  C   UNL     1     -35.000  24.286   5.640  0.00  0.00    -0.001 C 
ATOM     16  C   UNL     1     -36.046  22.368   3.920  0.00  0.00    +0.033 C 
ATOM     17  C   UNL     1     -34.943  22.933   5.982  0.00  0.00    +0.036 C 
ATOM     18  C   UNL     1     -35.459  21.975   5.118  0.00  0.00    +0.133 C 
ENDROOT
BRANCH   4  19
ATOM     19  O   UNL     1     -32.086  28.973   1.867  0.00  0.00    -0.382 OA
ATOM     20  H   UNL     1     -31.796  29.157   0.961  0.00  0.00    +0.210 HD
ENDBRANCH   4  19
BRANCH   8  21
ATOM     21  O   UNL     1     -34.652  29.142   0.021  0.00  0.00    -0.382 OA
ATOM     22  H   UNL     1     -34.226  29.993   0.207  0.00  0.00    +0.210 HD
ENDBRANCH   8  21
BRANCH  18  23
ATOM     23  O   UNL     1     -35.404  20.656   5.453  0.00  0.00    -0.506 OA
ATOM     24  H   UNL     1     -36.194  20.157   5.522  0.00  0.00    +0.292 HD
ENDBRANCH  18  23
BRANCH  13  25
ATOM     25  N   UNL     1     -37.257  23.233   1.500  0.00  0.00    -0.080 NA
BRANCH  25  26
ATOM     26  O   UNL     1     -38.571  23.593   1.179  0.00  0.00    -0.254 OA
BRANCH  26  27
ATOM     27  C   UNL     1     -39.434  22.985   2.128  0.00  0.00    +0.277 C 
BRANCH  27  29
ATOM     28  O   UNL     1     -40.563  21.070   1.146  0.00  0.00    -0.247 OA
ATOM     29  C   UNL     1     -39.629  21.535   1.782  0.00  0.00    +0.347 C 
BRANCH  29  30
ATOM     30  O   UNL     1     -38.608  20.794   2.280  0.00  0.00    -0.478 OA
ATOM     31  H   UNL     1     -37.792  21.203   2.493  0.00  0.00    +0.295 HD
ENDBRANCH  29  30
ENDBRANCH  27  29
ENDBRANCH  26  27
ENDBRANCH  25  26
ENDBRANCH  13  25
TORSDOF 8
ENDMDL
MODEL 3
REMARK VINA RESULT:      -6.1      2.592      7.725
REMARK  Name = 193749
REMARK  8 active torsions:
REMARK  status: ('A' for Active; 'I' for Inactive)
REMARK    1  A    between atoms: N_1  and  C_14
REMARK    2  A    between atoms: N_1  and  O_26
REMARK    3  A    between atoms: C_5  and  O_20
REMARK    4  A    between atoms: C_9  and  O_22
REMARK    5  A    between atoms: C_19  and  O_24
REMARK    6  A    between atoms: O_26  and  C_27
REMARK    7  A    between atoms: C_27  and  C_29
REMARK    8  A    between atoms: C_29  and  O_30
REMARK                            x       y       z     vdW  Elec       q    Type
REMARK                         _______ _______ _______ _____ _____    ______ ____
ROOT
ATOM      1  C   UNL     1     -33.867  26.715   3.424  0.00  0.00    +0.027 C 
ATOM      2  C   UNL     1     -35.262  26.487   2.783  0.00  0.00    +0.005 C 
ATOM      3  C   UNL     1     -36.404  26.222   3.811  0.00  0.00    +0.006 C 
ATOM      4  C   UNL     1     -33.957  28.200   3.843  0.00  0.00    +0.137 C 
ATOM      5  C   UNL     1     -36.031  25.163   4.872  0.00  0.00    +0.022 C 
ATOM      6  C   UNL     1     -33.575  25.777   4.610  0.00  0.00    +0.003 C 
ATOM      7  C   UNL     1     -35.510  27.794   1.990  0.00  0.00    +0.032 C 
ATOM      8  C   UNL     1     -34.677  28.883   2.678  0.00  0.00    +0.137 C 
ATOM      9  C   UNL     1     -34.742  25.615   5.578  0.00  0.00    +0.004 C 
ATOM     10  C   UNL     1     -32.743  26.498   2.381  0.00  0.00    +0.002 C 
ATOM     11  C   UNL     1     -37.722  25.818   3.143  0.00  0.00    +0.025 C 
ATOM     12  C   UNL     1     -36.025  23.750   4.298  0.00  0.00    -0.025 C 
ATOM     13  C   UNL     1     -37.638  24.450   2.511  0.00  0.00    +0.125 C 
ATOM     14  C   UNL     1     -36.795  23.421   3.166  0.00  0.00    -0.005 C 
ATOM     15  C   UNL     1     -35.308  22.714   4.923  0.00  0.00    -0.001 C 
ATOM     16  C   UNL     1     -36.793  22.115   2.650  0.00  0.00    +0.033 C 
ATOM     17  C   UNL     1     -35.310  21.415   4.410  0.00  0.00    +0.036 C 
ATOM     18  C   UNL     1     -36.046  21.118   3.270  0.00  0.00    +0.133 C 
ENDROOT
BRANCH   4  19
ATOM     19  O   UNL     1     -32.689  28.802   4.048  0.00  0.00    -0.382 OA
ATOM     20  H   UNL     1     -32.024  28.347   3.509  0.00  0.00    +0.210 HD
ENDBRANCH   4  19
BRANCH   8  21
ATOM     21  O   UNL     1     -35.507  29.933   3.155  0.00  0.00    -0.382 OA
ATOM     22  H   UNL     1     -35.462  29.966   4.124  0.00  0.00    +0.210 HD
ENDBRANCH   8  21
BRANCH  18  23
ATOM     23  O   UNL     1     -36.048  19.851   2.771  0.00  0.00    -0.506 OA
ATOM     24  H   UNL     1     -35.983  19.119   3.352  0.00  0.00    +0.292 HD
ENDBRANCH  18  23
BRANCH  13  25
ATOM     25  N   UNL     1     -38.319  24.184   1.442  0.00  0.00    -0.080 NA
BRANCH  25  26
ATOM     26  O   UNL     1     -39.483  23.506   1.822  0.00  0.00    -0.254 OA
BRANCH  26  27
ATOM     27  C   UNL     1     -40.011  22.866   0.671  0.00  0.00    +0.277 C 
BRANCH  27  29
ATOM     28  O   UNL     1     -39.931  20.532  -0.006  0.00  0.00    -0.247 OA
ATOM     29  C   UNL     1     -40.016  21.376   0.875  0.00  0.00    +0.347 C 
BRANCH  29  30
ATOM     30  O   UNL     1     -40.131  21.085   2.195  0.00  0.00    -0.478 OA
ATOM     31  H   UNL     1     -40.135  21.775   2.828  0.00  0.00    +0.295 HD
ENDBRANCH  29  30
ENDBRANCH  27  29
ENDBRANCH  26  27
ENDBRANCH  25  26
ENDBRANCH  13  25
TORSDOF 8
ENDMDL
MODEL 4
REMARK VINA RESULT:      -6.1      1.875      5.136
REMARK  Name = 193749
REMARK  8 active torsions:
REMARK  status: ('A' for Active; 'I' for Inactive)
REMARK    1  A    between atoms: N_1  and  C_14
REMARK    2  A    between atoms: N_1  and  O_26
REMARK    3  A    between atoms: C_5  and  O_20
REMARK    4  A    between atoms: C_9  and  O_22
REMARK    5  A    between atoms: C_19  and  O_24
REMARK    6  A    between atoms: O_26  and  C_27
REMARK    7  A    between atoms: C_27  and  C_29
REMARK    8  A    between atoms: C_29  and  O_30
REMARK                            x       y       z     vdW  Elec       q    Type
REMARK                         _______ _______ _______ _____ _____    ______ ____
ROOT
ATOM      1  C   UNL     1     -36.798  26.410   0.908  0.00  0.00    +0.027 C 
ATOM      2  C   UNL     1     -35.878  26.894   2.061  0.00  0.00    +0.005 C 
ATOM      3  C   UNL     1     -34.436  26.302   2.020  0.00  0.00    +0.006 C 
ATOM      4  C   UNL     1     -36.355  27.332  -0.250  0.00  0.00    +0.137 C 
ATOM      5  C   UNL     1     -34.413  24.771   1.812  0.00  0.00    +0.022 C 
ATOM      6  C   UNL     1     -36.634  24.916   0.576  0.00  0.00    +0.003 C 
ATOM      7  C   UNL     1     -35.861  28.432   1.885  0.00  0.00    +0.032 C 
ATOM      8  C   UNL     1     -36.161  28.702   0.405  0.00  0.00    +0.137 C 
ATOM      9  C   UNL     1     -35.185  24.445   0.522  0.00  0.00    +0.004 C 
ATOM     10  C   UNL     1     -38.287  26.640   1.264  0.00  0.00    +0.002 C 
ATOM     11  C   UNL     1     -33.617  26.649   3.268  0.00  0.00    +0.025 C 
ATOM     12  C   UNL     1     -34.843  24.014   3.064  0.00  0.00    -0.025 C 
ATOM     13  C   UNL     1     -34.137  25.945   4.498  0.00  0.00    +0.125 C 
ATOM     14  C   UNL     1     -34.709  24.586   4.344  0.00  0.00    -0.005 C 
ATOM     15  C   UNL     1     -35.319  22.692   2.987  0.00  0.00    -0.001 C 
ATOM     16  C   UNL     1     -35.098  23.878   5.492  0.00  0.00    +0.033 C 
ATOM     17  C   UNL     1     -35.701  21.989   4.132  0.00  0.00    +0.036 C 
ATOM     18  C   UNL     1     -35.597  22.585   5.382  0.00  0.00    +0.133 C 
ENDROOT
BRANCH   4  19
ATOM     19  O   UNL     1     -37.314  27.425  -1.291  0.00  0.00    -0.382 OA
ATOM     20  H   UNL     1     -36.862  27.558  -2.138  0.00  0.00    +0.210 HD
ENDBRANCH   4  19
BRANCH   8  21
ATOM     21  O   UNL     1     -35.087  29.399  -0.212  0.00  0.00    -0.382 OA
ATOM     22  H   UNL     1     -35.404  29.828  -1.023  0.00  0.00    +0.210 HD
ENDBRANCH   8  21
BRANCH  18  23
ATOM     23  O   UNL     1     -35.970  21.897   6.497  0.00  0.00    -0.506 OA
ATOM     24  H   UNL     1     -35.829  22.270   7.346  0.00  0.00    +0.292 HD
ENDBRANCH  18  23
BRANCH  13  25
ATOM     25  N   UNL     1     -34.046  26.512   5.658  0.00  0.00    -0.080 NA
BRANCH  25  26
ATOM     26  O   UNL     1     -32.699  26.509   6.042  0.00  0.00    -0.254 OA
BRANCH  26  27
ATOM     27  C   UNL     1     -32.519  27.533   7.009  0.00  0.00    +0.277 C 
BRANCH  27  29
ATOM     28  O   UNL     1     -30.744  29.164   6.694  0.00  0.00    -0.247 OA
ATOM     29  C   UNL     1     -31.836  28.715   6.377  0.00  0.00    +0.347 C 
BRANCH  29  30
ATOM     30  O   UNL     1     -32.609  29.228   5.387  0.00  0.00    -0.478 OA
ATOM     31  H   UNL     1     -32.840  28.697   4.650  0.00  0.00    +0.295 HD
ENDBRANCH  29  30
ENDBRANCH  27  29
ENDBRANCH  26  27
ENDBRANCH  25  26
ENDBRANCH  13  25
TORSDOF 8
ENDMDL
MODEL 5
REMARK VINA RESULT:      -6.1      3.092      7.359
REMARK  Name = 193749
REMARK  8 active torsions:
REMARK  status: ('A' for Active; 'I' for Inactive)
REMARK    1  A    between atoms: N_1  and  C_14
REMARK    2  A    between atoms: N_1  and  O_26
REMARK    3  A    between atoms: C_5  and  O_20
REMARK    4  A    between atoms: C_9  and  O_22
REMARK    5  A    between atoms: C_19  and  O_24
REMARK    6  A    between atoms: O_26  and  C_27
REMARK    7  A    between atoms: C_27  and  C_29
REMARK    8  A    between atoms: C_29  and  O_30
REMARK                            x       y       z     vdW  Elec       q    Type
REMARK                         _______ _______ _______ _____ _____    ______ ____
ROOT
ATOM      1  C   UNL     1     -33.916  26.437   3.007  0.00  0.00    +0.027 C 
ATOM      2  C   UNL     1     -35.429  26.335   2.673  0.00  0.00    +0.005 C 
ATOM      3  C   UNL     1     -36.339  26.044   3.905  0.00  0.00    +0.006 C 
ATOM      4  C   UNL     1     -33.813  27.884   3.540  0.00  0.00    +0.137 C 
ATOM      5  C   UNL     1     -35.821  24.883   4.782  0.00  0.00    +0.022 C 
ATOM      6  C   UNL     1     -33.442  25.390   4.032  0.00  0.00    +0.003 C 
ATOM      7  C   UNL     1     -35.751  27.714   2.048  0.00  0.00    +0.032 C 
ATOM      8  C   UNL     1     -34.718  28.697   2.611  0.00  0.00    +0.137 C 
ATOM      9  C   UNL     1     -34.383  25.208   5.218  0.00  0.00    +0.004 C 
ATOM     10  C   UNL     1     -33.060  26.250   1.731  0.00  0.00    +0.002 C 
ATOM     11  C   UNL     1     -37.794  25.765   3.515  0.00  0.00    +0.025 C 
ATOM     12  C   UNL     1     -36.035  23.524   4.123  0.00  0.00    -0.025 C 
ATOM     13  C   UNL     1     -37.941  24.452   2.785  0.00  0.00    +0.125 C 
ATOM     14  C   UNL     1     -37.051  23.330   3.166  0.00  0.00    -0.005 C 
ATOM     15  C   UNL     1     -35.273  22.404   4.502  0.00  0.00    -0.001 C 
ATOM     16  C   UNL     1     -37.248  22.074   2.572  0.00  0.00    +0.033 C 
ATOM     17  C   UNL     1     -35.474  21.154   3.911  0.00  0.00    +0.036 C 
ATOM     18  C   UNL     1     -36.455  20.991   2.942  0.00  0.00    +0.133 C 
ENDROOT
BRANCH   4  19
ATOM     19  O   UNL     1     -32.493  28.400   3.504  0.00  0.00    -0.382 OA
ATOM     20  H   UNL     1     -31.954  27.870   2.896  0.00  0.00    +0.210 HD
ENDBRANCH   4  19
BRANCH   8  21
ATOM     21  O   UNL     1     -35.353  29.746   3.331  0.00  0.00    -0.382 OA
ATOM     22  H   UNL     1     -35.030  29.752   4.245  0.00  0.00    +0.210 HD
ENDBRANCH   8  21
BRANCH  18  23
ATOM     23  O   UNL     1     -36.650  19.772   2.368  0.00  0.00    -0.506 OA
ATOM     24  H   UNL     1     -36.363  18.996   2.808  0.00  0.00    +0.292 HD
ENDBRANCH  18  23
BRANCH  13  25
ATOM     25  N   UNL     1     -38.852  24.312   1.876  0.00  0.00    -0.080 NA
BRANCH  25  26
ATOM     26  O   UNL     1     -40.102  24.305   2.506  0.00  0.00    -0.254 OA
BRANCH  26  27
ATOM     27  C   UNL     1     -40.964  25.165   1.776  0.00  0.00    +0.277 C 
BRANCH  27  29
ATOM     28  O   UNL     1     -41.551  27.495   2.140  0.00  0.00    -0.247 OA
ATOM     29  C   UNL     1     -41.263  26.394   2.588  0.00  0.00    +0.347 C 
BRANCH  29  30
ATOM     30  O   UNL     1     -41.169  26.115   3.912  0.00  0.00    -0.478 OA
ATOM     31  H   UNL     1     -41.155  25.224   4.203  0.00  0.00    +0.295 HD
ENDBRANCH  29  30
ENDBRANCH  27  29
ENDBRANCH  26  27
ENDBRANCH  25  26
ENDBRANCH  13  25
TORSDOF 8
ENDMDL
MODEL 6
REMARK VINA RESULT:      -5.9      2.879      7.328
REMARK  Name = 193749
REMARK  8 active torsions:
REMARK  status: ('A' for Active; 'I' for Inactive)
REMARK    1  A    between atoms: N_1  and  C_14
REMARK    2  A    between atoms: N_1  and  O_26
REMARK    3  A    between atoms: C_5  and  O_20
REMARK    4  A    between atoms: C_9  and  O_22
REMARK    5  A    between atoms: C_19  and  O_24
REMARK    6  A    between atoms: O_26  and  C_27
REMARK    7  A    between atoms: C_27  and  C_29
REMARK    8  A    between atoms: C_29  and  O_30
REMARK                            x       y       z     vdW  Elec       q    Type
REMARK                         _______ _______ _______ _____ _____    ______ ____
ROOT
ATOM      1  C   UNL     1     -33.266  26.541   2.267  0.00  0.00    +0.027 C 
ATOM      2  C   UNL     1     -34.154  25.527   1.495  0.00  0.00    +0.005 C 
ATOM      3  C   UNL     1     -35.670  25.602   1.851  0.00  0.00    +0.006 C 
ATOM      4  C   UNL     1     -33.488  27.832   1.448  0.00  0.00    +0.137 C 
ATOM      5  C   UNL     1     -35.936  25.622   3.372  0.00  0.00    +0.022 C 
ATOM      6  C   UNL     1     -33.660  26.699   3.747  0.00  0.00    +0.003 C 
ATOM      7  C   UNL     1     -33.904  25.890   0.011  0.00  0.00    +0.032 C 
ATOM      8  C   UNL     1     -33.485  27.365  -0.010  0.00  0.00    +0.137 C 
ATOM      9  C   UNL     1     -35.162  26.802   3.985  0.00  0.00    +0.004 C 
ATOM     10  C   UNL     1     -31.781  26.106   2.232  0.00  0.00    +0.002 C 
ATOM     11  C   UNL     1     -36.485  24.470   1.216  0.00  0.00    +0.025 C 
ATOM     12  C   UNL     1     -35.706  24.259   4.016  0.00  0.00    -0.025 C 
ATOM     13  C   UNL     1     -36.155  23.128   1.824  0.00  0.00    +0.125 C 
ATOM     14  C   UNL     1     -35.810  23.072   3.265  0.00  0.00    -0.005 C 
ATOM     15  C   UNL     1     -35.454  24.139   5.394  0.00  0.00    -0.001 C 
ATOM     16  C   UNL     1     -35.607  21.820   3.867  0.00  0.00    +0.033 C 
ATOM     17  C   UNL     1     -35.256  22.892   5.992  0.00  0.00    +0.036 C 
ATOM     18  C   UNL     1     -35.325  21.734   5.227  0.00  0.00    +0.133 C 
ENDROOT
BRANCH   4  19
ATOM     19  O   UNL     1     -32.472  28.802   1.647  0.00  0.00    -0.382 OA
ATOM     20  H   UNL     1     -31.777  28.684   0.982  0.00  0.00    +0.210 HD
ENDBRANCH   4  19
BRANCH   8  21
ATOM     21  O   UNL     1     -34.393  28.141  -0.781  0.00  0.00    -0.382 OA
ATOM     22  H   UNL     1     -34.971  27.552  -1.289  0.00  0.00    +0.210 HD
ENDBRANCH   8  21
BRANCH  18  23
ATOM     23  O   UNL     1     -35.133  20.519   5.810  0.00  0.00    -0.506 OA
ATOM     24  H   UNL     1     -34.269  20.160   5.870  0.00  0.00    +0.292 HD
ENDBRANCH  18  23
BRANCH  13  25
ATOM     25  N   UNL     1     -36.212  22.056   1.102  0.00  0.00    -0.080 NA
BRANCH  25  26
ATOM     26  O   UNL     1     -35.007  21.936   0.400  0.00  0.00    -0.254 OA
BRANCH  26  27
ATOM     27  C   UNL     1     -34.927  20.614  -0.110  0.00  0.00    +0.277 C 
BRANCH  27  29
ATOM     28  O   UNL     1     -33.964  19.408   1.768  0.00  0.00    -0.247 OA
ATOM     29  C   UNL     1     -34.911  19.631   1.028  0.00  0.00    +0.347 C 
BRANCH  29  30
ATOM     30  O   UNL     1     -36.113  19.011   1.129  0.00  0.00    -0.478 OA
ATOM     31  H   UNL     1     -36.855  19.477   1.462  0.00  0.00    +0.295 HD
ENDBRANCH  29  30
ENDBRANCH  27  29
ENDBRANCH  26  27
ENDBRANCH  25  26
ENDBRANCH  13  25
TORSDOF 8
ENDMDL
MODEL 7
REMARK VINA RESULT:      -5.9      4.424      8.573
REMARK  Name = 193749
REMARK  8 active torsions:
REMARK  status: ('A' for Active; 'I' for Inactive)
REMARK    1  A    between atoms: N_1  and  C_14
REMARK    2  A    between atoms: N_1  and  O_26
REMARK    3  A    between atoms: C_5  and  O_20
REMARK    4  A    between atoms: C_9  and  O_22
REMARK    5  A    between atoms: C_19  and  O_24
REMARK    6  A    between atoms: O_26  and  C_27
REMARK    7  A    between atoms: C_27  and  C_29
REMARK    8  A    between atoms: C_29  and  O_30
REMARK                            x       y       z     vdW  Elec       q    Type
REMARK                         _______ _______ _______ _____ _____    ______ ____
ROOT
ATOM      1  C   UNL     1     -36.132  24.781   2.107  0.00  0.00    +0.027 C 
ATOM      2  C   UNL     1     -37.371  23.938   1.699  0.00  0.00    +0.005 C 
ATOM      3  C   UNL     1     -37.793  22.870   2.754  0.00  0.00    +0.006 C 
ATOM      4  C   UNL     1     -36.768  25.829   3.048  0.00  0.00    +0.137 C 
ATOM      5  C   UNL     1     -36.609  22.020   3.265  0.00  0.00    +0.022 C 
ATOM      6  C   UNL     1     -35.027  23.957   2.792  0.00  0.00    +0.003 C 
ATOM      7  C   UNL     1     -38.478  25.001   1.499  0.00  0.00    +0.032 C 
ATOM      8  C   UNL     1     -38.088  26.202   2.368  0.00  0.00    +0.137 C 
ATOM      9  C   UNL     1     -35.541  22.970   3.834  0.00  0.00    +0.004 C 
ATOM     10  C   UNL     1     -35.498  25.457   0.867  0.00  0.00    +0.002 C 
ATOM     11  C   UNL     1     -38.894  21.935   2.243  0.00  0.00    +0.025 C 
ATOM     12  C   UNL     1     -36.131  21.013   2.226  0.00  0.00    -0.025 C 
ATOM     13  C   UNL     1     -38.396  21.019   1.151  0.00  0.00    +0.125 C 
ATOM     14  C   UNL     1     -36.993  20.543   1.216  0.00  0.00    -0.005 C 
ATOM     15  C   UNL     1     -34.836  20.465   2.284  0.00  0.00    -0.001 C 
ATOM     16  C   UNL     1     -36.549  19.607   0.269  0.00  0.00    +0.033 C 
ATOM     17  C   UNL     1     -34.398  19.532   1.343  0.00  0.00    +0.036 C 
ATOM     18  C   UNL     1     -35.251  19.109   0.331  0.00  0.00    +0.133 C 
ENDROOT
BRANCH   4  19
ATOM     19  O   UNL     1     -35.966  26.988   3.218  0.00  0.00    -0.382 OA
ATOM     20  H   UNL     1     -35.381  26.866   3.981  0.00  0.00    +0.210 HD
ENDBRANCH   4  19
BRANCH   8  21
ATOM     21  O   UNL     1     -39.087  26.473   3.341  0.00  0.00    -0.382 OA
ATOM     22  H   UNL     1     -39.060  25.792   4.031  0.00  0.00    +0.210 HD
ENDBRANCH   8  21
BRANCH  18  23
ATOM     23  O   UNL     1     -34.822  18.198  -0.585  0.00  0.00    -0.506 OA
ATOM     24  H   UNL     1     -34.111  17.624  -0.378  0.00  0.00    +0.292 HD
ENDBRANCH  18  23
BRANCH  13  25
ATOM     25  N   UNL     1     -39.195  20.638   0.206  0.00  0.00    -0.080 NA
BRANCH  25  26
ATOM     26  O   UNL     1     -40.511  20.817   0.648  0.00  0.00    -0.254 OA
BRANCH  26  27
ATOM     27  C   UNL     1     -41.278  21.292  -0.448  0.00  0.00    +0.277 C 
BRANCH  27  29
ATOM     28  O   UNL     1     -42.111  23.510   0.096  0.00  0.00    -0.247 OA
ATOM     29  C   UNL     1     -41.284  22.796  -0.451  0.00  0.00    +0.347 C 
BRANCH  29  30
ATOM     30  O   UNL     1     -40.226  23.267  -1.157  0.00  0.00    -0.478 OA
ATOM     31  H   UNL     1     -39.357  23.174  -0.817  0.00  0.00    +0.295 HD
ENDBRANCH  29  30
ENDBRANCH  27  29
ENDBRANCH  26  27
ENDBRANCH  25  26
ENDBRANCH  13  25
TORSDOF 8
ENDMDL
MODEL 8
REMARK VINA RESULT:      -5.8      3.501      6.330
REMARK  Name = 193749
REMARK  8 active torsions:
REMARK  status: ('A' for Active; 'I' for Inactive)
REMARK    1  A    between atoms: N_1  and  C_14
REMARK    2  A    between atoms: N_1  and  O_26
REMARK    3  A    between atoms: C_5  and  O_20
REMARK    4  A    between atoms: C_9  and  O_22
REMARK    5  A    between atoms: C_19  and  O_24
REMARK    6  A    between atoms: O_26  and  C_27
REMARK    7  A    between atoms: C_27  and  C_29
REMARK    8  A    between atoms: C_29  and  O_30
REMARK                            x       y       z     vdW  Elec       q    Type
REMARK                         _______ _______ _______ _____ _____    ______ ____
ROOT
ATOM      1  C   UNL     1     -35.390  23.823   3.646  0.00  0.00    +0.027 C 
ATOM      2  C   UNL     1     -34.779  24.165   2.260  0.00  0.00    +0.005 C 
ATOM      3  C   UNL     1     -35.557  23.563   1.051  0.00  0.00    +0.006 C 
ATOM      4  C   UNL     1     -36.532  24.860   3.745  0.00  0.00    +0.137 C 
ATOM      5  C   UNL     1     -35.886  22.064   1.227  0.00  0.00    +0.022 C 
ATOM      6  C   UNL     1     -35.893  22.372   3.754  0.00  0.00    +0.003 C 
ATOM      7  C   UNL     1     -34.803  25.713   2.231  0.00  0.00    +0.032 C 
ATOM      8  C   UNL     1     -35.928  26.147   3.177  0.00  0.00    +0.137 C 
ATOM      9  C   UNL     1     -36.674  21.891   2.536  0.00  0.00    +0.004 C 
ATOM     10  C   UNL     1     -34.348  24.032   4.771  0.00  0.00    +0.002 C 
ATOM     11  C   UNL     1     -34.826  23.760  -0.282  0.00  0.00    +0.025 C 
ATOM     12  C   UNL     1     -34.655  21.179   1.060  0.00  0.00    -0.025 C 
ATOM     13  C   UNL     1     -33.565  22.933  -0.362  0.00  0.00    +0.125 C 
ATOM     14  C   UNL     1     -33.548  21.607   0.300  0.00  0.00    -0.005 C 
ATOM     15  C   UNL     1     -34.613  19.881   1.599  0.00  0.00    -0.001 C 
ATOM     16  C   UNL     1     -32.423  20.783   0.142  0.00  0.00    +0.033 C 
ATOM     17  C   UNL     1     -33.493  19.061   1.437  0.00  0.00    +0.036 C 
ATOM     18  C   UNL     1     -32.397  19.516   0.716  0.00  0.00    +0.133 C 
ENDROOT
BRANCH   4  19
ATOM     19  O   UNL     1     -36.974  25.079   5.075  0.00  0.00    -0.382 OA
ATOM     20  H   UNL     1     -36.578  25.895   5.418  0.00  0.00    +0.210 HD
ENDBRANCH   4  19
BRANCH   8  21
ATOM     21  O   UNL     1     -36.918  26.894   2.482  0.00  0.00    -0.382 OA
ATOM     22  H   UNL     1     -37.705  26.343   2.350  0.00  0.00    +0.210 HD
ENDBRANCH   8  21
BRANCH  18  23
ATOM     23  O   UNL     1     -31.306  18.716   0.559  0.00  0.00    -0.506 OA
ATOM     24  H   UNL     1     -30.524  19.060   0.174  0.00  0.00    +0.292 HD
ENDBRANCH  18  23
BRANCH  13  25
ATOM     25  N   UNL     1     -32.544  23.368  -1.028  0.00  0.00    -0.080 NA
BRANCH  25  26
ATOM     26  O   UNL     1     -31.701  24.048  -0.141  0.00  0.00    -0.254 OA
BRANCH  26  27
ATOM     27  C   UNL     1     -31.497  25.358  -0.649  0.00  0.00    +0.277 C 
BRANCH  27  29
ATOM     28  O   UNL     1     -32.099  27.491   0.348  0.00  0.00    -0.247 OA
ATOM     29  C   UNL     1     -31.643  26.363   0.460  0.00  0.00    +0.347 C 
BRANCH  29  30
ATOM     30  O   UNL     1     -31.193  25.839   1.628  0.00  0.00    -0.478 OA
ATOM     31  H   UNL     1     -31.557  25.040   1.954  0.00  0.00    +0.295 HD
ENDBRANCH  29  30
ENDBRANCH  27  29
ENDBRANCH  26  27
ENDBRANCH  25  26
ENDBRANCH  13  25
TORSDOF 8
ENDMDL
MODEL 9
REMARK VINA RESULT:      -5.7      2.334      5.156
REMARK  Name = 193749
REMARK  8 active torsions:
REMARK  status: ('A' for Active; 'I' for Inactive)
REMARK    1  A    between atoms: N_1  and  C_14
REMARK    2  A    between atoms: N_1  and  O_26
REMARK    3  A    between atoms: C_5  and  O_20
REMARK    4  A    between atoms: C_9  and  O_22
REMARK    5  A    between atoms: C_19  and  O_24
REMARK    6  A    between atoms: O_26  and  C_27
REMARK    7  A    between atoms: C_27  and  C_29
REMARK    8  A    between atoms: C_29  and  O_30
REMARK                            x       y       z     vdW  Elec       q    Type
REMARK                         _______ _______ _______ _____ _____    ______ ____
ROOT
ATOM      1  C   UNL     1     -34.411  25.206   0.390  0.00  0.00    +0.027 C 
ATOM      2  C   UNL     1     -35.317  24.937   1.622  0.00  0.00    +0.005 C 
ATOM      3  C   UNL     1     -36.117  26.182   2.112  0.00  0.00    +0.006 C 
ATOM      4  C   UNL     1     -35.429  25.121  -0.768  0.00  0.00    +0.137 C 
ATOM      5  C   UNL     1     -35.244  27.448   2.254  0.00  0.00    +0.022 C 
ATOM      6  C   UNL     1     -33.684  26.563   0.447  0.00  0.00    +0.003 C 
ATOM      7  C   UNL     1     -36.264  23.815   1.131  0.00  0.00    +0.032 C 
ATOM      8  C   UNL     1     -36.334  23.944  -0.396  0.00  0.00    +0.137 C 
ATOM      9  C   UNL     1     -34.564  27.722   0.901  0.00  0.00    +0.004 C 
ATOM     10  C   UNL     1     -33.325  24.110   0.260  0.00  0.00    +0.002 C 
ATOM     11  C   UNL     1     -36.852  25.932   3.433  0.00  0.00    +0.025 C 
ATOM     12  C   UNL     1     -34.325  27.382   3.468  0.00  0.00    -0.025 C 
ATOM     13  C   UNL     1     -35.895  25.782   4.592  0.00  0.00    +0.125 C 
ATOM     14  C   UNL     1     -34.645  26.579   4.581  0.00  0.00    -0.005 C 
ATOM     15  C   UNL     1     -33.166  28.175   3.549  0.00  0.00    -0.001 C 
ATOM     16  C   UNL     1     -33.799  26.531   5.700  0.00  0.00    +0.033 C 
ATOM     17  C   UNL     1     -32.328  28.129   4.665  0.00  0.00    +0.036 C 
ATOM     18  C   UNL     1     -32.641  27.301   5.736  0.00  0.00    +0.133 C 
ENDROOT
BRANCH   4  19
ATOM     19  O   UNL     1     -34.824  24.886  -2.030  0.00  0.00    -0.382 OA
ATOM     20  H   UNL     1     -34.739  25.724  -2.509  0.00  0.00    +0.210 HD
ENDBRANCH   4  19
BRANCH   8  21
ATOM     21  O   UNL     1     -37.667  24.188  -0.825  0.00  0.00    -0.382 OA
ATOM     22  H   UNL     1     -37.656  24.787  -1.588  0.00  0.00    +0.210 HD
ENDBRANCH   8  21
BRANCH  18  23
ATOM     23  O   UNL     1     -31.823  27.258   6.824  0.00  0.00    -0.506 OA
ATOM     24  H   UNL     1     -32.180  27.372   7.683  0.00  0.00    +0.292 HD
ENDBRANCH  18  23
BRANCH  13  25
ATOM     25  N   UNL     1     -36.189  25.001   5.582  0.00  0.00    -0.080 NA
BRANCH  25  26
ATOM     26  O   UNL     1     -36.406  23.715   5.074  0.00  0.00    -0.254 OA
BRANCH  26  27
ATOM     27  C   UNL     1     -35.594  22.812   5.812  0.00  0.00    +0.277 C 
BRANCH  27  29
ATOM     28  O   UNL     1     -35.354  21.500   3.780  0.00  0.00    -0.247 OA
ATOM     29  C   UNL     1     -35.347  21.571   5.000  0.00  0.00    +0.347 C 
BRANCH  29  30
ATOM     30  O   UNL     1     -35.110  20.516   5.819  0.00  0.00    -0.478 OA
ATOM     31  H   UNL     1     -35.201  19.641   5.495  0.00  0.00    +0.295 HD
ENDBRANCH  29  30
ENDBRANCH  27  29
ENDBRANCH  26  27
ENDBRANCH  25  26
ENDBRANCH  13  25
TORSDOF 8
ENDMDL
