MODEL 1
REMARK VINA RESULT:      -6.5      0.000      0.000
REMARK  Name = 6074876
REMARK  9 active torsions:
REMARK  status: ('A' for Active; 'I' for Inactive)
REMARK    1  A    between atoms: N_2  and  C_7
REMARK    2  A    between atoms: N_2  and  O_17
REMARK    3  A    between atoms: C_3  and  O_13
REMARK    4  A    between atoms: C_4  and  O_15
REMARK    5  A    between atoms: C_5  and  N_9
REMARK    6  A    between atoms: C_6  and  C_28
REMARK    7  A    between atoms: O_17  and  C_20
REMARK    8  A    between atoms: N_19  and  C_22
REMARK    9  A    between atoms: C_28  and  O_29
REMARK                            x       y       z     vdW  Elec       q    Type
REMARK                         _______ _______ _______ _____ _____    ______ ____
ROOT
ATOM      1  O   UNL     1     -36.665  23.667   4.284  0.00  0.00    -0.333 OA
ATOM      2  C   UNL     1     -34.429  25.433   4.249  0.00  0.00    +0.161 C 
ATOM      3  C   UNL     1     -35.395  25.472   5.428  0.00  0.00    +0.169 C 
ATOM      4  C   UNL     1     -35.133  25.062   2.952  0.00  0.00    +0.149 C 
ATOM      5  C   UNL     1     -36.137  24.142   5.550  0.00  0.00    +0.175 C 
ATOM      6  C   UNL     1     -36.067  23.897   3.103  0.00  0.00    +0.251 C 
ENDROOT
BRANCH   4   8
ATOM      7  O   UNL     1     -34.339  27.130   1.074  0.00  0.00    -0.275 OA
ATOM      8  N   UNL     1     -35.952  26.119   2.414  0.00  0.00    -0.300 N 
ATOM      9  C   UNL     1     -35.483  27.067   1.518  0.00  0.00    +0.223 C 
ATOM     10  C   UNL     1     -36.552  28.040   1.099  0.00  0.00    +0.095 C 
ATOM     11  H   UNL     1     -36.893  26.171   2.698  0.00  0.00    +0.150 HD
ENDBRANCH   4   8
BRANCH   2  12
ATOM     12  O   UNL     1     -33.758  26.680   4.102  0.00  0.00    -0.380 OA
ATOM     13  H   UNL     1     -32.832  26.583   4.372  0.00  0.00    +0.211 HD
ENDBRANCH   2  12
BRANCH   3  14
ATOM     14  O   UNL     1     -36.347  26.518   5.231  0.00  0.00    -0.379 OA
ATOM     15  H   UNL     1     -35.946  27.228   4.707  0.00  0.00    +0.211 HD
ENDBRANCH   3  14
BRANCH   6  16
ATOM     16  N   UNL     1     -36.363  23.148   2.092  0.00  0.00    +0.008 NA
BRANCH  16  17
ATOM     17  O   UNL     1     -36.717  21.881   2.572  0.00  0.00    -0.330 OA
BRANCH  17  20
ATOM     18  O   UNL     1     -35.192  20.605   3.716  0.00  0.00    -0.224 OA
ATOM     19  N   UNL     1     -35.004  21.022   1.421  0.00  0.00    -0.249 N 
ATOM     20  C   UNL     1     -35.587  21.112   2.672  0.00  0.00    +0.425 C 
ATOM     21  H   UNL     1     -35.468  21.500   0.695  0.00  0.00    +0.158 HD
BRANCH  19  22
ATOM     22  C   UNL     1     -33.827  20.331   1.055  0.00  0.00    +0.053 C 
ATOM     23  C   UNL     1     -33.636  19.033   1.504  0.00  0.00    +0.015 C 
ATOM     24  C   UNL     1     -32.888  20.962   0.255  0.00  0.00    +0.015 C 
ATOM     25  C   UNL     1     -32.475  18.349   1.143  0.00  0.00    +0.001 C 
ATOM     26  C   UNL     1     -31.728  20.278  -0.106  0.00  0.00    +0.001 C 
ATOM     27  C   UNL     1     -31.521  18.971   0.339  0.00  0.00    +0.000 C 
ENDBRANCH  19  22
ENDBRANCH  17  20
ENDBRANCH  16  17
ENDBRANCH   6  16
BRANCH   5  28
ATOM     28  C   UNL     1     -35.270  23.031   6.134  0.00  0.00    +0.169 C 
BRANCH  28  29
ATOM     29  O   UNL     1     -36.047  21.851   6.221  0.00  0.00    -0.379 OA
ATOM     30  H   UNL     1     -36.727  21.960   6.902  0.00  0.00    +0.211 HD
ENDBRANCH  28  29
ENDBRANCH   5  28
TORSDOF 9
ENDMDL
MODEL 2
REMARK VINA RESULT:      -6.4      1.944      2.363
REMARK  Name = 6074876
REMARK  9 active torsions:
REMARK  status: ('A' for Active; 'I' for Inactive)
REMARK    1  A    between atoms: N_2  and  C_7
REMARK    2  A    between atoms: N_2  and  O_17
REMARK    3  A    between atoms: C_3  and  O_13
REMARK    4  A    between atoms: C_4  and  O_15
REMARK    5  A    between atoms: C_5  and  N_9
REMARK    6  A    between atoms: C_6  and  C_28
REMARK    7  A    between atoms: O_17  and  C_20
REMARK    8  A    between atoms: N_19  and  C_22
REMARK    9  A    between atoms: C_28  and  O_29
REMARK                            x       y       z     vdW  Elec       q    Type
REMARK                         _______ _______ _______ _____ _____    ______ ____
ROOT
ATOM      1  O   UNL     1     -36.158  23.706   4.835  0.00  0.00    -0.333 OA
ATOM      2  C   UNL     1     -36.153  26.019   3.171  0.00  0.00    +0.161 C 
ATOM      3  C   UNL     1     -35.737  26.148   4.633  0.00  0.00    +0.169 C 
ATOM      4  C   UNL     1     -37.204  24.936   2.974  0.00  0.00    +0.149 C 
ATOM      5  C   UNL     1     -35.262  24.798   5.169  0.00  0.00    +0.175 C 
ATOM      6  C   UNL     1     -36.879  23.664   3.702  0.00  0.00    +0.251 C 
ENDROOT
BRANCH   4   8
ATOM      7  O   UNL     1     -39.368  26.129   1.450  0.00  0.00    -0.275 OA
ATOM      8  N   UNL     1     -38.513  25.305   3.452  0.00  0.00    -0.300 N 
ATOM      9  C   UNL     1     -39.487  25.873   2.645  0.00  0.00    +0.223 C 
ATOM     10  C   UNL     1     -40.768  26.135   3.390  0.00  0.00    +0.095 C 
ATOM     11  H   UNL     1     -38.727  25.145   4.400  0.00  0.00    +0.150 HD
ENDBRANCH   4   8
BRANCH   2  12
ATOM     12  O   UNL     1     -36.634  27.263   2.671  0.00  0.00    -0.380 OA
ATOM     13  H   UNL     1     -36.498  27.954   3.337  0.00  0.00    +0.211 HD
ENDBRANCH   2  12
BRANCH   3  14
ATOM     14  O   UNL     1     -36.851  26.589   5.410  0.00  0.00    -0.379 OA
ATOM     15  H   UNL     1     -36.536  27.139   6.144  0.00  0.00    +0.211 HD
ENDBRANCH   3  14
BRANCH   6  16
ATOM     16  N   UNL     1     -37.343  22.528   3.294  0.00  0.00    +0.008 NA
BRANCH  16  17
ATOM     17  O   UNL     1     -36.719  22.209   2.081  0.00  0.00    -0.330 OA
BRANCH  17  20
ATOM     18  O   UNL     1     -35.517  20.770   3.401  0.00  0.00    -0.224 OA
ATOM     19  N   UNL     1     -34.954  21.186   1.168  0.00  0.00    -0.249 N 
ATOM     20  C   UNL     1     -35.701  21.325   2.324  0.00  0.00    +0.425 C 
ATOM     21  H   UNL     1     -35.256  21.716   0.395  0.00  0.00    +0.158 HD
BRANCH  19  22
ATOM     22  C   UNL     1     -33.814  20.378   0.960  0.00  0.00    +0.053 C 
ATOM     23  C   UNL     1     -33.773  19.107   1.510  0.00  0.00    +0.015 C 
ATOM     24  C   UNL     1     -32.759  20.871   0.208  0.00  0.00    +0.015 C 
ATOM     25  C   UNL     1     -32.648  18.308   1.304  0.00  0.00    +0.001 C 
ATOM     26  C   UNL     1     -31.634  20.073   0.002  0.00  0.00    +0.001 C 
ATOM     27  C   UNL     1     -31.579  18.791   0.551  0.00  0.00    +0.000 C 
ENDBRANCH  19  22
ENDBRANCH  17  20
ENDBRANCH  16  17
ENDBRANCH   6  16
BRANCH   5  28
ATOM     28  C   UNL     1     -33.869  24.421   4.673  0.00  0.00    +0.169 C 
BRANCH  28  29
ATOM     29  O   UNL     1     -33.109  25.606   4.520  0.00  0.00    -0.379 OA
ATOM     30  H   UNL     1     -33.171  26.137   5.328  0.00  0.00    +0.211 HD
ENDBRANCH  28  29
ENDBRANCH   5  28
TORSDOF 9
ENDMDL
MODEL 3
REMARK VINA RESULT:      -6.4      3.293      7.166
REMARK  Name = 6074876
REMARK  9 active torsions:
REMARK  status: ('A' for Active; 'I' for Inactive)
REMARK    1  A    between atoms: N_2  and  C_7
REMARK    2  A    between atoms: N_2  and  O_17
REMARK    3  A    between atoms: C_3  and  O_13
REMARK    4  A    between atoms: C_4  and  O_15
REMARK    5  A    between atoms: C_5  and  N_9
REMARK    6  A    between atoms: C_6  and  C_28
REMARK    7  A    between atoms: O_17  and  C_20
REMARK    8  A    between atoms: N_19  and  C_22
REMARK    9  A    between atoms: C_28  and  O_29
REMARK                            x       y       z     vdW  Elec       q    Type
REMARK                         _______ _______ _______ _____ _____    ______ ____
ROOT
ATOM      1  O   UNL     1     -36.207  26.175   2.871  0.00  0.00    -0.333 OA
ATOM      2  C   UNL     1     -37.315  23.593   2.397  0.00  0.00    +0.161 C 
ATOM      3  C   UNL     1     -38.231  24.732   2.830  0.00  0.00    +0.169 C 
ATOM      4  C   UNL     1     -35.919  23.731   2.990  0.00  0.00    +0.149 C 
ATOM      5  C   UNL     1     -37.602  26.080   2.480  0.00  0.00    +0.175 C 
ATOM      6  C   UNL     1     -35.370  25.123   2.878  0.00  0.00    +0.251 C 
ENDROOT
BRANCH   4   8
ATOM      7  O   UNL     1     -35.296  21.172   4.213  0.00  0.00    -0.275 OA
ATOM      8  N   UNL     1     -35.855  23.425   4.397  0.00  0.00    -0.300 N 
ATOM      9  C   UNL     1     -35.547  22.166   4.889  0.00  0.00    +0.223 C 
ATOM     10  C   UNL     1     -35.523  22.128   6.394  0.00  0.00    +0.095 C 
ATOM     11  H   UNL     1     -36.037  24.146   5.041  0.00  0.00    +0.150 HD
ENDBRANCH   4   8
BRANCH   2  12
ATOM     12  O   UNL     1     -37.873  22.332   2.751  0.00  0.00    -0.380 OA
ATOM     13  H   UNL     1     -37.163  21.677   2.838  0.00  0.00    +0.211 HD
ENDBRANCH   2  12
BRANCH   3  14
ATOM     14  O   UNL     1     -38.438  24.670   4.242  0.00  0.00    -0.379 OA
ATOM     15  H   UNL     1     -38.797  25.514   4.555  0.00  0.00    +0.211 HD
ENDBRANCH   3  14
BRANCH   6  16
ATOM     16  N   UNL     1     -34.095  25.334   2.861  0.00  0.00    +0.008 NA
BRANCH  16  17
ATOM     17  O   UNL     1     -33.591  25.089   4.145  0.00  0.00    -0.330 OA
BRANCH  17  20
ATOM     18  O   UNL     1     -34.418  26.452   5.794  0.00  0.00    -0.224 OA
ATOM     19  N   UNL     1     -32.675  27.114   4.380  0.00  0.00    -0.249 N 
ATOM     20  C   UNL     1     -33.637  26.251   4.870  0.00  0.00    +0.425 C 
ATOM     21  H   UNL     1     -32.137  26.776   3.628  0.00  0.00    +0.158 HD
BRANCH  19  22
ATOM     22  C   UNL     1     -32.367  28.419   4.826  0.00  0.00    +0.053 C 
ATOM     23  C   UNL     1     -31.836  28.595   6.094  0.00  0.00    +0.015 C 
ATOM     24  C   UNL     1     -32.599  29.497   3.986  0.00  0.00    +0.015 C 
ATOM     25  C   UNL     1     -31.531  29.883   6.534  0.00  0.00    +0.001 C 
ATOM     26  C   UNL     1     -32.294  30.784   4.427  0.00  0.00    +0.001 C 
ATOM     27  C   UNL     1     -31.760  30.978   5.701  0.00  0.00    +0.000 C 
ENDBRANCH  19  22
ENDBRANCH  17  20
ENDBRANCH  16  17
ENDBRANCH   6  16
BRANCH   5  28
ATOM     28  C   UNL     1     -37.688  26.406   0.992  0.00  0.00    +0.169 C 
BRANCH  28  29
ATOM     29  O   UNL     1     -38.209  27.715   0.847  0.00  0.00    -0.379 OA
ATOM     30  H   UNL     1     -38.704  27.776   0.017  0.00  0.00    +0.211 HD
ENDBRANCH  28  29
ENDBRANCH   5  28
TORSDOF 9
ENDMDL
MODEL 4
REMARK VINA RESULT:      -6.3      2.339      3.942
REMARK  Name = 6074876
REMARK  9 active torsions:
REMARK  status: ('A' for Active; 'I' for Inactive)
REMARK    1  A    between atoms: N_2  and  C_7
REMARK    2  A    between atoms: N_2  and  O_17
REMARK    3  A    between atoms: C_3  and  O_13
REMARK    4  A    between atoms: C_4  and  O_15
REMARK    5  A    between atoms: C_5  and  N_9
REMARK    6  A    between atoms: C_6  and  C_28
REMARK    7  A    between atoms: O_17  and  C_20
REMARK    8  A    between atoms: N_19  and  C_22
REMARK    9  A    between atoms: C_28  and  O_29
REMARK                            x       y       z     vdW  Elec       q    Type
REMARK                         _______ _______ _______ _____ _____    ______ ____
ROOT
ATOM      1  O   UNL     1     -37.559  24.551   0.633  0.00  0.00    -0.333 OA
ATOM      2  C   UNL     1     -39.298  24.539   2.890  0.00  0.00    +0.161 C 
ATOM      3  C   UNL     1     -39.337  25.716   1.921  0.00  0.00    +0.169 C 
ATOM      4  C   UNL     1     -37.904  23.936   2.994  0.00  0.00    +0.149 C 
ATOM      5  C   UNL     1     -38.803  25.294   0.553  0.00  0.00    +0.175 C 
ATOM      6  C   UNL     1     -37.250  23.738   1.658  0.00  0.00    +0.251 C 
ENDROOT
BRANCH   4   8
ATOM      7  O   UNL     1     -36.313  23.148   5.291  0.00  0.00    -0.275 OA
ATOM      8  N   UNL     1     -36.975  24.750   3.737  0.00  0.00    -0.300 N 
ATOM      9  C   UNL     1     -36.256  24.284   4.827  0.00  0.00    +0.223 C 
ATOM     10  C   UNL     1     -35.341  25.331   5.402  0.00  0.00    +0.095 C 
ATOM     11  H   UNL     1     -36.843  25.684   3.457  0.00  0.00    +0.150 HD
ENDBRANCH   4   8
BRANCH   2  12
ATOM     12  O   UNL     1     -39.759  24.929   4.180  0.00  0.00    -0.380 OA
ATOM     13  H   UNL     1     -40.169  24.169   4.620  0.00  0.00    +0.211 HD
ENDBRANCH   2  12
BRANCH   3  14
ATOM     14  O   UNL     1     -38.529  26.779   2.427  0.00  0.00    -0.379 OA
ATOM     15  H   UNL     1     -37.614  26.660   2.130  0.00  0.00    +0.211 HD
ENDBRANCH   3  14
BRANCH   6  16
ATOM     16  N   UNL     1     -36.336  22.838   1.493  0.00  0.00    +0.008 NA
BRANCH  16  17
ATOM     17  O   UNL     1     -36.659  21.732   2.290  0.00  0.00    -0.330 OA
BRANCH  17  20
ATOM     18  O   UNL     1     -35.182  20.542   3.578  0.00  0.00    -0.224 OA
ATOM     19  N   UNL     1     -34.887  20.825   1.274  0.00  0.00    -0.249 N 
ATOM     20  C   UNL     1     -35.530  20.982   2.488  0.00  0.00    +0.425 C 
ATOM     21  H   UNL     1     -35.319  21.254   0.500  0.00  0.00    +0.158 HD
BRANCH  19  22
ATOM     22  C   UNL     1     -33.689  20.125   1.007  0.00  0.00    +0.053 C 
ATOM     23  C   UNL     1     -33.521  18.848   1.519  0.00  0.00    +0.015 C 
ATOM     24  C   UNL     1     -32.707  20.727   0.236  0.00  0.00    +0.015 C 
ATOM     25  C   UNL     1     -32.339  18.156   1.254  0.00  0.00    +0.001 C 
ATOM     26  C   UNL     1     -31.525  20.035  -0.028  0.00  0.00    +0.001 C 
ATOM     27  C   UNL     1     -31.341  18.750   0.482  0.00  0.00    +0.000 C 
ENDBRANCH  19  22
ENDBRANCH  17  20
ENDBRANCH  16  17
ENDBRANCH   6  16
BRANCH   5  28
ATOM     28  C   UNL     1     -39.797  24.447  -0.236  0.00  0.00    +0.169 C 
BRANCH  28  29
ATOM     29  O   UNL     1     -39.092  23.747  -1.244  0.00  0.00    -0.379 OA
ATOM     30  H   UNL     1     -38.315  23.316  -0.856  0.00  0.00    +0.211 HD
ENDBRANCH  28  29
ENDBRANCH   5  28
TORSDOF 9
ENDMDL
MODEL 5
REMARK VINA RESULT:      -6.3      3.640      6.939
REMARK  Name = 6074876
REMARK  9 active torsions:
REMARK  status: ('A' for Active; 'I' for Inactive)
REMARK    1  A    between atoms: N_2  and  C_7
REMARK    2  A    between atoms: N_2  and  O_17
REMARK    3  A    between atoms: C_3  and  O_13
REMARK    4  A    between atoms: C_4  and  O_15
REMARK    5  A    between atoms: C_5  and  N_9
REMARK    6  A    between atoms: C_6  and  C_28
REMARK    7  A    between atoms: O_17  and  C_20
REMARK    8  A    between atoms: N_19  and  C_22
REMARK    9  A    between atoms: C_28  and  O_29
REMARK                            x       y       z     vdW  Elec       q    Type
REMARK                         _______ _______ _______ _____ _____    ______ ____
ROOT
ATOM      1  O   UNL     1     -34.554  24.224   5.150  0.00  0.00    -0.333 OA
ATOM      2  C   UNL     1     -37.127  23.747   4.024  0.00  0.00    +0.161 C 
ATOM      3  C   UNL     1     -36.002  22.750   3.768  0.00  0.00    +0.169 C 
ATOM      4  C   UNL     1     -36.604  25.169   4.164  0.00  0.00    +0.149 C 
ATOM      5  C   UNL     1     -34.942  22.855   4.863  0.00  0.00    +0.175 C 
ATOM      6  C   UNL     1     -35.398  25.266   5.051  0.00  0.00    +0.251 C 
ENDROOT
BRANCH   4   8
ATOM      7  O   UNL     1     -38.224  26.715   2.314  0.00  0.00    -0.275 OA
ATOM      8  N   UNL     1     -36.188  25.759   2.916  0.00  0.00    -0.300 N 
ATOM      9  C   UNL     1     -37.038  26.484   2.095  0.00  0.00    +0.223 C 
ATOM     10  C   UNL     1     -36.341  27.008   0.868  0.00  0.00    +0.095 C 
ATOM     11  H   UNL     1     -35.253  25.641   2.633  0.00  0.00    +0.150 HD
ENDBRANCH   4   8
BRANCH   2  12
ATOM     12  O   UNL     1     -38.104  23.685   2.989  0.00  0.00    -0.380 OA
ATOM     13  H   UNL     1     -38.551  22.825   3.018  0.00  0.00    +0.211 HD
ENDBRANCH   2  12
BRANCH   3  14
ATOM     14  O   UNL     1     -35.394  23.029   2.506  0.00  0.00    -0.379 OA
ATOM     15  H   UNL     1     -34.999  23.915   2.525  0.00  0.00    +0.211 HD
ENDBRANCH   3  14
BRANCH   6  16
ATOM     16  N   UNL     1     -35.115  26.365   5.670  0.00  0.00    +0.008 NA
BRANCH  16  17
ATOM     17  O   UNL     1     -33.811  26.263   6.172  0.00  0.00    -0.330 OA
BRANCH  17  20
ATOM     18  O   UNL     1     -32.770  26.926   4.239  0.00  0.00    -0.224 OA
ATOM     19  N   UNL     1     -32.470  28.048   6.270  0.00  0.00    -0.249 N 
ATOM     20  C   UNL     1     -32.987  27.074   5.436  0.00  0.00    +0.425 C 
ATOM     21  H   UNL     1     -32.760  28.008   7.210  0.00  0.00    +0.158 HD
BRANCH  19  22
ATOM     22  C   UNL     1     -31.578  29.094   5.940  0.00  0.00    +0.053 C 
ATOM     23  C   UNL     1     -32.080  30.266   5.397  0.00  0.00    +0.015 C 
ATOM     24  C   UNL     1     -30.221  28.928   6.167  0.00  0.00    +0.015 C 
ATOM     25  C   UNL     1     -31.200  31.300   5.072  0.00  0.00    +0.001 C 
ATOM     26  C   UNL     1     -29.342  29.961   5.842  0.00  0.00    +0.001 C 
ATOM     27  C   UNL     1     -29.832  31.147   5.293  0.00  0.00    +0.000 C 
ENDBRANCH  19  22
ENDBRANCH  17  20
ENDBRANCH  16  17
ENDBRANCH   6  16
BRANCH   5  28
ATOM     28  C   UNL     1     -35.382  22.214   6.176  0.00  0.00    +0.169 C 
BRANCH  28  29
ATOM     29  O   UNL     1     -35.473  20.815   5.987  0.00  0.00    -0.379 OA
ATOM     30  H   UNL     1     -34.627  20.477   5.656  0.00  0.00    +0.211 HD
ENDBRANCH  28  29
ENDBRANCH   5  28
TORSDOF 9
ENDMDL
MODEL 6
REMARK VINA RESULT:      -6.3      4.797      7.689
REMARK  Name = 6074876
REMARK  9 active torsions:
REMARK  status: ('A' for Active; 'I' for Inactive)
REMARK    1  A    between atoms: N_2  and  C_7
REMARK    2  A    between atoms: N_2  and  O_17
REMARK    3  A    between atoms: C_3  and  O_13
REMARK    4  A    between atoms: C_4  and  O_15
REMARK    5  A    between atoms: C_5  and  N_9
REMARK    6  A    between atoms: C_6  and  C_28
REMARK    7  A    between atoms: O_17  and  C_20
REMARK    8  A    between atoms: N_19  and  C_22
REMARK    9  A    between atoms: C_28  and  O_29
REMARK                            x       y       z     vdW  Elec       q    Type
REMARK                         _______ _______ _______ _____ _____    ______ ____
ROOT
ATOM      1  O   UNL     1     -33.654  24.936   4.883  0.00  0.00    -0.333 OA
ATOM      2  C   UNL     1     -36.148  25.936   3.935  0.00  0.00    +0.161 C 
ATOM      3  C   UNL     1     -35.632  24.599   3.416  0.00  0.00    +0.169 C 
ATOM      4  C   UNL     1     -35.012  26.895   4.260  0.00  0.00    +0.149 C 
ATOM      5  C   UNL     1     -34.647  23.988   4.411  0.00  0.00    +0.175 C 
ATOM      6  C   UNL     1     -33.902  26.248   5.035  0.00  0.00    +0.251 C 
ENDROOT
BRANCH   4   8
ATOM      7  O   UNL     1     -34.790  29.695   3.524  0.00  0.00    -0.275 OA
ATOM      8  N   UNL     1     -34.368  27.447   3.093  0.00  0.00    -0.300 N 
ATOM      9  C   UNL     1     -34.313  28.806   2.825  0.00  0.00    +0.223 C 
ATOM     10  C   UNL     1     -33.562  29.110   1.556  0.00  0.00    +0.095 C 
ATOM     11  H   UNL     1     -33.947  26.827   2.455  0.00  0.00    +0.150 HD
ENDBRANCH   4   8
BRANCH   2  12
ATOM     12  O   UNL     1     -37.039  26.533   2.999  0.00  0.00    -0.380 OA
ATOM     13  H   UNL     1     -37.596  27.185   3.453  0.00  0.00    +0.211 HD
ENDBRANCH   2  12
BRANCH   3  14
ATOM     14  O   UNL     1     -34.967  24.795   2.167  0.00  0.00    -0.379 OA
ATOM     15  H   UNL     1     -34.270  25.460   2.271  0.00  0.00    +0.211 HD
ENDBRANCH   3  14
BRANCH   6  16
ATOM     16  N   UNL     1     -33.129  26.950   5.799  0.00  0.00    +0.008 NA
BRANCH  16  17
ATOM     17  O   UNL     1     -32.060  27.423   5.026  0.00  0.00    -0.330 OA
BRANCH  17  20
ATOM     18  O   UNL     1     -32.194  29.432   6.125  0.00  0.00    -0.224 OA
ATOM     19  N   UNL     1     -30.147  28.428   5.596  0.00  0.00    -0.249 N 
ATOM     20  C   UNL     1     -31.526  28.527   5.636  0.00  0.00    +0.425 C 
ATOM     21  H   UNL     1     -29.786  27.623   5.159  0.00  0.00    +0.158 HD
BRANCH  19  22
ATOM     22  C   UNL     1     -29.193  29.338   6.104  0.00  0.00    +0.053 C 
ATOM     23  C   UNL     1     -28.645  29.116   7.358  0.00  0.00    +0.015 C 
ATOM     24  C   UNL     1     -28.822  30.433   5.340  0.00  0.00    +0.015 C 
ATOM     25  C   UNL     1     -27.702  30.013   7.860  0.00  0.00    +0.001 C 
ATOM     26  C   UNL     1     -27.879  31.329   5.842  0.00  0.00    +0.001 C 
ATOM     27  C   UNL     1     -27.320  31.120   7.103  0.00  0.00    +0.000 C 
ENDBRANCH  19  22
ENDBRANCH  17  20
ENDBRANCH  16  17
ENDBRANCH   6  16
BRANCH   5  28
ATOM     28  C   UNL     1     -35.334  23.391   5.635  0.00  0.00    +0.169 C 
BRANCH  28  29
ATOM     29  O   UNL     1     -36.254  22.406   5.200  0.00  0.00    -0.379 OA
ATOM     30  H   UNL     1     -35.943  22.018   4.369  0.00  0.00    +0.211 HD
ENDBRANCH  28  29
ENDBRANCH   5  28
TORSDOF 9
ENDMDL
MODEL 7
REMARK VINA RESULT:      -6.2      3.953      6.092
REMARK  Name = 6074876
REMARK  9 active torsions:
REMARK  status: ('A' for Active; 'I' for Inactive)
REMARK    1  A    between atoms: N_2  and  C_7
REMARK    2  A    between atoms: N_2  and  O_17
REMARK    3  A    between atoms: C_3  and  O_13
REMARK    4  A    between atoms: C_4  and  O_15
REMARK    5  A    between atoms: C_5  and  N_9
REMARK    6  A    between atoms: C_6  and  C_28
REMARK    7  A    between atoms: O_17  and  C_20
REMARK    8  A    between atoms: N_19  and  C_22
REMARK    9  A    between atoms: C_28  and  O_29
REMARK                            x       y       z     vdW  Elec       q    Type
REMARK                         _______ _______ _______ _____ _____    ______ ____
ROOT
ATOM      1  O   UNL     1     -31.362  28.684   6.498  0.00  0.00    -0.333 OA
ATOM      2  C   UNL     1     -30.688  29.475   3.845  0.00  0.00    +0.161 C 
ATOM      3  C   UNL     1     -30.160  30.285   5.024  0.00  0.00    +0.169 C 
ATOM      4  C   UNL     1     -32.052  28.867   4.140  0.00  0.00    +0.149 C 
ATOM      5  C   UNL     1     -30.132  29.425   6.287  0.00  0.00    +0.175 C 
ATOM      6  C   UNL     1     -32.126  28.222   5.494  0.00  0.00    +0.251 C 
ENDROOT
BRANCH   4   8
ATOM      7  O   UNL     1     -33.681  29.676   1.877  0.00  0.00    -0.275 OA
ATOM      8  N   UNL     1     -33.128  29.826   4.134  0.00  0.00    -0.300 N 
ATOM      9  C   UNL     1     -33.853  30.150   2.997  0.00  0.00    +0.223 C 
ATOM     10  C   UNL     1     -34.935  31.159   3.274  0.00  0.00    +0.095 C 
ATOM     11  H   UNL     1     -33.360  30.274   4.979  0.00  0.00    +0.150 HD
ENDBRANCH   4   8
BRANCH   2  12
ATOM     12  O   UNL     1     -30.755  30.276   2.670  0.00  0.00    -0.380 OA
ATOM     13  H   UNL     1     -31.673  30.324   2.363  0.00  0.00    +0.211 HD
ENDBRANCH   2  12
BRANCH   3  14
ATOM     14  O   UNL     1     -31.009  31.411   5.249  0.00  0.00    -0.379 OA
ATOM     15  H   UNL     1     -30.627  32.195   4.825  0.00  0.00    +0.211 HD
ENDBRANCH   3  14
BRANCH   6  16
ATOM     16  N   UNL     1     -32.970  27.271   5.731  0.00  0.00    +0.008 NA
BRANCH  16  17
ATOM     17  O   UNL     1     -34.038  27.397   4.835  0.00  0.00    -0.330 OA
BRANCH  17  20
ATOM     18  O   UNL     1     -35.982  26.357   5.466  0.00  0.00    -0.224 OA
ATOM     19  N   UNL     1     -34.213  25.201   4.459  0.00  0.00    -0.249 N 
ATOM     20  C   UNL     1     -34.862  26.311   4.969  0.00  0.00    +0.425 C 
ATOM     21  H   UNL     1     -33.311  25.358   4.099  0.00  0.00    +0.158 HD
BRANCH  19  22
ATOM     22  C   UNL     1     -34.686  23.871   4.389  0.00  0.00    +0.053 C 
ATOM     23  C   UNL     1     -35.047  23.343   3.160  0.00  0.00    +0.015 C 
ATOM     24  C   UNL     1     -34.777  23.120   5.551  0.00  0.00    +0.015 C 
ATOM     25  C   UNL     1     -35.513  22.030   3.090  0.00  0.00    +0.001 C 
ATOM     26  C   UNL     1     -35.243  21.808   5.481  0.00  0.00    +0.001 C 
ATOM     27  C   UNL     1     -35.611  21.262   4.250  0.00  0.00    +0.000 C 
ENDBRANCH  19  22
ENDBRANCH  17  20
ENDBRANCH  16  17
ENDBRANCH   6  16
BRANCH   5  28
ATOM     28  C   UNL     1     -28.981  28.423   6.296  0.00  0.00    +0.169 C 
BRANCH  28  29
ATOM     29  O   UNL     1     -29.379  27.286   7.039  0.00  0.00    -0.379 OA
ATOM     30  H   UNL     1     -28.816  27.198   7.823  0.00  0.00    +0.211 HD
ENDBRANCH  28  29
ENDBRANCH   5  28
TORSDOF 9
ENDMDL
MODEL 8
REMARK VINA RESULT:      -6.1      1.797      2.492
REMARK  Name = 6074876
REMARK  9 active torsions:
REMARK  status: ('A' for Active; 'I' for Inactive)
REMARK    1  A    between atoms: N_2  and  C_7
REMARK    2  A    between atoms: N_2  and  O_17
REMARK    3  A    between atoms: C_3  and  O_13
REMARK    4  A    between atoms: C_4  and  O_15
REMARK    5  A    between atoms: C_5  and  N_9
REMARK    6  A    between atoms: C_6  and  C_28
REMARK    7  A    between atoms: O_17  and  C_20
REMARK    8  A    between atoms: N_19  and  C_22
REMARK    9  A    between atoms: C_28  and  O_29
REMARK                            x       y       z     vdW  Elec       q    Type
REMARK                         _______ _______ _______ _____ _____    ______ ____
ROOT
ATOM      1  O   UNL     1     -36.465  24.954   5.121  0.00  0.00    -0.333 OA
ATOM      2  C   UNL     1     -34.089  25.334   3.595  0.00  0.00    +0.161 C 
ATOM      3  C   UNL     1     -34.017  25.385   5.117  0.00  0.00    +0.169 C 
ATOM      4  C   UNL     1     -35.425  25.845   3.073  0.00  0.00    +0.149 C 
ATOM      5  C   UNL     1     -35.190  24.621   5.729  0.00  0.00    +0.175 C 
ATOM      6  C   UNL     1     -36.599  25.292   3.827  0.00  0.00    +0.251 C 
ENDROOT
BRANCH   4   8
ATOM      7  O   UNL     1     -34.676  27.827   1.088  0.00  0.00    -0.275 OA
ATOM      8  N   UNL     1     -35.574  27.276   3.164  0.00  0.00    -0.300 N 
ATOM      9  C   UNL     1     -35.184  28.148   2.159  0.00  0.00    +0.223 C 
ATOM     10  C   UNL     1     -35.475  29.585   2.501  0.00  0.00    +0.095 C 
ATOM     11  H   UNL     1     -35.972  27.653   3.981  0.00  0.00    +0.150 HD
ENDBRANCH   4   8
BRANCH   2  12
ATOM     12  O   UNL     1     -33.022  26.075   3.012  0.00  0.00    -0.380 OA
ATOM     13  H   UNL     1     -32.178  25.764   3.374  0.00  0.00    +0.211 HD
ENDBRANCH   2  12
BRANCH   3  14
ATOM     14  O   UNL     1     -34.071  26.744   5.553  0.00  0.00    -0.379 OA
ATOM     15  H   UNL     1     -33.197  27.151   5.455  0.00  0.00    +0.211 HD
ENDBRANCH   3  14
BRANCH   6  16
ATOM     16  N   UNL     1     -37.763  25.203   3.271  0.00  0.00    +0.008 NA
BRANCH  16  17
ATOM     17  O   UNL     1     -38.193  23.873   3.363  0.00  0.00    -0.330 OA
BRANCH  17  20
ATOM     18  O   UNL     1     -37.786  23.520   1.134  0.00  0.00    -0.224 OA
ATOM     19  N   UNL     1     -37.066  22.030   2.789  0.00  0.00    -0.249 N 
ATOM     20  C   UNL     1     -37.686  23.167   2.304  0.00  0.00    +0.425 C 
ATOM     21  H   UNL     1     -37.086  21.913   3.766  0.00  0.00    +0.158 HD
BRANCH  19  22
ATOM     22  C   UNL     1     -36.407  21.017   2.056  0.00  0.00    +0.053 C 
ATOM     23  C   UNL     1     -35.080  20.733   2.334  0.00  0.00    +0.015 C 
ATOM     24  C   UNL     1     -37.102  20.327   1.075  0.00  0.00    +0.015 C 
ATOM     25  C   UNL     1     -34.430  19.731   1.612  0.00  0.00    +0.001 C 
ATOM     26  C   UNL     1     -36.451  19.327   0.353  0.00  0.00    +0.001 C 
ATOM     27  C   UNL     1     -35.115  19.029   0.621  0.00  0.00    +0.000 C 
ENDBRANCH  19  22
ENDBRANCH  17  20
ENDBRANCH  16  17
ENDBRANCH   6  16
BRANCH   5  28
ATOM     28  C   UNL     1     -35.019  23.107   5.645  0.00  0.00    +0.169 C 
BRANCH  28  29
ATOM     29  O   UNL     1     -36.302  22.513   5.564  0.00  0.00    -0.379 OA
ATOM     30  H   UNL     1     -36.819  22.751   6.349  0.00  0.00    +0.211 HD
ENDBRANCH  28  29
ENDBRANCH   5  28
TORSDOF 9
ENDMDL
MODEL 9
REMARK VINA RESULT:      -6.1      4.047      8.030
REMARK  Name = 6074876
REMARK  9 active torsions:
REMARK  status: ('A' for Active; 'I' for Inactive)
REMARK    1  A    between atoms: N_2  and  C_7
REMARK    2  A    between atoms: N_2  and  O_17
REMARK    3  A    between atoms: C_3  and  O_13
REMARK    4  A    between atoms: C_4  and  O_15
REMARK    5  A    between atoms: C_5  and  N_9
REMARK    6  A    between atoms: C_6  and  C_28
REMARK    7  A    between atoms: O_17  and  C_20
REMARK    8  A    between atoms: N_19  and  C_22
REMARK    9  A    between atoms: C_28  and  O_29
REMARK                            x       y       z     vdW  Elec       q    Type
REMARK                         _______ _______ _______ _____ _____    ______ ____
ROOT
ATOM      1  O   UNL     1     -38.896  21.969   2.261  0.00  0.00    -0.333 OA
ATOM      2  C   UNL     1     -36.106  21.985   1.683  0.00  0.00    +0.161 C 
ATOM      3  C   UNL     1     -36.907  20.704   1.474  0.00  0.00    +0.169 C 
ATOM      4  C   UNL     1     -36.655  22.814   2.835  0.00  0.00    +0.149 C 
ATOM      5  C   UNL     1     -38.387  21.029   1.279  0.00  0.00    +0.175 C 
ATOM      6  C   UNL     1     -38.149  22.945   2.805  0.00  0.00    +0.251 C 
ENDROOT
BRANCH   4   8
ATOM      7  O   UNL     1     -34.978  23.968   4.906  0.00  0.00    -0.275 OA
ATOM      8  N   UNL     1     -36.363  22.263   4.135  0.00  0.00    -0.300 N 
ATOM      9  C   UNL     1     -35.546  22.891   5.063  0.00  0.00    +0.223 C 
ATOM     10  C   UNL     1     -35.431  22.112   6.346  0.00  0.00    +0.095 C 
ATOM     11  H   UNL     1     -36.765  21.398   4.377  0.00  0.00    +0.150 HD
ENDBRANCH   4   8
BRANCH   2  12
ATOM     12  O   UNL     1     -34.731  21.692   1.902  0.00  0.00    -0.380 OA
ATOM     13  H   UNL     1     -34.645  20.801   2.275  0.00  0.00    +0.211 HD
ENDBRANCH   2  12
BRANCH   3  14
ATOM     14  O   UNL     1     -36.764  19.859   2.616  0.00  0.00    -0.379 OA
ATOM     15  H   UNL     1     -36.121  19.160   2.425  0.00  0.00    +0.211 HD
ENDBRANCH   3  14
BRANCH   6  16
ATOM     16  N   UNL     1     -38.739  23.953   3.360  0.00  0.00    +0.008 NA
BRANCH  16  17
ATOM     17  O   UNL     1     -38.095  25.124   2.941  0.00  0.00    -0.330 OA
BRANCH  17  20
ATOM     18  O   UNL     1     -38.830  26.966   1.789  0.00  0.00    -0.224 OA
ATOM     19  N   UNL     1     -40.226  25.739   3.211  0.00  0.00    -0.249 N 
ATOM     20  C   UNL     1     -39.041  26.043   2.568  0.00  0.00    +0.425 C 
ATOM     21  H   UNL     1     -40.205  24.954   3.805  0.00  0.00    +0.158 HD
BRANCH  19  22
ATOM     22  C   UNL     1     -41.464  26.417   3.122  0.00  0.00    +0.053 C 
ATOM     23  C   UNL     1     -41.770  27.394   4.057  0.00  0.00    +0.015 C 
ATOM     24  C   UNL     1     -42.345  26.092   2.103  0.00  0.00    +0.015 C 
ATOM     25  C   UNL     1     -42.991  28.064   3.968  0.00  0.00    +0.001 C 
ATOM     26  C   UNL     1     -43.565  26.762   2.016  0.00  0.00    +0.001 C 
ATOM     27  C   UNL     1     -43.888  27.748   2.949  0.00  0.00    +0.000 C 
ENDBRANCH  19  22
ENDBRANCH  17  20
ENDBRANCH  16  17
ENDBRANCH   6  16
BRANCH   5  28
ATOM     28  C   UNL     1     -38.692  21.596  -0.104  0.00  0.00    +0.169 C 
BRANCH  28  29
ATOM     29  O   UNL     1     -40.031  22.057  -0.117  0.00  0.00    -0.379 OA
ATOM     30  H   UNL     1     -40.620  21.333  -0.379  0.00  0.00    +0.211 HD
ENDBRANCH  28  29
ENDBRANCH   5  28
TORSDOF 9
ENDMDL
