MODEL 1
REMARK VINA RESULT:      -6.2      0.000      0.000
REMARK  Name = 193782
REMARK  7 active torsions:
REMARK  status: ('A' for Active; 'I' for Inactive)
REMARK    1  A    between atoms: C_2  and  O_7
REMARK    2  A    between atoms: C_3  and  O_9
REMARK    3  A    between atoms: C_4  and  O_11
REMARK    4  A    between atoms: C_5  and  C_14
REMARK    5  A    between atoms: C_6  and  O_17
REMARK    6  A    between atoms: C_14  and  O_15
REMARK    7  A    between atoms: O_17  and  C_18
REMARK                            x       y       z     vdW  Elec       q    Type
REMARK                         _______ _______ _______ _____ _____    ______ ____
ROOT
ATOM      1  O   UNL     1     -35.263  24.394   5.918  0.00  0.00    -0.307 OA
ATOM      2  C   UNL     1     -35.566  24.806   3.074  0.00  0.00    +0.173 C 
ATOM      3  C   UNL     1     -35.848  23.456   3.745  0.00  0.00    +0.178 C 
ATOM      4  C   UNL     1     -35.650  25.965   4.078  0.00  0.00    +0.210 C 
ATOM      5  C   UNL     1     -35.020  23.316   5.022  0.00  0.00    +0.246 C 
ATOM      6  C   UNL     1     -34.897  25.670   5.383  0.00  0.00    +0.318 C 
ENDROOT
BRANCH   2   7
ATOM      7  O   UNL     1     -34.261  24.789   2.504  0.00  0.00    -0.379 OA
ATOM      8  H   UNL     1     -34.197  24.063   1.863  0.00  0.00    +0.211 HD
ENDBRANCH   2   7
BRANCH   3   9
ATOM      9  O   UNL     1     -37.236  23.371   4.066  0.00  0.00    -0.379 OA
ATOM     10  H   UNL     1     -37.496  22.439   4.132  0.00  0.00    +0.211 HD
ENDBRANCH   3   9
BRANCH   4  11
ATOM     11  O   UNL     1     -37.023  26.208   4.377  0.00  0.00    -0.377 OA
ATOM     12  H   UNL     1     -37.148  27.146   4.587  0.00  0.00    +0.211 HD
ENDBRANCH   4  11
BRANCH   5  14
ATOM     13  O   UNL     1     -36.153  22.079   6.720  0.00  0.00    -0.247 OA
ATOM     14  C   UNL     1     -35.381  22.075   5.774  0.00  0.00    +0.344 C 
BRANCH  14  15
ATOM     15  O   UNL     1     -34.761  20.976   5.280  0.00  0.00    -0.478 OA
ATOM     16  H   UNL     1     -35.264  20.226   5.031  0.00  0.00    +0.295 HD
ENDBRANCH  14  15
ENDBRANCH   5  14
BRANCH   6  17
ATOM     17  O   UNL     1     -33.494  25.779   5.165  0.00  0.00    -0.451 OA
BRANCH  17  18
ATOM     18  C   UNL     1     -32.934  27.010   5.374  0.00  0.00    +0.141 C 
ATOM     19  C   UNL     1     -32.543  27.382   6.657  0.00  0.00    +0.037 C 
ATOM     20  C   UNL     1     -32.760  27.881   4.303  0.00  0.00    +0.037 C 
ATOM     21  C   UNL     1     -31.973  28.637   6.871  0.00  0.00    +0.003 C 
ATOM     22  C   UNL     1     -32.190  29.135   4.517  0.00  0.00    +0.003 C 
ATOM     23  C   UNL     1     -31.796  29.513   5.800  0.00  0.00    +0.000 C 
ENDBRANCH  17  18
ENDBRANCH   6  17
TORSDOF 7
ENDMDL
MODEL 2
REMARK VINA RESULT:      -5.8      3.086      6.089
REMARK  Name = 193782
REMARK  7 active torsions:
REMARK  status: ('A' for Active; 'I' for Inactive)
REMARK    1  A    between atoms: C_2  and  O_7
REMARK    2  A    between atoms: C_3  and  O_9
REMARK    3  A    between atoms: C_4  and  O_11
REMARK    4  A    between atoms: C_5  and  C_14
REMARK    5  A    between atoms: C_6  and  O_17
REMARK    6  A    between atoms: C_14  and  O_15
REMARK    7  A    between atoms: O_17  and  C_18
REMARK                            x       y       z     vdW  Elec       q    Type
REMARK                         _______ _______ _______ _____ _____    ______ ____
ROOT
ATOM      1  O   UNL     1     -37.437  23.307   3.542  0.00  0.00    -0.307 OA
ATOM      2  C   UNL     1     -35.043  24.924   3.562  0.00  0.00    +0.173 C 
ATOM      3  C   UNL     1     -36.440  25.521   3.766  0.00  0.00    +0.178 C 
ATOM      4  C   UNL     1     -35.014  23.424   3.889  0.00  0.00    +0.210 C 
ATOM      5  C   UNL     1     -37.493  24.651   3.079  0.00  0.00    +0.246 C 
ATOM      6  C   UNL     1     -36.191  22.662   3.263  0.00  0.00    +0.318 C 
ENDROOT
BRANCH   2   7
ATOM      7  O   UNL     1     -34.644  25.104   2.207  0.00  0.00    -0.379 OA
ATOM      8  H   UNL     1     -35.345  25.565   1.721  0.00  0.00    +0.211 HD
ENDBRANCH   2   7
BRANCH   3   9
ATOM      9  O   UNL     1     -36.722  25.594   5.164  0.00  0.00    -0.379 OA
ATOM     10  H   UNL     1     -36.808  26.522   5.428  0.00  0.00    +0.211 HD
ENDBRANCH   3   9
BRANCH   4  11
ATOM     11  O   UNL     1     -35.060  23.268   5.306  0.00  0.00    -0.377 OA
ATOM     12  H   UNL     1     -35.962  23.036   5.578  0.00  0.00    +0.211 HD
ENDBRANCH   4  11
BRANCH   5  14
ATOM     13  O   UNL     1     -39.799  24.362   3.625  0.00  0.00    -0.247 OA
ATOM     14  C   UNL     1     -38.878  25.127   3.383  0.00  0.00    +0.344 C 
BRANCH  14  15
ATOM     15  O   UNL     1     -38.974  26.478   3.359  0.00  0.00    -0.478 OA
ATOM     16  H   UNL     1     -38.735  26.952   2.587  0.00  0.00    +0.295 HD
ENDBRANCH  14  15
ENDBRANCH   5  14
BRANCH   6  17
ATOM     17  O   UNL     1     -35.970  22.502   1.865  0.00  0.00    -0.451 OA
BRANCH  17  18
ATOM     18  C   UNL     1     -35.006  21.603   1.494  0.00  0.00    +0.141 C 
ATOM     19  C   UNL     1     -34.993  20.332   2.061  0.00  0.00    +0.037 C 
ATOM     20  C   UNL     1     -34.048  21.967   0.554  0.00  0.00    +0.037 C 
ATOM     21  C   UNL     1     -34.009  19.417   1.685  0.00  0.00    +0.003 C 
ATOM     22  C   UNL     1     -33.066  21.052   0.177  0.00  0.00    +0.003 C 
ATOM     23  C   UNL     1     -33.047  19.777   0.742  0.00  0.00    +0.000 C 
ENDBRANCH  17  18
ENDBRANCH   6  17
TORSDOF 7
ENDMDL
MODEL 3
REMARK VINA RESULT:      -5.8      3.014      5.880
REMARK  Name = 193782
REMARK  7 active torsions:
REMARK  status: ('A' for Active; 'I' for Inactive)
REMARK    1  A    between atoms: C_2  and  O_7
REMARK    2  A    between atoms: C_3  and  O_9
REMARK    3  A    between atoms: C_4  and  O_11
REMARK    4  A    between atoms: C_5  and  C_14
REMARK    5  A    between atoms: C_6  and  O_17
REMARK    6  A    between atoms: C_14  and  O_15
REMARK    7  A    between atoms: O_17  and  C_18
REMARK                            x       y       z     vdW  Elec       q    Type
REMARK                         _______ _______ _______ _____ _____    ______ ____
ROOT
ATOM      1  O   UNL     1     -36.336  23.333   3.822  0.00  0.00    -0.307 OA
ATOM      2  C   UNL     1     -35.564  25.954   4.762  0.00  0.00    +0.173 C 
ATOM      3  C   UNL     1     -34.998  24.663   5.367  0.00  0.00    +0.178 C 
ATOM      4  C   UNL     1     -36.105  25.725   3.344  0.00  0.00    +0.210 C 
ATOM      5  C   UNL     1     -35.992  23.516   5.190  0.00  0.00    +0.246 C 
ATOM      6  C   UNL     1     -36.984  24.471   3.244  0.00  0.00    +0.318 C 
ENDROOT
BRANCH   2   7
ATOM      7  O   UNL     1     -36.623  26.437   5.584  0.00  0.00    -0.379 OA
ATOM      8  H   UNL     1     -36.259  27.004   6.281  0.00  0.00    +0.211 HD
ENDBRANCH   2   7
BRANCH   3   9
ATOM      9  O   UNL     1     -33.772  24.335   4.712  0.00  0.00    -0.379 OA
ATOM     10  H   UNL     1     -33.027  24.653   5.244  0.00  0.00    +0.211 HD
ENDBRANCH   3   9
BRANCH   4  11
ATOM     11  O   UNL     1     -35.000  25.592   2.453  0.00  0.00    -0.377 OA
ATOM     12  H   UNL     1     -35.324  25.397   1.560  0.00  0.00    +0.211 HD
ENDBRANCH   4  11
BRANCH   5  14
ATOM     13  O   UNL     1     -34.826  22.085   6.703  0.00  0.00    -0.247 OA
ATOM     14  C   UNL     1     -35.409  22.213   5.638  0.00  0.00    +0.344 C 
BRANCH  14  15
ATOM     15  O   UNL     1     -35.609  21.223   4.736  0.00  0.00    -0.478 OA
ATOM     16  H   UNL     1     -35.202  20.388   4.858  0.00  0.00    +0.295 HD
ENDBRANCH  14  15
ENDBRANCH   5  14
BRANCH   6  17
ATOM     17  O   UNL     1     -38.254  24.725   3.835  0.00  0.00    -0.451 OA
BRANCH  17  18
ATOM     18  C   UNL     1     -39.328  24.775   2.988  0.00  0.00    +0.141 C 
ATOM     19  C   UNL     1     -39.540  23.741   2.080  0.00  0.00    +0.037 C 
ATOM     20  C   UNL     1     -40.199  25.858   3.039  0.00  0.00    +0.037 C 
ATOM     21  C   UNL     1     -40.633  23.792   1.215  0.00  0.00    +0.003 C 
ATOM     22  C   UNL     1     -41.291  25.909   2.175  0.00  0.00    +0.003 C 
ATOM     23  C   UNL     1     -41.509  24.876   1.264  0.00  0.00    +0.000 C 
ENDBRANCH  17  18
ENDBRANCH   6  17
TORSDOF 7
ENDMDL
MODEL 4
REMARK VINA RESULT:      -5.5      3.978      6.510
REMARK  Name = 193782
REMARK  7 active torsions:
REMARK  status: ('A' for Active; 'I' for Inactive)
REMARK    1  A    between atoms: C_2  and  O_7
REMARK    2  A    between atoms: C_3  and  O_9
REMARK    3  A    between atoms: C_4  and  O_11
REMARK    4  A    between atoms: C_5  and  C_14
REMARK    5  A    between atoms: C_6  and  O_17
REMARK    6  A    between atoms: C_14  and  O_15
REMARK    7  A    between atoms: O_17  and  C_18
REMARK                            x       y       z     vdW  Elec       q    Type
REMARK                         _______ _______ _______ _____ _____    ______ ____
ROOT
ATOM      1  O   UNL     1     -34.988  22.649   2.698  0.00  0.00    -0.307 OA
ATOM      2  C   UNL     1     -37.685  22.187   1.768  0.00  0.00    +0.173 C 
ATOM      3  C   UNL     1     -37.380  22.743   3.164  0.00  0.00    +0.178 C 
ATOM      4  C   UNL     1     -36.518  22.422   0.798  0.00  0.00    +0.210 C 
ATOM      5  C   UNL     1     -36.000  22.280   3.629  0.00  0.00    +0.246 C 
ATOM      6  C   UNL     1     -35.159  22.052   1.409  0.00  0.00    +0.318 C 
ENDROOT
BRANCH   2   7
ATOM      7  O   UNL     1     -37.929  20.786   1.859  0.00  0.00    -0.379 OA
ATOM      8  H   UNL     1     -38.885  20.623   1.857  0.00  0.00    +0.211 HD
ENDBRANCH   2   7
BRANCH   3   9
ATOM      9  O   UNL     1     -37.413  24.169   3.120  0.00  0.00    -0.379 OA
ATOM     10  H   UNL     1     -37.632  24.515   3.998  0.00  0.00    +0.211 HD
ENDBRANCH   3   9
BRANCH   4  11
ATOM     11  O   UNL     1     -36.504  23.800   0.431  0.00  0.00    -0.377 OA
ATOM     12  H   UNL     1     -35.668  24.009  -0.015  0.00  0.00    +0.211 HD
ENDBRANCH   4  11
BRANCH   5  14
ATOM     13  O   UNL     1     -34.959  23.954   4.976  0.00  0.00    -0.247 OA
ATOM     14  C   UNL     1     -35.614  22.925   4.922  0.00  0.00    +0.344 C 
BRANCH  14  15
ATOM     15  O   UNL     1     -36.077  22.239   5.996  0.00  0.00    -0.478 OA
ATOM     16  H   UNL     1     -35.541  21.587   6.402  0.00  0.00    +0.295 HD
ENDBRANCH  14  15
ENDBRANCH   5  14
BRANCH   6  17
ATOM     17  O   UNL     1     -35.020  20.635   1.450  0.00  0.00    -0.451 OA
BRANCH  17  18
ATOM     18  C   UNL     1     -33.809  20.126   1.065  0.00  0.00    +0.141 C 
ATOM     19  C   UNL     1     -33.413  18.871   1.520  0.00  0.00    +0.037 C 
ATOM     20  C   UNL     1     -32.984  20.865   0.224  0.00  0.00    +0.037 C 
ATOM     21  C   UNL     1     -32.178  18.352   1.130  0.00  0.00    +0.003 C 
ATOM     22  C   UNL     1     -31.750  20.346  -0.166  0.00  0.00    +0.003 C 
ATOM     23  C   UNL     1     -31.347  19.090   0.286  0.00  0.00    +0.000 C 
ENDBRANCH  17  18
ENDBRANCH   6  17
TORSDOF 7
ENDMDL
MODEL 5
REMARK VINA RESULT:      -5.5      3.173      4.750
REMARK  Name = 193782
REMARK  7 active torsions:
REMARK  status: ('A' for Active; 'I' for Inactive)
REMARK    1  A    between atoms: C_2  and  O_7
REMARK    2  A    between atoms: C_3  and  O_9
REMARK    3  A    between atoms: C_4  and  O_11
REMARK    4  A    between atoms: C_5  and  C_14
REMARK    5  A    between atoms: C_6  and  O_17
REMARK    6  A    between atoms: C_14  and  O_15
REMARK    7  A    between atoms: O_17  and  C_18
REMARK                            x       y       z     vdW  Elec       q    Type
REMARK                         _______ _______ _______ _____ _____    ______ ____
ROOT
ATOM      1  O   UNL     1     -37.373  21.972   2.722  0.00  0.00    -0.307 OA
ATOM      2  C   UNL     1     -38.741  22.824   0.324  0.00  0.00    +0.173 C 
ATOM      3  C   UNL     1     -38.014  21.478   0.421  0.00  0.00    +0.178 C 
ATOM      4  C   UNL     1     -39.114  23.369   1.710  0.00  0.00    +0.210 C 
ATOM      5  C   UNL     1     -36.886  21.559   1.450  0.00  0.00    +0.246 C 
ATOM      6  C   UNL     1     -37.952  23.281   2.709  0.00  0.00    +0.318 C 
ENDROOT
BRANCH   2   7
ATOM      7  O   UNL     1     -37.901  23.770  -0.329  0.00  0.00    -0.379 OA
ATOM      8  H   UNL     1     -37.070  23.860   0.164  0.00  0.00    +0.211 HD
ENDBRANCH   2   7
BRANCH   3   9
ATOM      9  O   UNL     1     -38.943  20.467   0.814  0.00  0.00    -0.379 OA
ATOM     10  H   UNL     1     -39.501  20.803   1.532  0.00  0.00    +0.211 HD
ENDBRANCH   3   9
BRANCH   4  11
ATOM     11  O   UNL     1     -40.217  22.616   2.211  0.00  0.00    -0.377 OA
ATOM     12  H   UNL     1     -39.894  21.793   2.609  0.00  0.00    +0.211 HD
ENDBRANCH   4  11
BRANCH   5  14
ATOM     13  O   UNL     1     -35.287  19.836   1.035  0.00  0.00    -0.247 OA
ATOM     14  C   UNL     1     -36.253  20.222   1.674  0.00  0.00    +0.344 C 
BRANCH  14  15
ATOM     15  O   UNL     1     -36.872  19.518   2.652  0.00  0.00    -0.478 OA
ATOM     16  H   UNL     1     -37.084  19.931   3.465  0.00  0.00    +0.295 HD
ENDBRANCH  14  15
ENDBRANCH   5  14
BRANCH   6  17
ATOM     17  O   UNL     1     -36.991  24.291   2.419  0.00  0.00    -0.451 OA
BRANCH  17  18
ATOM     18  C   UNL     1     -36.181  24.683   3.450  0.00  0.00    +0.141 C 
ATOM     19  C   UNL     1     -36.714  25.417   4.506  0.00  0.00    +0.037 C 
ATOM     20  C   UNL     1     -34.831  24.346   3.436  0.00  0.00    +0.037 C 
ATOM     21  C   UNL     1     -35.888  25.819   5.556  0.00  0.00    +0.003 C 
ATOM     22  C   UNL     1     -34.007  24.746   4.486  0.00  0.00    +0.003 C 
ATOM     23  C   UNL     1     -34.535  25.482   5.547  0.00  0.00    +0.000 C 
ENDBRANCH  17  18
ENDBRANCH   6  17
TORSDOF 7
ENDMDL
MODEL 6
REMARK VINA RESULT:      -5.4      4.257      6.495
REMARK  Name = 193782
REMARK  7 active torsions:
REMARK  status: ('A' for Active; 'I' for Inactive)
REMARK    1  A    between atoms: C_2  and  O_7
REMARK    2  A    between atoms: C_3  and  O_9
REMARK    3  A    between atoms: C_4  and  O_11
REMARK    4  A    between atoms: C_5  and  C_14
REMARK    5  A    between atoms: C_6  and  O_17
REMARK    6  A    between atoms: C_14  and  O_15
REMARK    7  A    between atoms: O_17  and  C_18
REMARK                            x       y       z     vdW  Elec       q    Type
REMARK                         _______ _______ _______ _____ _____    ______ ____
ROOT
ATOM      1  O   UNL     1     -34.327  19.600   2.018  0.00  0.00    -0.307 OA
ATOM      2  C   UNL     1     -35.807  20.219  -0.386  0.00  0.00    +0.173 C 
ATOM      3  C   UNL     1     -34.433  19.539  -0.418  0.00  0.00    +0.178 C 
ATOM      4  C   UNL     1     -36.500  20.031   0.971  0.00  0.00    +0.210 C 
ATOM      5  C   UNL     1     -33.625  19.920   0.822  0.00  0.00    +0.246 C 
ATOM      6  C   UNL     1     -35.563  20.308   2.155  0.00  0.00    +0.318 C 
ENDROOT
BRANCH   2   7
ATOM      7  O   UNL     1     -35.651  21.614  -0.631  0.00  0.00    -0.379 OA
ATOM      8  H   UNL     1     -36.195  22.115  -0.003  0.00  0.00    +0.211 HD
ENDBRANCH   2   7
BRANCH   3   9
ATOM      9  O   UNL     1     -34.609  18.123  -0.454  0.00  0.00    -0.379 OA
ATOM     10  H   UNL     1     -34.971  17.864  -1.314  0.00  0.00    +0.211 HD
ENDBRANCH   3   9
BRANCH   4  11
ATOM     11  O   UNL     1     -36.974  18.689   1.056  0.00  0.00    -0.377 OA
ATOM     12  H   UNL     1     -37.347  18.422   0.202  0.00  0.00    +0.211 HD
ENDBRANCH   4  11
BRANCH   5  14
ATOM     13  O   UNL     1     -31.309  19.556   0.369  0.00  0.00    -0.247 OA
ATOM     14  C   UNL     1     -32.339  19.159   0.892  0.00  0.00    +0.344 C 
BRANCH  14  15
ATOM     15  O   UNL     1     -32.462  18.006   1.593  0.00  0.00    -0.478 OA
ATOM     16  H   UNL     1     -31.820  17.330   1.500  0.00  0.00    +0.295 HD
ENDBRANCH  14  15
ENDBRANCH   5  14
BRANCH   6  17
ATOM     17  O   UNL     1     -35.367  21.712   2.295  0.00  0.00    -0.451 OA
BRANCH  17  18
ATOM     18  C   UNL     1     -35.372  22.209   3.570  0.00  0.00    +0.141 C 
ATOM     19  C   UNL     1     -35.551  23.573   3.779  0.00  0.00    +0.037 C 
ATOM     20  C   UNL     1     -35.196  21.347   4.648  0.00  0.00    +0.037 C 
ATOM     21  C   UNL     1     -35.554  24.080   5.078  0.00  0.00    +0.003 C 
ATOM     22  C   UNL     1     -35.200  21.854   5.947  0.00  0.00    +0.003 C 
ATOM     23  C   UNL     1     -35.380  23.220   6.162  0.00  0.00    +0.000 C 
ENDBRANCH  17  18
ENDBRANCH   6  17
TORSDOF 7
ENDMDL
MODEL 7
REMARK VINA RESULT:      -5.4      4.828      7.268
REMARK  Name = 193782
REMARK  7 active torsions:
REMARK  status: ('A' for Active; 'I' for Inactive)
REMARK    1  A    between atoms: C_2  and  O_7
REMARK    2  A    between atoms: C_3  and  O_9
REMARK    3  A    between atoms: C_4  and  O_11
REMARK    4  A    between atoms: C_5  and  C_14
REMARK    5  A    between atoms: C_6  and  O_17
REMARK    6  A    between atoms: C_14  and  O_15
REMARK    7  A    between atoms: O_17  and  C_18
REMARK                            x       y       z     vdW  Elec       q    Type
REMARK                         _______ _______ _______ _____ _____    ______ ____
ROOT
ATOM      1  O   UNL     1     -37.118  20.362   1.678  0.00  0.00    -0.307 OA
ATOM      2  C   UNL     1     -35.581  22.668   2.496  0.00  0.00    +0.173 C 
ATOM      3  C   UNL     1     -37.082  22.746   2.190  0.00  0.00    +0.178 C 
ATOM      4  C   UNL     1     -35.147  21.237   2.842  0.00  0.00    +0.210 C 
ATOM      5  C   UNL     1     -37.477  21.652   1.198  0.00  0.00    +0.246 C 
ATOM      6  C   UNL     1     -35.708  20.198   1.861  0.00  0.00    +0.318 C 
ENDROOT
BRANCH   2   7
ATOM      7  O   UNL     1     -34.843  23.108   1.360  0.00  0.00    -0.379 OA
ATOM      8  H   UNL     1     -33.904  23.178   1.591  0.00  0.00    +0.211 HD
ENDBRANCH   2   7
BRANCH   3   9
ATOM      9  O   UNL     1     -37.818  22.578   3.401  0.00  0.00    -0.379 OA
ATOM     10  H   UNL     1     -37.313  22.021   4.012  0.00  0.00    +0.211 HD
ENDBRANCH   3   9
BRANCH   4  11
ATOM     11  O   UNL     1     -35.603  20.930   4.157  0.00  0.00    -0.377 OA
ATOM     12  H   UNL     1     -35.191  21.535   4.793  0.00  0.00    +0.211 HD
ENDBRANCH   4  11
BRANCH   5  14
ATOM     13  O   UNL     1     -39.506  22.142   0.040  0.00  0.00    -0.247 OA
ATOM     14  C   UNL     1     -38.958  21.610   0.993  0.00  0.00    +0.344 C 
BRANCH  14  15
ATOM     15  O   UNL     1     -39.593  20.921   1.972  0.00  0.00    -0.478 OA
ATOM     16  H   UNL     1     -39.194  20.827   2.814  0.00  0.00    +0.295 HD
ENDBRANCH  14  15
ENDBRANCH   5  14
BRANCH   6  17
ATOM     17  O   UNL     1     -34.994  20.263   0.630  0.00  0.00    -0.451 OA
BRANCH  17  18
ATOM     18  C   UNL     1     -33.723  19.757   0.629  0.00  0.00    +0.141 C 
ATOM     19  C   UNL     1     -33.472  18.521   1.219  0.00  0.00    +0.037 C 
ATOM     20  C   UNL     1     -32.691  20.480   0.040  0.00  0.00    +0.037 C 
ATOM     21  C   UNL     1     -32.176  18.005   1.220  0.00  0.00    +0.003 C 
ATOM     22  C   UNL     1     -31.396  19.964   0.041  0.00  0.00    +0.003 C 
ATOM     23  C   UNL     1     -31.138  18.727   0.629  0.00  0.00    +0.000 C 
ENDBRANCH  17  18
ENDBRANCH   6  17
TORSDOF 7
ENDMDL
MODEL 8
REMARK VINA RESULT:      -5.4      2.427      6.144
REMARK  Name = 193782
REMARK  7 active torsions:
REMARK  status: ('A' for Active; 'I' for Inactive)
REMARK    1  A    between atoms: C_2  and  O_7
REMARK    2  A    between atoms: C_3  and  O_9
REMARK    3  A    between atoms: C_4  and  O_11
REMARK    4  A    between atoms: C_5  and  C_14
REMARK    5  A    between atoms: C_6  and  O_17
REMARK    6  A    between atoms: C_14  and  O_15
REMARK    7  A    between atoms: O_17  and  C_18
REMARK                            x       y       z     vdW  Elec       q    Type
REMARK                         _______ _______ _______ _____ _____    ______ ____
ROOT
ATOM      1  O   UNL     1     -35.548  25.865   2.933  0.00  0.00    -0.307 OA
ATOM      2  C   UNL     1     -35.927  24.366   5.374  0.00  0.00    +0.173 C 
ATOM      3  C   UNL     1     -35.401  25.807   5.367  0.00  0.00    +0.178 C 
ATOM      4  C   UNL     1     -36.702  24.039   4.090  0.00  0.00    +0.210 C 
ATOM      5  C   UNL     1     -34.694  26.105   4.045  0.00  0.00    +0.246 C 
ATOM      6  C   UNL     1     -35.967  24.501   2.824  0.00  0.00    +0.318 C 
ENDROOT
BRANCH   2   7
ATOM      7  O   UNL     1     -34.831  23.463   5.490  0.00  0.00    -0.379 OA
ATOM      8  H   UNL     1     -35.164  22.553   5.528  0.00  0.00    +0.211 HD
ENDBRANCH   2   7
BRANCH   3   9
ATOM      9  O   UNL     1     -36.496  26.708   5.533  0.00  0.00    -0.379 OA
ATOM     10  H   UNL     1     -37.180  26.289   6.077  0.00  0.00    +0.211 HD
ENDBRANCH   3   9
BRANCH   4  11
ATOM     11  O   UNL     1     -37.973  24.683   4.151  0.00  0.00    -0.377 OA
ATOM     12  H   UNL     1     -38.341  24.591   5.044  0.00  0.00    +0.211 HD
ENDBRANCH   4  11
BRANCH   5  14
ATOM     13  O   UNL     1     -33.232  27.965   4.369  0.00  0.00    -0.247 OA
ATOM     14  C   UNL     1     -34.299  27.545   3.949  0.00  0.00    +0.344 C 
BRANCH  14  15
ATOM     15  O   UNL     1     -35.251  28.300   3.350  0.00  0.00    -0.478 OA
ATOM     16  H   UNL     1     -36.079  27.922   3.128  0.00  0.00    +0.295 HD
ENDBRANCH  14  15
ENDBRANCH   5  14
BRANCH   6  17
ATOM     17  O   UNL     1     -34.878  23.624   2.553  0.00  0.00    -0.451 OA
BRANCH  17  18
ATOM     18  C   UNL     1     -35.166  22.484   1.853  0.00  0.00    +0.141 C 
ATOM     19  C   UNL     1     -35.185  21.257   2.510  0.00  0.00    +0.037 C 
ATOM     20  C   UNL     1     -35.438  22.560   0.491  0.00  0.00    +0.037 C 
ATOM     21  C   UNL     1     -35.477  20.095   1.796  0.00  0.00    +0.003 C 
ATOM     22  C   UNL     1     -35.731  21.399  -0.222  0.00  0.00    +0.003 C 
ATOM     23  C   UNL     1     -35.751  20.166   0.430  0.00  0.00    +0.000 C 
ENDBRANCH  17  18
ENDBRANCH   6  17
TORSDOF 7
ENDMDL
MODEL 9
REMARK VINA RESULT:      -5.4      3.879      6.057
REMARK  Name = 193782
REMARK  7 active torsions:
REMARK  status: ('A' for Active; 'I' for Inactive)
REMARK    1  A    between atoms: C_2  and  O_7
REMARK    2  A    between atoms: C_3  and  O_9
REMARK    3  A    between atoms: C_4  and  O_11
REMARK    4  A    between atoms: C_5  and  C_14
REMARK    5  A    between atoms: C_6  and  O_17
REMARK    6  A    between atoms: C_14  and  O_15
REMARK    7  A    between atoms: O_17  and  C_18
REMARK                            x       y       z     vdW  Elec       q    Type
REMARK                         _______ _______ _______ _____ _____    ______ ____
ROOT
ATOM      1  O   UNL     1     -39.606  26.471   3.107  0.00  0.00    -0.307 OA
ATOM      2  C   UNL     1     -40.143  24.237   1.355  0.00  0.00    +0.173 C 
ATOM      3  C   UNL     1     -41.249  25.171   1.859  0.00  0.00    +0.178 C 
ATOM      4  C   UNL     1     -38.762  24.906   1.421  0.00  0.00    +0.210 C 
ATOM      5  C   UNL     1     -40.851  25.788   3.199  0.00  0.00    +0.246 C 
ATOM      6  C   UNL     1     -38.514  25.614   2.760  0.00  0.00    +0.318 C 
ENDROOT
BRANCH   2   7
ATOM      7  O   UNL     1     -40.118  23.058   2.154  0.00  0.00    -0.379 OA
ATOM      8  H   UNL     1     -40.492  22.318   1.651  0.00  0.00    +0.211 HD
ENDBRANCH   2   7
BRANCH   3   9
ATOM      9  O   UNL     1     -41.461  26.209   0.902  0.00  0.00    -0.379 OA
ATOM     10  H   UNL     1     -41.750  27.014   1.357  0.00  0.00    +0.211 HD
ENDBRANCH   3   9
BRANCH   4  11
ATOM     11  O   UNL     1     -38.671  25.861   0.366  0.00  0.00    -0.377 OA
ATOM     12  H   UNL     1     -39.559  26.061   0.031  0.00  0.00    +0.211 HD
ENDBRANCH   4  11
BRANCH   5  14
ATOM     13  O   UNL     1     -43.020  26.779   3.317  0.00  0.00    -0.247 OA
ATOM     14  C   UNL     1     -41.844  26.814   3.645  0.00  0.00    +0.344 C 
BRANCH  14  15
ATOM     15  O   UNL     1     -41.285  27.759   4.439  0.00  0.00    -0.478 OA
ATOM     16  H   UNL     1     -41.518  27.808   5.345  0.00  0.00    +0.295 HD
ENDBRANCH  14  15
ENDBRANCH   5  14
BRANCH   6  17
ATOM     17  O   UNL     1     -38.246  24.648   3.772  0.00  0.00    -0.451 OA
BRANCH  17  18
ATOM     18  C   UNL     1     -36.985  24.647   4.303  0.00  0.00    +0.141 C 
ATOM     19  C   UNL     1     -36.194  23.506   4.203  0.00  0.00    +0.037 C 
ATOM     20  C   UNL     1     -36.502  25.787   4.938  0.00  0.00    +0.037 C 
ATOM     21  C   UNL     1     -34.909  23.505   4.745  0.00  0.00    +0.003 C 
ATOM     22  C   UNL     1     -35.217  25.785   5.479  0.00  0.00    +0.003 C 
ATOM     23  C   UNL     1     -34.420  24.645   5.382  0.00  0.00    +0.000 C 
ENDBRANCH  17  18
ENDBRANCH   6  17
TORSDOF 7
ENDMDL
