MODEL 1
REMARK VINA RESULT:      -7.0      0.000      0.000
REMARK  Name = 56945144
REMARK  7 active torsions:
REMARK  status: ('A' for Active; 'I' for Inactive)
REMARK    1  A    between atoms: C_1  and  C_4
REMARK    2  A    between atoms: C_1  and  O_17
REMARK    3  A    between atoms: C_10  and  O_12
REMARK    4  A    between atoms: O_12  and  C_13
REMARK    5  A    between atoms: O_17  and  N_18
REMARK    6  A    between atoms: C_19  and  C_24
REMARK    7  A    between atoms: C_19  and  C_26
REMARK                            x       y       z     vdW  Elec       q    Type
REMARK                         _______ _______ _______ _____ _____    ______ ____
ROOT
ATOM      1  C   UNL     1     -35.626  21.912   4.996  0.00  0.00    +0.297 C 
ENDROOT
BRANCH   1   4
ATOM      2  N   UNL     1     -36.815  23.938   4.414  0.00  0.00    -0.391 NA
ATOM      3  C   UNL     1     -36.879  25.288   4.384  0.00  0.00    +0.169 C 
ATOM      4  C   UNL     1     -35.701  23.402   4.960  0.00  0.00    +0.157 C 
ATOM      5  C   UNL     1     -35.887  26.123   4.875  0.00  0.00    +0.101 C 
ATOM      6  C   UNL     1     -34.654  24.148   5.477  0.00  0.00    +0.027 C 
ATOM      7  C   UNL     1     -34.757  25.533   5.429  0.00  0.00    -0.015 C 
ATOM      8  O   UNL     1     -39.346  24.080   3.168  0.00  0.00    -0.226 OA
ATOM      9  N   UNL     1     -38.024  25.897   3.823  0.00  0.00    -0.228 N 
ATOM     10  C   UNL     1     -39.133  25.281   3.276  0.00  0.00    +0.407 C 
ATOM     11  H   UNL     1     -38.033  26.882   3.821  0.00  0.00    +0.160 HD
BRANCH  10  12
ATOM     12  O   UNL     1     -40.009  26.245   2.847  0.00  0.00    -0.442 OA
BRANCH  12  13
ATOM     13  C   UNL     1     -40.446  26.140   1.490  0.00  0.00    +0.138 C 
ATOM     14  C   UNL     1     -41.258  24.854   1.339  0.00  0.00    +0.044 C 
ATOM     15  C   UNL     1     -41.314  27.361   1.192  0.00  0.00    +0.044 C 
ATOM     16  C   UNL     1     -39.217  26.119   0.584  0.00  0.00    +0.044 C 
ENDBRANCH  12  13
ENDBRANCH  10  12
ENDBRANCH   1   4
BRANCH   1  17
ATOM     17  O   UNL     1     -36.042  21.388   3.741  0.00  0.00    -0.369 OA
BRANCH  17  18
ATOM     18  N   UNL     1     -34.982  20.640   3.213  0.00  0.00    -0.079 NA
ATOM     19  C   UNL     1     -34.816  20.857   1.940  0.00  0.00    +0.156 C 
BRANCH  19  24
ATOM     20  N   UNL     1     -35.501  23.142   1.036  0.00  0.00    -0.210 N 
ATOM     21  N   UNL     1     -36.703  21.433   0.457  0.00  0.00    -0.106 NA
ATOM     22  N   UNL     1     -36.463  23.639   0.246  0.00  0.00    -0.043 NA
ATOM     23  N   UNL     1     -37.196  22.589  -0.105  0.00  0.00    -0.023 NA
ATOM     24  C   UNL     1     -35.655  21.798   1.159  0.00  0.00    +0.205 A 
ATOM     25  C   UNL     1     -34.498  23.998   1.614  0.00  0.00    +0.157 C 
ENDBRANCH  19  24
BRANCH  19  26
ATOM     26  C   UNL     1     -33.718  20.129   1.230  0.00  0.00    +0.024 C 
ATOM     27  C   UNL     1     -32.984  20.773   0.232  0.00  0.00    +0.002 C 
ATOM     28  C   UNL     1     -33.427  18.807   1.565  0.00  0.00    +0.002 C 
ATOM     29  C   UNL     1     -31.961  20.094  -0.428  0.00  0.00    +0.000 C 
ATOM     30  C   UNL     1     -32.404  18.128   0.904  0.00  0.00    +0.000 C 
ATOM     31  C   UNL     1     -31.670  18.772  -0.093  0.00  0.00    +0.000 C 
ENDBRANCH  19  26
ENDBRANCH  17  18
ENDBRANCH   1  17
TORSDOF 7
ENDMDL
MODEL 2
REMARK VINA RESULT:      -6.8      3.506      7.583
REMARK  Name = 56945144
REMARK  7 active torsions:
REMARK  status: ('A' for Active; 'I' for Inactive)
REMARK    1  A    between atoms: C_1  and  C_4
REMARK    2  A    between atoms: C_1  and  O_17
REMARK    3  A    between atoms: C_10  and  O_12
REMARK    4  A    between atoms: O_12  and  C_13
REMARK    5  A    between atoms: O_17  and  N_18
REMARK    6  A    between atoms: C_19  and  C_24
REMARK    7  A    between atoms: C_19  and  C_26
REMARK                            x       y       z     vdW  Elec       q    Type
REMARK                         _______ _______ _______ _____ _____    ______ ____
ROOT
ATOM      1  C   UNL     1     -35.950  25.279   4.043  0.00  0.00    +0.297 C 
ENDROOT
BRANCH   1   4
ATOM      2  N   UNL     1     -35.562  22.943   3.540  0.00  0.00    -0.391 NA
ATOM      3  C   UNL     1     -35.297  21.685   3.960  0.00  0.00    +0.169 C 
ATOM      4  C   UNL     1     -35.659  23.888   4.501  0.00  0.00    +0.157 C 
ATOM      5  C   UNL     1     -35.125  21.331   5.289  0.00  0.00    +0.101 C 
ATOM      6  C   UNL     1     -35.505  23.638   5.855  0.00  0.00    +0.027 C 
ATOM      7  C   UNL     1     -35.233  22.332   6.248  0.00  0.00    -0.015 C 
ATOM      8  O   UNL     1     -35.553  21.775   0.968  0.00  0.00    -0.226 OA
ATOM      9  N   UNL     1     -35.185  20.661   2.994  0.00  0.00    -0.228 N 
ATOM     10  C   UNL     1     -35.314  20.767   1.623  0.00  0.00    +0.407 C 
ATOM     11  H   UNL     1     -34.991  19.759   3.339  0.00  0.00    +0.160 HD
BRANCH  10  12
ATOM     12  O   UNL     1     -35.132  19.529   1.062  0.00  0.00    -0.442 OA
BRANCH  12  13
ATOM     13  C   UNL     1     -33.850  19.283   0.480  0.00  0.00    +0.138 C 
ATOM     14  C   UNL     1     -34.055  18.652  -0.897  0.00  0.00    +0.044 C 
ATOM     15  C   UNL     1     -33.136  20.627   0.355  0.00  0.00    +0.044 C 
ATOM     16  C   UNL     1     -33.071  18.344   1.399  0.00  0.00    +0.044 C 
ENDBRANCH  12  13
ENDBRANCH  10  12
ENDBRANCH   1   4
BRANCH   1  17
ATOM     17  O   UNL     1     -34.782  25.834   3.453  0.00  0.00    -0.369 OA
BRANCH  17  18
ATOM     18  N   UNL     1     -34.319  26.856   4.292  0.00  0.00    -0.079 NA
ATOM     19  C   UNL     1     -33.187  27.351   3.882  0.00  0.00    +0.156 C 
BRANCH  19  24
ATOM     20  N   UNL     1     -32.725  27.246   1.376  0.00  0.00    -0.210 N 
ATOM     21  N   UNL     1     -31.505  26.008   2.673  0.00  0.00    -0.106 NA
ATOM     22  N   UNL     1     -31.885  26.598   0.557  0.00  0.00    -0.043 NA
ATOM     23  N   UNL     1     -31.141  25.843   1.356  0.00  0.00    -0.023 NA
ATOM     24  C   UNL     1     -32.487  26.880   2.662  0.00  0.00    +0.205 A 
ATOM     25  C   UNL     1     -33.697  28.174   0.860  0.00  0.00    +0.157 C 
ENDBRANCH  19  24
BRANCH  19  26
ATOM     26  C   UNL     1     -32.562  28.455   4.676  0.00  0.00    +0.024 C 
ATOM     27  C   UNL     1     -32.391  29.717   4.104  0.00  0.00    +0.002 C 
ATOM     28  C   UNL     1     -32.151  28.224   5.989  0.00  0.00    +0.002 C 
ATOM     29  C   UNL     1     -31.811  30.745   4.845  0.00  0.00    +0.000 C 
ATOM     30  C   UNL     1     -31.570  29.253   6.729  0.00  0.00    +0.000 C 
ATOM     31  C   UNL     1     -31.400  30.514   6.158  0.00  0.00    +0.000 C 
ENDBRANCH  19  26
ENDBRANCH  17  18
ENDBRANCH   1  17
TORSDOF 7
ENDMDL
MODEL 3
REMARK VINA RESULT:      -6.7      4.909      9.412
REMARK  Name = 56945144
REMARK  7 active torsions:
REMARK  status: ('A' for Active; 'I' for Inactive)
REMARK    1  A    between atoms: C_1  and  C_4
REMARK    2  A    between atoms: C_1  and  O_17
REMARK    3  A    between atoms: C_10  and  O_12
REMARK    4  A    between atoms: O_12  and  C_13
REMARK    5  A    between atoms: O_17  and  N_18
REMARK    6  A    between atoms: C_19  and  C_24
REMARK    7  A    between atoms: C_19  and  C_26
REMARK                            x       y       z     vdW  Elec       q    Type
REMARK                         _______ _______ _______ _____ _____    ______ ____
ROOT
ATOM      1  C   UNL     1     -37.692  28.191   0.238  0.00  0.00    +0.297 C 
ENDROOT
BRANCH   1   4
ATOM      2  N   UNL     1     -37.872  26.573   2.031  0.00  0.00    -0.391 NA
ATOM      3  C   UNL     1     -38.611  25.686   2.734  0.00  0.00    +0.169 C 
ATOM      4  C   UNL     1     -38.503  27.209   1.018  0.00  0.00    +0.157 C 
ATOM      5  C   UNL     1     -39.943  25.407   2.474  0.00  0.00    +0.101 C 
ATOM      6  C   UNL     1     -39.829  27.001   0.677  0.00  0.00    +0.027 C 
ATOM      7  C   UNL     1     -40.556  26.081   1.424  0.00  0.00    -0.015 C 
ATOM      8  O   UNL     1     -35.808  25.822   3.806  0.00  0.00    -0.226 OA
ATOM      9  N   UNL     1     -37.997  24.996   3.804  0.00  0.00    -0.228 N 
ATOM     10  C   UNL     1     -36.695  25.104   4.250  0.00  0.00    +0.407 C 
ATOM     11  H   UNL     1     -38.568  24.359   4.291  0.00  0.00    +0.160 HD
BRANCH  10  12
ATOM     12  O   UNL     1     -36.517  24.254   5.311  0.00  0.00    -0.442 OA
BRANCH  12  13
ATOM     13  C   UNL     1     -35.504  23.258   5.159  0.00  0.00    +0.138 C 
ATOM     14  C   UNL     1     -35.759  22.500   3.856  0.00  0.00    +0.044 C 
ATOM     15  C   UNL     1     -34.157  23.976   5.108  0.00  0.00    +0.044 C 
ATOM     16  C   UNL     1     -35.565  22.315   6.359  0.00  0.00    +0.044 C 
ENDBRANCH  12  13
ENDBRANCH  10  12
ENDBRANCH   1   4
BRANCH   1  17
ATOM     17  O   UNL     1     -36.948  29.005   1.136  0.00  0.00    -0.369 OA
BRANCH  17  18
ATOM     18  N   UNL     1     -37.418  30.319   1.017  0.00  0.00    -0.079 NA
ATOM     19  C   UNL     1     -36.615  31.179   1.575  0.00  0.00    +0.156 C 
BRANCH  19  24
ATOM     20  N   UNL     1     -34.159  30.497   1.667  0.00  0.00    -0.210 N 
ATOM     21  N   UNL     1     -35.219  30.682   3.550  0.00  0.00    -0.106 NA
ATOM     22  N   UNL     1     -33.257  30.193   2.611  0.00  0.00    -0.043 NA
ATOM     23  N   UNL     1     -33.911  30.308   3.760  0.00  0.00    -0.023 NA
ATOM     24  C   UNL     1     -35.350  30.793   2.248  0.00  0.00    +0.205 A 
ATOM     25  C   UNL     1     -33.807  30.482   0.271  0.00  0.00    +0.157 C 
ENDBRANCH  19  24
BRANCH  19  26
ATOM     26  C   UNL     1     -36.980  32.629   1.531  0.00  0.00    +0.024 C 
ATOM     27  C   UNL     1     -36.034  33.576   1.135  0.00  0.00    +0.002 C 
ATOM     28  C   UNL     1     -38.267  33.036   1.884  0.00  0.00    +0.002 C 
ATOM     29  C   UNL     1     -36.376  34.927   1.093  0.00  0.00    +0.000 C 
ATOM     30  C   UNL     1     -38.608  34.387   1.842  0.00  0.00    +0.000 C 
ATOM     31  C   UNL     1     -37.663  35.334   1.446  0.00  0.00    +0.000 C 
ENDBRANCH  19  26
ENDBRANCH  17  18
ENDBRANCH   1  17
TORSDOF 7
ENDMDL
MODEL 4
REMARK VINA RESULT:      -6.6      3.330      5.937
REMARK  Name = 56945144
REMARK  7 active torsions:
REMARK  status: ('A' for Active; 'I' for Inactive)
REMARK    1  A    between atoms: C_1  and  C_4
REMARK    2  A    between atoms: C_1  and  O_17
REMARK    3  A    between atoms: C_10  and  O_12
REMARK    4  A    between atoms: O_12  and  C_13
REMARK    5  A    between atoms: O_17  and  N_18
REMARK    6  A    between atoms: C_19  and  C_24
REMARK    7  A    between atoms: C_19  and  C_26
REMARK                            x       y       z     vdW  Elec       q    Type
REMARK                         _______ _______ _______ _____ _____    ______ ____
ROOT
ATOM      1  C   UNL     1     -38.341  26.447   1.624  0.00  0.00    +0.297 C 
ENDROOT
BRANCH   1   4
ATOM      2  N   UNL     1     -40.639  26.576   2.377  0.00  0.00    -0.391 NA
ATOM      3  C   UNL     1     -41.919  26.148   2.302  0.00  0.00    +0.169 C 
ATOM      4  C   UNL     1     -39.756  25.977   1.547  0.00  0.00    +0.157 C 
ATOM      5  C   UNL     1     -42.355  25.155   1.439  0.00  0.00    +0.101 C 
ATOM      6  C   UNL     1     -40.091  24.976   0.649  0.00  0.00    +0.027 C 
ATOM      7  C   UNL     1     -41.418  24.563   0.601  0.00  0.00    -0.015 C 
ATOM      8  O   UNL     1     -41.642  28.314   4.365  0.00  0.00    -0.226 OA
ATOM      9  N   UNL     1     -42.880  26.743   3.150  0.00  0.00    -0.228 N 
ATOM     10  C   UNL     1     -42.688  27.742   4.084  0.00  0.00    +0.407 C 
ATOM     11  H   UNL     1     -43.801  26.404   3.065  0.00  0.00    +0.160 HD
BRANCH  10  12
ATOM     12  O   UNL     1     -43.887  28.023   4.687  0.00  0.00    -0.442 OA
BRANCH  12  13
ATOM     13  C   UNL     1     -44.395  29.345   4.496  0.00  0.00    +0.138 C 
ATOM     14  C   UNL     1     -45.914  29.310   4.659  0.00  0.00    +0.044 C 
ATOM     15  C   UNL     1     -43.760  30.239   5.559  0.00  0.00    +0.044 C 
ATOM     16  C   UNL     1     -44.008  29.817   3.096  0.00  0.00    +0.044 C 
ENDBRANCH  12  13
ENDBRANCH  10  12
ENDBRANCH   1   4
BRANCH   1  17
ATOM     17  O   UNL     1     -37.957  26.560   2.989  0.00  0.00    -0.369 OA
BRANCH  17  18
ATOM     18  N   UNL     1     -37.674  25.274   3.465  0.00  0.00    -0.079 NA
ATOM     19  C   UNL     1     -36.417  25.132   3.774  0.00  0.00    +0.156 C 
BRANCH  19  24
ATOM     20  N   UNL     1     -34.675  26.533   2.546  0.00  0.00    -0.210 N 
ATOM     21  N   UNL     1     -35.110  27.054   4.605  0.00  0.00    -0.106 NA
ATOM     22  N   UNL     1     -33.884  27.579   2.819  0.00  0.00    -0.043 NA
ATOM     23  N   UNL     1     -34.154  27.894   4.081  0.00  0.00    -0.023 NA
ATOM     24  C   UNL     1     -35.418  26.219   3.639  0.00  0.00    +0.205 A 
ATOM     25  C   UNL     1     -34.661  25.910   1.248  0.00  0.00    +0.157 C 
ENDBRANCH  19  24
BRANCH  19  26
ATOM     26  C   UNL     1     -35.957  23.808   4.300  0.00  0.00    +0.024 C 
ATOM     27  C   UNL     1     -35.615  23.672   5.647  0.00  0.00    +0.002 C 
ATOM     28  C   UNL     1     -35.871  22.709   3.445  0.00  0.00    +0.002 C 
ATOM     29  C   UNL     1     -35.188  22.438   6.136  0.00  0.00    +0.000 C 
ATOM     30  C   UNL     1     -35.443  21.476   3.936  0.00  0.00    +0.000 C 
ATOM     31  C   UNL     1     -35.102  21.340   5.282  0.00  0.00    +0.000 C 
ENDBRANCH  19  26
ENDBRANCH  17  18
ENDBRANCH   1  17
TORSDOF 7
ENDMDL
MODEL 5
REMARK VINA RESULT:      -6.6      2.017      7.578
REMARK  Name = 56945144
REMARK  7 active torsions:
REMARK  status: ('A' for Active; 'I' for Inactive)
REMARK    1  A    between atoms: C_1  and  C_4
REMARK    2  A    between atoms: C_1  and  O_17
REMARK    3  A    between atoms: C_10  and  O_12
REMARK    4  A    between atoms: O_12  and  C_13
REMARK    5  A    between atoms: O_17  and  N_18
REMARK    6  A    between atoms: C_19  and  C_24
REMARK    7  A    between atoms: C_19  and  C_26
REMARK                            x       y       z     vdW  Elec       q    Type
REMARK                         _______ _______ _______ _____ _____    ______ ____
ROOT
ATOM      1  C   UNL     1     -36.783  25.251   3.787  0.00  0.00    +0.297 C 
ENDROOT
BRANCH   1   4
ATOM      2  N   UNL     1     -36.060  22.973   3.401  0.00  0.00    -0.391 NA
ATOM      3  C   UNL     1     -35.528  21.821   3.866  0.00  0.00    +0.169 C 
ATOM      4  C   UNL     1     -36.197  23.976   4.296  0.00  0.00    +0.157 C 
ATOM      5  C   UNL     1     -35.127  21.627   5.178  0.00  0.00    +0.101 C 
ATOM      6  C   UNL     1     -35.828  23.883   5.629  0.00  0.00    +0.027 C 
ATOM      7  C   UNL     1     -35.284  22.682   6.070  0.00  0.00    -0.015 C 
ATOM      8  O   UNL     1     -36.179  21.587   0.943  0.00  0.00    -0.226 OA
ATOM      9  N   UNL     1     -35.364  20.743   2.968  0.00  0.00    -0.228 N 
ATOM     10  C   UNL     1     -35.686  20.697   1.625  0.00  0.00    +0.407 C 
ATOM     11  H   UNL     1     -34.973  19.921   3.345  0.00  0.00    +0.160 HD
BRANCH  10  12
ATOM     12  O   UNL     1     -35.363  19.459   1.133  0.00  0.00    -0.442 OA
BRANCH  12  13
ATOM     13  C   UNL     1     -34.111  19.356   0.453  0.00  0.00    +0.138 C 
ATOM     14  C   UNL     1     -33.237  18.345   1.193  0.00  0.00    +0.044 C 
ATOM     15  C   UNL     1     -34.398  18.880  -0.969  0.00  0.00    +0.044 C 
ATOM     16  C   UNL     1     -33.453  20.735   0.435  0.00  0.00    +0.044 C 
ENDBRANCH  12  13
ENDBRANCH  10  12
ENDBRANCH   1   4
BRANCH   1  17
ATOM     17  O   UNL     1     -37.623  24.973   2.674  0.00  0.00    -0.369 OA
BRANCH  17  18
ATOM     18  N   UNL     1     -38.801  25.714   2.826  0.00  0.00    -0.079 NA
ATOM     19  C   UNL     1     -39.847  25.064   2.404  0.00  0.00    +0.156 C 
BRANCH  19  24
ATOM     20  N   UNL     1     -39.480  23.337   0.563  0.00  0.00    -0.210 N 
ATOM     21  N   UNL     1     -40.016  22.605   2.533  0.00  0.00    -0.106 NA
ATOM     22  N   UNL     1     -39.525  22.003   0.443  0.00  0.00    -0.043 NA
ATOM     23  N   UNL     1     -39.854  21.560   1.651  0.00  0.00    -0.023 NA
ATOM     24  C   UNL     1     -39.780  23.695   1.838  0.00  0.00    +0.205 A 
ATOM     25  C   UNL     1     -39.147  24.174  -0.560  0.00  0.00    +0.157 C 
ENDBRANCH  19  24
BRANCH  19  26
ATOM     26  C   UNL     1     -41.186  25.726   2.501  0.00  0.00    +0.024 C 
ATOM     27  C   UNL     1     -41.491  26.525   3.604  0.00  0.00    +0.002 C 
ATOM     28  C   UNL     1     -42.128  25.546   1.489  0.00  0.00    +0.002 C 
ATOM     29  C   UNL     1     -42.738  27.143   3.693  0.00  0.00    +0.000 C 
ATOM     30  C   UNL     1     -43.375  26.164   1.578  0.00  0.00    +0.000 C 
ATOM     31  C   UNL     1     -43.681  26.963   2.680  0.00  0.00    +0.000 C 
ENDBRANCH  19  26
ENDBRANCH  17  18
ENDBRANCH   1  17
TORSDOF 7
ENDMDL
MODEL 6
REMARK VINA RESULT:      -6.5      3.629      7.759
REMARK  Name = 56945144
REMARK  7 active torsions:
REMARK  status: ('A' for Active; 'I' for Inactive)
REMARK    1  A    between atoms: C_1  and  C_4
REMARK    2  A    between atoms: C_1  and  O_17
REMARK    3  A    between atoms: C_10  and  O_12
REMARK    4  A    between atoms: O_12  and  C_13
REMARK    5  A    between atoms: O_17  and  N_18
REMARK    6  A    between atoms: C_19  and  C_24
REMARK    7  A    between atoms: C_19  and  C_26
REMARK                            x       y       z     vdW  Elec       q    Type
REMARK                         _______ _______ _______ _____ _____    ______ ____
ROOT
ATOM      1  C   UNL     1     -35.685  25.269   4.132  0.00  0.00    +0.297 C 
ENDROOT
BRANCH   1   4
ATOM      2  N   UNL     1     -35.422  22.928   3.571  0.00  0.00    -0.391 NA
ATOM      3  C   UNL     1     -35.273  21.643   3.961  0.00  0.00    +0.169 C 
ATOM      4  C   UNL     1     -35.521  23.847   4.557  0.00  0.00    +0.157 C 
ATOM      5  C   UNL     1     -35.216  21.236   5.285  0.00  0.00    +0.101 C 
ATOM      6  C   UNL     1     -35.476  23.544   5.908  0.00  0.00    +0.027 C 
ATOM      7  C   UNL     1     -35.321  22.211   6.270  0.00  0.00    -0.015 C 
ATOM      8  O   UNL     1     -35.318  21.845   0.964  0.00  0.00    -0.226 OA
ATOM      9  N   UNL     1     -35.165  20.644   2.967  0.00  0.00    -0.228 N 
ATOM     10  C   UNL     1     -35.194  20.803   1.596  0.00  0.00    +0.407 C 
ATOM     11  H   UNL     1     -35.057  19.721   3.292  0.00  0.00    +0.160 HD
BRANCH  10  12
ATOM     12  O   UNL     1     -35.058  19.574   1.003  0.00  0.00    -0.442 OA
BRANCH  12  13
ATOM     13  C   UNL     1     -33.774  19.278   0.450  0.00  0.00    +0.138 C 
ATOM     14  C   UNL     1     -33.972  18.622  -0.916  0.00  0.00    +0.044 C 
ATOM     15  C   UNL     1     -33.020  20.598   0.308  0.00  0.00    +0.044 C 
ATOM     16  C   UNL     1     -33.038  18.338   1.405  0.00  0.00    +0.044 C 
ENDBRANCH  12  13
ENDBRANCH  10  12
ENDBRANCH   1   4
BRANCH   1  17
ATOM     17  O   UNL     1     -34.511  25.999   4.466  0.00  0.00    -0.369 OA
BRANCH  17  18
ATOM     18  N   UNL     1     -34.759  27.354   4.210  0.00  0.00    -0.079 NA
ATOM     19  C   UNL     1     -33.890  27.863   3.384  0.00  0.00    +0.156 C 
BRANCH  19  24
ATOM     20  N   UNL     1     -32.790  26.372   1.631  0.00  0.00    -0.210 N 
ATOM     21  N   UNL     1     -31.589  26.970   3.334  0.00  0.00    -0.106 NA
ATOM     22  N   UNL     1     -31.594  25.801   1.436  0.00  0.00    -0.043 NA
ATOM     23  N   UNL     1     -30.863  26.171   2.481  0.00  0.00    -0.023 NA
ATOM     24  C   UNL     1     -32.779  27.081   2.789  0.00  0.00    +0.205 A 
ATOM     25  C   UNL     1     -33.861  26.195   0.685  0.00  0.00    +0.157 C 
ENDBRANCH  19  24
BRANCH  19  26
ATOM     26  C   UNL     1     -34.022  29.306   3.010  0.00  0.00    +0.024 C 
ATOM     27  C   UNL     1     -32.992  30.201   3.305  0.00  0.00    +0.002 C 
ATOM     28  C   UNL     1     -35.173  29.757   2.365  0.00  0.00    +0.002 C 
ATOM     29  C   UNL     1     -33.115  31.545   2.955  0.00  0.00    +0.000 C 
ATOM     30  C   UNL     1     -35.296  31.101   2.015  0.00  0.00    +0.000 C 
ATOM     31  C   UNL     1     -34.267  31.996   2.310  0.00  0.00    +0.000 C 
ENDBRANCH  19  26
ENDBRANCH  17  18
ENDBRANCH   1  17
TORSDOF 7
ENDMDL
MODEL 7
REMARK VINA RESULT:      -6.5      5.044      6.595
REMARK  Name = 56945144
REMARK  7 active torsions:
REMARK  status: ('A' for Active; 'I' for Inactive)
REMARK    1  A    between atoms: C_1  and  C_4
REMARK    2  A    between atoms: C_1  and  O_17
REMARK    3  A    between atoms: C_10  and  O_12
REMARK    4  A    between atoms: O_12  and  C_13
REMARK    5  A    between atoms: O_17  and  N_18
REMARK    6  A    between atoms: C_19  and  C_24
REMARK    7  A    between atoms: C_19  and  C_26
REMARK                            x       y       z     vdW  Elec       q    Type
REMARK                         _______ _______ _______ _____ _____    ______ ____
ROOT
ATOM      1  C   UNL     1     -32.487  27.383   6.589  0.00  0.00    +0.297 C 
ENDROOT
BRANCH   1   4
ATOM      2  N   UNL     1     -32.520  29.372   5.210  0.00  0.00    -0.391 NA
ATOM      3  C   UNL     1     -31.898  30.472   4.730  0.00  0.00    +0.169 C 
ATOM      4  C   UNL     1     -31.804  28.599   6.055  0.00  0.00    +0.157 C 
ATOM      5  C   UNL     1     -30.600  30.834   5.055  0.00  0.00    +0.101 C 
ATOM      6  C   UNL     1     -30.502  28.871   6.443  0.00  0.00    +0.027 C 
ATOM      7  C   UNL     1     -29.896  30.012   5.928  0.00  0.00    -0.015 C 
ATOM      8  O   UNL     1     -34.690  30.269   3.638  0.00  0.00    -0.226 OA
ATOM      9  N   UNL     1     -32.605  31.314   3.842  0.00  0.00    -0.228 N 
ATOM     10  C   UNL     1     -33.897  31.165   3.375  0.00  0.00    +0.407 C 
ATOM     11  H   UNL     1     -32.118  32.105   3.515  0.00  0.00    +0.160 HD
BRANCH  10  12
ATOM     12  O   UNL     1     -34.187  32.207   2.532  0.00  0.00    -0.442 OA
BRANCH  12  13
ATOM     13  C   UNL     1     -34.583  31.853   1.205  0.00  0.00    +0.138 C 
ATOM     14  C   UNL     1     -36.061  31.465   1.225  0.00  0.00    +0.044 C 
ATOM     15  C   UNL     1     -34.359  33.076   0.318  0.00  0.00    +0.044 C 
ATOM     16  C   UNL     1     -33.719  30.683   0.736  0.00  0.00    +0.044 C 
ENDBRANCH  12  13
ENDBRANCH  10  12
ENDBRANCH   1   4
BRANCH   1  17
ATOM     17  O   UNL     1     -33.667  27.136   5.835  0.00  0.00    -0.369 OA
BRANCH  17  18
ATOM     18  N   UNL     1     -33.935  25.763   5.891  0.00  0.00    -0.079 NA
ATOM     19  C   UNL     1     -34.463  25.321   4.786  0.00  0.00    +0.156 C 
BRANCH  19  24
ATOM     20  N   UNL     1     -33.850  26.609   2.671  0.00  0.00    -0.210 N 
ATOM     21  N   UNL     1     -35.918  26.675   3.322  0.00  0.00    -0.106 NA
ATOM     22  N   UNL     1     -34.478  27.377   1.771  0.00  0.00    -0.043 NA
ATOM     23  N   UNL     1     -35.743  27.414   2.174  0.00  0.00    -0.023 NA
ATOM     24  C   UNL     1     -34.734  26.185   3.612  0.00  0.00    +0.205 A 
ATOM     25  C   UNL     1     -32.441  26.334   2.560  0.00  0.00    +0.157 C 
ENDBRANCH  19  24
BRANCH  19  26
ATOM     26  C   UNL     1     -34.806  23.867   4.691  0.00  0.00    +0.024 C 
ATOM     27  C   UNL     1     -34.825  23.077   5.841  0.00  0.00    +0.002 C 
ATOM     28  C   UNL     1     -35.110  23.302   3.453  0.00  0.00    +0.002 C 
ATOM     29  C   UNL     1     -35.147  21.723   5.752  0.00  0.00    +0.000 C 
ATOM     30  C   UNL     1     -35.431  21.947   3.364  0.00  0.00    +0.000 C 
ATOM     31  C   UNL     1     -35.450  21.158   4.514  0.00  0.00    +0.000 C 
ENDBRANCH  19  26
ENDBRANCH  17  18
ENDBRANCH   1  17
TORSDOF 7
ENDMDL
MODEL 8
REMARK VINA RESULT:      -6.5      3.151      4.337
REMARK  Name = 56945144
REMARK  7 active torsions:
REMARK  status: ('A' for Active; 'I' for Inactive)
REMARK    1  A    between atoms: C_1  and  C_4
REMARK    2  A    between atoms: C_1  and  O_17
REMARK    3  A    between atoms: C_10  and  O_12
REMARK    4  A    between atoms: O_12  and  C_13
REMARK    5  A    between atoms: O_17  and  N_18
REMARK    6  A    between atoms: C_19  and  C_24
REMARK    7  A    between atoms: C_19  and  C_26
REMARK                            x       y       z     vdW  Elec       q    Type
REMARK                         _______ _______ _______ _____ _____    ______ ____
ROOT
ATOM      1  C   UNL     1     -36.272  21.628   2.521  0.00  0.00    +0.297 C 
ENDROOT
BRANCH   1   4
ATOM      2  N   UNL     1     -35.478  23.601   3.677  0.00  0.00    -0.391 NA
ATOM      3  C   UNL     1     -35.017  24.190   4.803  0.00  0.00    +0.169 C 
ATOM      4  C   UNL     1     -35.761  22.282   3.762  0.00  0.00    +0.157 C 
ATOM      5  C   UNL     1     -34.827  23.525   6.004  0.00  0.00    +0.101 C 
ATOM      6  C   UNL     1     -35.606  21.528   4.913  0.00  0.00    +0.027 C 
ATOM      7  C   UNL     1     -35.130  22.169   6.051  0.00  0.00    -0.015 C 
ATOM      8  O   UNL     1     -35.196  26.181   2.561  0.00  0.00    -0.226 OA
ATOM      9  N   UNL     1     -34.707  25.568   4.766  0.00  0.00    -0.228 N 
ATOM     10  C   UNL     1     -34.812  26.435   3.695  0.00  0.00    +0.407 C 
ATOM     11  H   UNL     1     -34.374  25.959   5.606  0.00  0.00    +0.160 HD
BRANCH  10  12
ATOM     12  O   UNL     1     -34.406  27.683   4.093  0.00  0.00    -0.442 OA
BRANCH  12  13
ATOM     13  C   UNL     1     -33.041  28.016   3.830  0.00  0.00    +0.138 C 
ATOM     14  C   UNL     1     -32.998  29.379   3.141  0.00  0.00    +0.044 C 
ATOM     15  C   UNL     1     -32.314  28.068   5.172  0.00  0.00    +0.044 C 
ATOM     16  C   UNL     1     -32.441  26.933   2.935  0.00  0.00    +0.044 C 
ENDBRANCH  12  13
ENDBRANCH  10  12
ENDBRANCH   1   4
BRANCH   1  17
ATOM     17  O   UNL     1     -36.022  20.230   2.588  0.00  0.00    -0.369 OA
BRANCH  17  18
ATOM     18  N   UNL     1     -34.649  20.028   2.399  0.00  0.00    -0.079 NA
ATOM     19  C   UNL     1     -34.382  19.553   1.217  0.00  0.00    +0.156 C 
BRANCH  19  24
ATOM     20  N   UNL     1     -35.904  20.115  -0.752  0.00  0.00    -0.210 N 
ATOM     21  N   UNL     1     -36.044  18.120   0.086  0.00  0.00    -0.106 NA
ATOM     22  N   UNL     1     -36.841  19.492  -1.480  0.00  0.00    -0.043 NA
ATOM     23  N   UNL     1     -36.923  18.272  -0.963  0.00  0.00    -0.023 NA
ATOM     24  C   UNL     1     -35.424  19.272   0.199  0.00  0.00    +0.205 A 
ATOM     25  C   UNL     1     -35.534  21.478  -1.027  0.00  0.00    +0.157 C 
ENDBRANCH  19  24
BRANCH  19  26
ATOM     26  C   UNL     1     -32.953  19.283   0.862  0.00  0.00    +0.024 C 
ATOM     27  C   UNL     1     -32.347  18.091   1.262  0.00  0.00    +0.002 C 
ATOM     28  C   UNL     1     -32.227  20.223   0.130  0.00  0.00    +0.002 C 
ATOM     29  C   UNL     1     -31.016  17.840   0.929  0.00  0.00    +0.000 C 
ATOM     30  C   UNL     1     -30.896  19.971  -0.202  0.00  0.00    +0.000 C 
ATOM     31  C   UNL     1     -30.290  18.780   0.197  0.00  0.00    +0.000 C 
ENDBRANCH  19  26
ENDBRANCH  17  18
ENDBRANCH   1  17
TORSDOF 7
ENDMDL
MODEL 9
REMARK VINA RESULT:      -6.5      3.508      6.388
REMARK  Name = 56945144
REMARK  7 active torsions:
REMARK  status: ('A' for Active; 'I' for Inactive)
REMARK    1  A    between atoms: C_1  and  C_4
REMARK    2  A    between atoms: C_1  and  O_17
REMARK    3  A    between atoms: C_10  and  O_12
REMARK    4  A    between atoms: O_12  and  C_13
REMARK    5  A    between atoms: O_17  and  N_18
REMARK    6  A    between atoms: C_19  and  C_24
REMARK    7  A    between atoms: C_19  and  C_26
REMARK                            x       y       z     vdW  Elec       q    Type
REMARK                         _______ _______ _______ _____ _____    ______ ____
ROOT
ATOM      1  C   UNL     1     -39.894  26.489   1.188  0.00  0.00    +0.297 C 
ENDROOT
BRANCH   1   4
ATOM      2  N   UNL     1     -41.863  27.009   2.498  0.00  0.00    -0.391 NA
ATOM      3  C   UNL     1     -43.167  26.795   2.782  0.00  0.00    +0.169 C 
ATOM      4  C   UNL     1     -41.334  26.256   1.507  0.00  0.00    +0.157 C 
ATOM      5  C   UNL     1     -43.963  25.870   2.125  0.00  0.00    +0.101 C 
ATOM      6  C   UNL     1     -42.043  25.306   0.791  0.00  0.00    +0.027 C 
ATOM      7  C   UNL     1     -43.382  25.116   1.112  0.00  0.00    -0.015 C 
ATOM      8  O   UNL     1     -42.026  28.927   4.565  0.00  0.00    -0.226 OA
ATOM      9  N   UNL     1     -43.767  27.557   3.810  0.00  0.00    -0.228 N 
ATOM     10  C   UNL     1     -43.184  28.529   4.599  0.00  0.00    +0.407 C 
ATOM     11  H   UNL     1     -44.718  27.372   3.986  0.00  0.00    +0.160 HD
BRANCH  10  12
ATOM     12  O   UNL     1     -44.123  29.015   5.472  0.00  0.00    -0.442 OA
BRANCH  12  13
ATOM     13  C   UNL     1     -44.724  30.263   5.122  0.00  0.00    +0.138 C 
ATOM     14  C   UNL     1     -46.205  30.212   5.495  0.00  0.00    +0.044 C 
ATOM     15  C   UNL     1     -44.008  31.356   5.914  0.00  0.00    +0.044 C 
ATOM     16  C   UNL     1     -44.547  30.484   3.621  0.00  0.00    +0.044 C 
ENDBRANCH  12  13
ENDBRANCH  10  12
ENDBRANCH   1   4
BRANCH   1  17
ATOM     17  O   UNL     1     -39.233  25.238   1.054  0.00  0.00    -0.369 OA
BRANCH  17  18
ATOM     18  N   UNL     1     -38.238  25.168   2.038  0.00  0.00    -0.079 NA
ATOM     19  C   UNL     1     -38.062  23.953   2.471  0.00  0.00    +0.156 C 
BRANCH  19  24
ATOM     20  N   UNL     1     -38.523  21.989   0.909  0.00  0.00    -0.210 N 
ATOM     21  N   UNL     1     -39.954  22.368   2.493  0.00  0.00    -0.106 NA
ATOM     22  N   UNL     1     -39.465  21.047   0.765  0.00  0.00    -0.043 NA
ATOM     23  N   UNL     1     -40.338  21.283   1.737  0.00  0.00    -0.023 NA
ATOM     24  C   UNL     1     -38.828  22.789   1.963  0.00  0.00    +0.205 A 
ATOM     25  C   UNL     1     -37.391  22.051   0.021  0.00  0.00    +0.157 C 
ENDBRANCH  19  24
BRANCH  19  26
ATOM     26  C   UNL     1     -37.028  23.715   3.528  0.00  0.00    +0.024 C 
ATOM     27  C   UNL     1     -36.678  24.742   4.405  0.00  0.00    +0.002 C 
ATOM     28  C   UNL     1     -36.417  22.466   3.637  0.00  0.00    +0.002 C 
ATOM     29  C   UNL     1     -35.716  24.519   5.390  0.00  0.00    +0.000 C 
ATOM     30  C   UNL     1     -35.455  22.244   4.622  0.00  0.00    +0.000 C 
ATOM     31  C   UNL     1     -35.105  23.270   5.499  0.00  0.00    +0.000 C 
ENDBRANCH  19  26
ENDBRANCH  17  18
ENDBRANCH   1  17
TORSDOF 7
ENDMDL
