MODEL 1
REMARK VINA RESULT:      -6.5      0.000      0.000
REMARK  Name = 194777
REMARK  10 active torsions:
REMARK  status: ('A' for Active; 'I' for Inactive)
REMARK    1  A    between atoms: N_2  and  C_17
REMARK    2  A    between atoms: C_3  and  C_5
REMARK    3  A    between atoms: C_5  and  C_6
REMARK    4  A    between atoms: C_5  and  C_10
REMARK    5  A    between atoms: C_6  and  C_7
REMARK    6  A    between atoms: C_10  and  C_13
REMARK    7  A    between atoms: N_12  and  O_15
REMARK    8  A    between atoms: C_17  and  C_20
REMARK    9  A    between atoms: C_17  and  C_23
REMARK   10  A    between atoms: C_23  and  C_24
REMARK                            x       y       z     vdW  Elec       q    Type
REMARK                         _______ _______ _______ _____ _____    ______ ____
ROOT
ATOM      1  O   UNL     1     -33.158  26.100   3.780  0.00  0.00    -0.275 OA
ATOM      2  N   UNL     1     -35.198  27.202   3.750  0.00  0.00    -0.298 N 
ATOM      3  C   UNL     1     -33.818  27.137   3.840  0.00  0.00    +0.223 C 
ATOM      4  H   UNL     1     -35.635  28.082   3.809  0.00  0.00    +0.150 HD
ENDROOT
BRANCH   3   5
ATOM      5  C   UNL     1     -33.138  28.494   4.024  0.00  0.00    +0.086 C 
BRANCH   5   6
ATOM      6  C   UNL     1     -33.463  29.472   2.878  0.00  0.00    +0.010 C 
BRANCH   6   7
ATOM      7  C   UNL     1     -34.056  30.827   3.323  0.00  0.00    +0.000 C 
ATOM      8  C   UNL     1     -35.517  30.993   2.902  0.00  0.00    +0.000 C 
ATOM      9  C   UNL     1     -33.220  31.970   2.741  0.00  0.00    +0.000 C 
ENDBRANCH   6   7
ENDBRANCH   5   6
BRANCH   5  10
ATOM     10  C   UNL     1     -31.618  28.304   4.177  0.00  0.00    +0.096 C 
BRANCH  10  13
ATOM     11  O   UNL     1     -30.145  27.917   6.032  0.00  0.00    -0.273 OA
ATOM     12  N   UNL     1     -32.049  29.183   6.377  0.00  0.00    -0.197 N 
ATOM     13  C   UNL     1     -31.177  28.443   5.620  0.00  0.00    +0.245 C 
ATOM     14  H   UNL     1     -32.864  29.582   5.995  0.00  0.00    +0.182 HD
BRANCH  12  15
ATOM     15  O   UNL     1     -31.707  29.335   7.727  0.00  0.00    -0.295 OA
ATOM     16  H   UNL     1     -32.516  29.413   8.257  0.00  0.00    +0.241 HD
ENDBRANCH  12  15
ENDBRANCH  10  13
ENDBRANCH   5  10
ENDBRANCH   3   5
BRANCH   2  17
ATOM     17  C   UNL     1     -36.019  26.027   3.572  0.00  0.00    +0.153 C 
BRANCH  17  20
ATOM     18  O   UNL     1     -37.305  27.222   1.900  0.00  0.00    -0.273 OA
ATOM     19  N   UNL     1     -38.427  25.898   3.444  0.00  0.00    -0.301 N 
ATOM     20  C   UNL     1     -37.300  26.474   2.875  0.00  0.00    +0.241 C 
ATOM     21  C   UNL     1     -39.767  26.114   2.944  0.00  0.00    +0.111 C 
ATOM     22  H   UNL     1     -38.310  25.312   4.226  0.00  0.00    +0.150 HD
ENDBRANCH  17  20
BRANCH  17  23
ATOM     23  C   UNL     1     -36.349  25.345   4.905  0.00  0.00    +0.055 C 
BRANCH  23  24
ATOM     24  C   UNL     1     -35.898  23.905   4.951  0.00  0.00    -0.020 C 
ATOM     25  C   UNL     1     -35.971  23.133   3.802  0.00  0.00    -0.004 C 
ATOM     26  C   UNL     1     -35.419  23.381   6.141  0.00  0.00    -0.004 C 
ATOM     27  C   UNL     1     -35.555  21.803   3.846  0.00  0.00    -0.000 C 
ATOM     28  C   UNL     1     -35.001  22.051   6.184  0.00  0.00    -0.000 C 
ATOM     29  C   UNL     1     -35.070  21.261   5.036  0.00  0.00    -0.000 C 
ENDBRANCH  23  24
ENDBRANCH  17  23
ENDBRANCH   2  17
TORSDOF 10
ENDMDL
MODEL 2
REMARK VINA RESULT:      -6.4      4.908      7.949
REMARK  Name = 194777
REMARK  10 active torsions:
REMARK  status: ('A' for Active; 'I' for Inactive)
REMARK    1  A    between atoms: N_2  and  C_17
REMARK    2  A    between atoms: C_3  and  C_5
REMARK    3  A    between atoms: C_5  and  C_6
REMARK    4  A    between atoms: C_5  and  C_10
REMARK    5  A    between atoms: C_6  and  C_7
REMARK    6  A    between atoms: C_10  and  C_13
REMARK    7  A    between atoms: N_12  and  O_15
REMARK    8  A    between atoms: C_17  and  C_20
REMARK    9  A    between atoms: C_17  and  C_23
REMARK   10  A    between atoms: C_23  and  C_24
REMARK                            x       y       z     vdW  Elec       q    Type
REMARK                         _______ _______ _______ _____ _____    ______ ____
ROOT
ATOM      1  O   UNL     1     -34.603  22.632   0.814  0.00  0.00    -0.275 OA
ATOM      2  N   UNL     1     -35.186  20.635   1.838  0.00  0.00    -0.298 N 
ATOM      3  C   UNL     1     -35.122  22.015   1.744  0.00  0.00    +0.223 C 
ATOM      4  H   UNL     1     -35.623  20.234   2.623  0.00  0.00    +0.150 HD
ENDROOT
BRANCH   3   5
ATOM      5  C   UNL     1     -35.766  22.753   2.918  0.00  0.00    +0.086 C 
BRANCH   5   6
ATOM      6  C   UNL     1     -35.556  22.020   4.258  0.00  0.00    +0.010 C 
BRANCH   6   7
ATOM      7  C   UNL     1     -35.665  22.910   5.514  0.00  0.00    +0.000 C 
ATOM      8  C   UNL     1     -34.841  24.193   5.396  0.00  0.00    +0.000 C 
ATOM      9  C   UNL     1     -35.212  22.119   6.745  0.00  0.00    +0.000 C 
ENDBRANCH   6   7
ENDBRANCH   5   6
BRANCH   5  10
ATOM     10  C   UNL     1     -37.263  22.980   2.638  0.00  0.00    +0.096 C 
BRANCH  10  13
ATOM     11  O   UNL     1     -37.348  25.134   1.584  0.00  0.00    -0.273 OA
ATOM     12  N   UNL     1     -38.197  24.916   3.723  0.00  0.00    -0.197 N 
ATOM     13  C   UNL     1     -37.606  24.454   2.575  0.00  0.00    +0.245 C 
ATOM     14  H   UNL     1     -38.381  24.327   4.490  0.00  0.00    +0.182 HD
BRANCH  12  15
ATOM     15  O   UNL     1     -38.524  26.279   3.736  0.00  0.00    -0.295 OA
ATOM     16  H   UNL     1     -38.023  26.737   3.044  0.00  0.00    +0.241 HD
ENDBRANCH  12  15
ENDBRANCH  10  13
ENDBRANCH   5  10
ENDBRANCH   3   5
BRANCH   2  17
ATOM     17  C   UNL     1     -34.635  19.763   0.827  0.00  0.00    +0.153 C 
BRANCH  17  20
ATOM     18  O   UNL     1     -36.914  19.345   0.112  0.00  0.00    -0.273 OA
ATOM     19  N   UNL     1     -35.371  17.612   0.012  0.00  0.00    -0.301 N 
ATOM     20  C   UNL     1     -35.780  18.907   0.297  0.00  0.00    +0.241 C 
ATOM     21  C   UNL     1     -36.246  16.608  -0.549  0.00  0.00    +0.111 C 
ATOM     22  H   UNL     1     -34.436  17.364   0.200  0.00  0.00    +0.150 HD
ENDBRANCH  17  20
BRANCH  17  23
ATOM     23  C   UNL     1     -33.516  18.873   1.379  0.00  0.00    +0.055 C 
BRANCH  23  24
ATOM     24  C   UNL     1     -32.180  19.144   0.730  0.00  0.00    -0.020 C 
ATOM     25  C   UNL     1     -31.998  20.315   0.012  0.00  0.00    -0.004 C 
ATOM     26  C   UNL     1     -31.159  18.217   0.866  0.00  0.00    -0.004 C 
ATOM     27  C   UNL     1     -30.764  20.565  -0.587  0.00  0.00    -0.000 C 
ATOM     28  C   UNL     1     -29.924  18.468   0.268  0.00  0.00    -0.000 C 
ATOM     29  C   UNL     1     -29.726  19.642  -0.459  0.00  0.00    -0.000 C 
ENDBRANCH  23  24
ENDBRANCH  17  23
ENDBRANCH   2  17
TORSDOF 10
ENDMDL
MODEL 3
REMARK VINA RESULT:      -6.3      5.451      8.390
REMARK  Name = 194777
REMARK  10 active torsions:
REMARK  status: ('A' for Active; 'I' for Inactive)
REMARK    1  A    between atoms: N_2  and  C_17
REMARK    2  A    between atoms: C_3  and  C_5
REMARK    3  A    between atoms: C_5  and  C_6
REMARK    4  A    between atoms: C_5  and  C_10
REMARK    5  A    between atoms: C_6  and  C_7
REMARK    6  A    between atoms: C_10  and  C_13
REMARK    7  A    between atoms: N_12  and  O_15
REMARK    8  A    between atoms: C_17  and  C_20
REMARK    9  A    between atoms: C_17  and  C_23
REMARK   10  A    between atoms: C_23  and  C_24
REMARK                            x       y       z     vdW  Elec       q    Type
REMARK                         _______ _______ _______ _____ _____    ______ ____
ROOT
ATOM      1  O   UNL     1     -35.498  20.553   3.125  0.00  0.00    -0.275 OA
ATOM      2  N   UNL     1     -35.337  21.195   0.903  0.00  0.00    -0.298 N 
ATOM      3  C   UNL     1     -35.589  21.410   2.247  0.00  0.00    +0.223 C 
ATOM      4  H   UNL     1     -35.438  21.947   0.276  0.00  0.00    +0.150 HD
ENDROOT
BRANCH   3   5
ATOM      5  C   UNL     1     -36.002  22.843   2.585  0.00  0.00    +0.086 C 
BRANCH   5   6
ATOM      6  C   UNL     1     -35.103  23.472   3.667  0.00  0.00    +0.010 C 
BRANCH   6   7
ATOM      7  C   UNL     1     -35.769  23.650   5.049  0.00  0.00    +0.000 C 
ATOM      8  C   UNL     1     -35.585  25.060   5.611  0.00  0.00    +0.000 C 
ATOM      9  C   UNL     1     -35.194  22.626   6.032  0.00  0.00    +0.000 C 
ENDBRANCH   6   7
ENDBRANCH   5   6
BRANCH   5  10
ATOM     10  C   UNL     1     -37.483  22.878   3.004  0.00  0.00    +0.096 C 
BRANCH  10  13
ATOM     11  O   UNL     1     -38.539  22.959   0.851  0.00  0.00    -0.273 OA
ATOM     12  N   UNL     1     -39.008  21.176   2.246  0.00  0.00    -0.197 N 
ATOM     13  C   UNL     1     -38.390  22.353   1.910  0.00  0.00    +0.245 C 
ATOM     14  H   UNL     1     -38.852  20.732   3.111  0.00  0.00    +0.182 HD
BRANCH  12  15
ATOM     15  O   UNL     1     -39.875  20.644   1.283  0.00  0.00    -0.295 OA
ATOM     16  H   UNL     1     -40.783  20.658   1.624  0.00  0.00    +0.241 HD
ENDBRANCH  12  15
ENDBRANCH  10  13
ENDBRANCH   5  10
ENDBRANCH   3   5
BRANCH   2  17
ATOM     17  C   UNL     1     -34.932  19.908   0.387  0.00  0.00    +0.153 C 
BRANCH  17  20
ATOM     18  O   UNL     1     -37.319  19.603   0.085  0.00  0.00    -0.273 OA
ATOM     19  N   UNL     1     -35.929  17.744  -0.009  0.00  0.00    -0.301 N 
ATOM     20  C   UNL     1     -36.202  19.095   0.156  0.00  0.00    +0.241 C 
ATOM     21  C   UNL     1     -36.948  16.758  -0.291  0.00  0.00    +0.111 C 
ATOM     22  H   UNL     1     -34.995  17.442   0.068  0.00  0.00    +0.150 HD
ENDBRANCH  17  20
BRANCH  17  23
ATOM     23  C   UNL     1     -33.994  19.169   1.348  0.00  0.00    +0.055 C 
BRANCH  23  24
ATOM     24  C   UNL     1     -32.573  19.105   0.843  0.00  0.00    -0.020 C 
ATOM     25  C   UNL     1     -31.790  18.003   1.152  0.00  0.00    -0.004 C 
ATOM     26  C   UNL     1     -32.076  20.148   0.077  0.00  0.00    -0.004 C 
ATOM     27  C   UNL     1     -30.478  17.945   0.685  0.00  0.00    -0.000 C 
ATOM     28  C   UNL     1     -30.763  20.088  -0.391  0.00  0.00    -0.000 C 
ATOM     29  C   UNL     1     -29.964  18.987  -0.086  0.00  0.00    -0.000 C 
ENDBRANCH  23  24
ENDBRANCH  17  23
ENDBRANCH   2  17
TORSDOF 10
ENDMDL
MODEL 4
REMARK VINA RESULT:      -6.3      3.900      6.238
REMARK  Name = 194777
REMARK  10 active torsions:
REMARK  status: ('A' for Active; 'I' for Inactive)
REMARK    1  A    between atoms: N_2  and  C_17
REMARK    2  A    between atoms: C_3  and  C_5
REMARK    3  A    between atoms: C_5  and  C_6
REMARK    4  A    between atoms: C_5  and  C_10
REMARK    5  A    between atoms: C_6  and  C_7
REMARK    6  A    between atoms: C_10  and  C_13
REMARK    7  A    between atoms: N_12  and  O_15
REMARK    8  A    between atoms: C_17  and  C_20
REMARK    9  A    between atoms: C_17  and  C_23
REMARK   10  A    between atoms: C_23  and  C_24
REMARK                            x       y       z     vdW  Elec       q    Type
REMARK                         _______ _______ _______ _____ _____    ______ ____
ROOT
ATOM      1  O   UNL     1     -34.004  23.775   1.111  0.00  0.00    -0.275 OA
ATOM      2  N   UNL     1     -35.624  22.412   2.056  0.00  0.00    -0.298 N 
ATOM      3  C   UNL     1     -34.871  23.569   1.960  0.00  0.00    +0.223 C 
ATOM      4  H   UNL     1     -36.296  22.342   2.772  0.00  0.00    +0.150 HD
ENDROOT
BRANCH   3   5
ATOM      5  C   UNL     1     -35.202  24.621   3.019  0.00  0.00    +0.086 C 
BRANCH   5   6
ATOM      6  C   UNL     1     -33.948  25.107   3.774  0.00  0.00    +0.010 C 
BRANCH   6   7
ATOM      7  C   UNL     1     -34.125  26.428   4.553  0.00  0.00    +0.000 C 
ATOM      8  C   UNL     1     -33.116  27.497   4.132  0.00  0.00    +0.000 C 
ATOM      9  C   UNL     1     -33.994  26.159   6.055  0.00  0.00    +0.000 C 
ENDBRANCH   6   7
ENDBRANCH   5   6
BRANCH   5  10
ATOM     10  C   UNL     1     -36.259  24.072   3.995  0.00  0.00    +0.096 C 
BRANCH  10  13
ATOM     11  O   UNL     1     -38.530  23.823   3.260  0.00  0.00    -0.273 OA
ATOM     12  N   UNL     1     -37.781  25.932   3.843  0.00  0.00    -0.197 N 
ATOM     13  C   UNL     1     -37.647  24.578   3.662  0.00  0.00    +0.245 C 
ATOM     14  H   UNL     1     -37.038  26.491   4.168  0.00  0.00    +0.182 HD
BRANCH  12  15
ATOM     15  O   UNL     1     -39.038  26.467   3.536  0.00  0.00    -0.295 OA
ATOM     16  H   UNL     1     -39.280  26.224   2.628  0.00  0.00    +0.241 HD
ENDBRANCH  12  15
ENDBRANCH  10  13
ENDBRANCH   5  10
ENDBRANCH   3   5
BRANCH   2  17
ATOM     17  C   UNL     1     -35.460  21.303   1.145  0.00  0.00    +0.153 C 
BRANCH  17  20
ATOM     18  O   UNL     1     -37.011  20.268  -0.404  0.00  0.00    -0.273 OA
ATOM     19  N   UNL     1     -37.857  21.494   1.378  0.00  0.00    -0.301 N 
ATOM     20  C   UNL     1     -36.841  20.965   0.594  0.00  0.00    +0.241 C 
ATOM     21  C   UNL     1     -39.261  21.283   1.108  0.00  0.00    +0.111 C 
ATOM     22  H   UNL     1     -37.608  22.041   2.159  0.00  0.00    +0.150 HD
ENDBRANCH  17  20
BRANCH  17  23
ATOM     23  C   UNL     1     -34.847  20.077   1.831  0.00  0.00    +0.055 C 
BRANCH  23  24
ATOM     24  C   UNL     1     -33.516  19.681   1.239  0.00  0.00    -0.020 C 
ATOM     25  C   UNL     1     -32.974  18.444   1.549  0.00  0.00    -0.004 C 
ATOM     26  C   UNL     1     -32.860  20.562   0.393  0.00  0.00    -0.004 C 
ATOM     27  C   UNL     1     -31.745  18.078   1.002  0.00  0.00    -0.000 C 
ATOM     28  C   UNL     1     -31.630  20.196  -0.155  0.00  0.00    -0.000 C 
ATOM     29  C   UNL     1     -31.073  18.954   0.149  0.00  0.00    -0.000 C 
ENDBRANCH  23  24
ENDBRANCH  17  23
ENDBRANCH   2  17
TORSDOF 10
ENDMDL
MODEL 5
REMARK VINA RESULT:      -6.3      4.499      7.055
REMARK  Name = 194777
REMARK  10 active torsions:
REMARK  status: ('A' for Active; 'I' for Inactive)
REMARK    1  A    between atoms: N_2  and  C_17
REMARK    2  A    between atoms: C_3  and  C_5
REMARK    3  A    between atoms: C_5  and  C_6
REMARK    4  A    between atoms: C_5  and  C_10
REMARK    5  A    between atoms: C_6  and  C_7
REMARK    6  A    between atoms: C_10  and  C_13
REMARK    7  A    between atoms: N_12  and  O_15
REMARK    8  A    between atoms: C_17  and  C_20
REMARK    9  A    between atoms: C_17  and  C_23
REMARK   10  A    between atoms: C_23  and  C_24
REMARK                            x       y       z     vdW  Elec       q    Type
REMARK                         _______ _______ _______ _____ _____    ______ ____
ROOT
ATOM      1  O   UNL     1     -34.678  23.132   0.694  0.00  0.00    -0.275 OA
ATOM      2  N   UNL     1     -35.253  21.348   2.059  0.00  0.00    -0.298 N 
ATOM      3  C   UNL     1     -35.088  22.691   1.768  0.00  0.00    +0.223 C 
ATOM      4  H   UNL     1     -35.588  21.094   2.949  0.00  0.00    +0.150 HD
ENDROOT
BRANCH   3   5
ATOM      5  C   UNL     1     -35.464  23.631   2.913  0.00  0.00    +0.086 C 
BRANCH   5   6
ATOM      6  C   UNL     1     -36.219  22.903   4.044  0.00  0.00    +0.010 C 
BRANCH   6   7
ATOM      7  C   UNL     1     -35.631  23.103   5.457  0.00  0.00    +0.000 C 
ATOM      8  C   UNL     1     -34.589  24.221   5.505  0.00  0.00    +0.000 C 
ATOM      9  C   UNL     1     -35.002  21.793   5.941  0.00  0.00    +0.000 C 
ENDBRANCH   6   7
ENDBRANCH   5   6
BRANCH   5  10
ATOM     10  C   UNL     1     -36.283  24.818   2.373  0.00  0.00    +0.096 C 
BRANCH  10  13
ATOM     11  O   UNL     1     -34.563  26.364   1.735  0.00  0.00    -0.273 OA
ATOM     12  N   UNL     1     -35.992  26.948   3.456  0.00  0.00    -0.197 N 
ATOM     13  C   UNL     1     -35.516  26.120   2.471  0.00  0.00    +0.245 C 
ATOM     14  H   UNL     1     -36.762  26.702   4.019  0.00  0.00    +0.182 HD
BRANCH  12  15
ATOM     15  O   UNL     1     -35.315  28.165   3.612  0.00  0.00    -0.295 OA
ATOM     16  H   UNL     1     -35.955  28.868   3.801  0.00  0.00    +0.241 HD
ENDBRANCH  12  15
ENDBRANCH  10  13
ENDBRANCH   5  10
ENDBRANCH   3   5
BRANCH   2  17
ATOM     17  C   UNL     1     -34.953  20.306   1.105  0.00  0.00    +0.153 C 
BRANCH  17  20
ATOM     18  O   UNL     1     -37.347  20.261   0.725  0.00  0.00    -0.273 OA
ATOM     19  N   UNL     1     -36.109  18.341   0.308  0.00  0.00    -0.301 N 
ATOM     20  C   UNL     1     -36.277  19.657   0.715  0.00  0.00    +0.241 C 
ATOM     21  C   UNL     1     -37.195  17.510  -0.161  0.00  0.00    +0.111 C 
ATOM     22  H   UNL     1     -35.204  17.952   0.339  0.00  0.00    +0.150 HD
ENDBRANCH  17  20
BRANCH  17  23
ATOM     23  C   UNL     1     -33.995  19.256   1.678  0.00  0.00    +0.055 C 
BRANCH  23  24
ATOM     24  C   UNL     1     -32.654  19.249   0.985  0.00  0.00    -0.020 C 
ATOM     25  C   UNL     1     -32.287  20.333   0.203  0.00  0.00    -0.004 C 
ATOM     26  C   UNL     1     -31.813  18.158   1.143  0.00  0.00    -0.004 C 
ATOM     27  C   UNL     1     -31.048  20.326  -0.437  0.00  0.00    -0.000 C 
ATOM     28  C   UNL     1     -30.573  18.153   0.504  0.00  0.00    -0.000 C 
ATOM     29  C   UNL     1     -30.190  19.236  -0.287  0.00  0.00    -0.000 C 
ENDBRANCH  23  24
ENDBRANCH  17  23
ENDBRANCH   2  17
TORSDOF 10
ENDMDL
MODEL 6
REMARK VINA RESULT:      -6.2      4.278      6.717
REMARK  Name = 194777
REMARK  10 active torsions:
REMARK  status: ('A' for Active; 'I' for Inactive)
REMARK    1  A    between atoms: N_2  and  C_17
REMARK    2  A    between atoms: C_3  and  C_5
REMARK    3  A    between atoms: C_5  and  C_6
REMARK    4  A    between atoms: C_5  and  C_10
REMARK    5  A    between atoms: C_6  and  C_7
REMARK    6  A    between atoms: C_10  and  C_13
REMARK    7  A    between atoms: N_12  and  O_15
REMARK    8  A    between atoms: C_17  and  C_20
REMARK    9  A    between atoms: C_17  and  C_23
REMARK   10  A    between atoms: C_23  and  C_24
REMARK                            x       y       z     vdW  Elec       q    Type
REMARK                         _______ _______ _______ _____ _____    ______ ____
ROOT
ATOM      1  O   UNL     1     -34.323  23.641   1.154  0.00  0.00    -0.275 OA
ATOM      2  N   UNL     1     -35.932  22.277   2.118  0.00  0.00    -0.298 N 
ATOM      3  C   UNL     1     -35.191  23.441   2.005  0.00  0.00    +0.223 C 
ATOM      4  H   UNL     1     -36.605  22.212   2.834  0.00  0.00    +0.150 HD
ENDROOT
BRANCH   3   5
ATOM      5  C   UNL     1     -35.535  24.506   3.045  0.00  0.00    +0.086 C 
BRANCH   5   6
ATOM      6  C   UNL     1     -36.316  23.927   4.241  0.00  0.00    +0.010 C 
BRANCH   6   7
ATOM      7  C   UNL     1     -35.568  23.963   5.591  0.00  0.00    +0.000 C 
ATOM      8  C   UNL     1     -34.349  24.886   5.560  0.00  0.00    +0.000 C 
ATOM      9  C   UNL     1     -35.131  22.547   5.975  0.00  0.00    +0.000 C 
ENDBRANCH   6   7
ENDBRANCH   5   6
BRANCH   5  10
ATOM     10  C   UNL     1     -36.310  25.659   2.382  0.00  0.00    +0.096 C 
BRANCH  10  13
ATOM     11  O   UNL     1     -38.380  24.585   1.815  0.00  0.00    -0.273 OA
ATOM     12  N   UNL     1     -38.419  26.334   3.327  0.00  0.00    -0.197 N 
ATOM     13  C   UNL     1     -37.808  25.453   2.471  0.00  0.00    +0.245 C 
ATOM     14  H   UNL     1     -37.911  27.012   3.830  0.00  0.00    +0.182 HD
BRANCH  12  15
ATOM     15  O   UNL     1     -39.809  26.208   3.443  0.00  0.00    -0.295 OA
ATOM     16  H   UNL     1     -40.019  25.426   3.976  0.00  0.00    +0.241 HD
ENDBRANCH  12  15
ENDBRANCH  10  13
ENDBRANCH   5  10
ENDBRANCH   3   5
BRANCH   2  17
ATOM     17  C   UNL     1     -35.755  21.155   1.226  0.00  0.00    +0.153 C 
BRANCH  17  20
ATOM     18  O   UNL     1     -37.345  19.653   0.180  0.00  0.00    -0.273 OA
ATOM     19  N   UNL     1     -38.135  21.566   1.233  0.00  0.00    -0.301 N 
ATOM     20  C   UNL     1     -37.145  20.696   0.798  0.00  0.00    +0.241 C 
ATOM     21  C   UNL     1     -39.545  21.342   1.004  0.00  0.00    +0.111 C 
ATOM     22  H   UNL     1     -37.864  22.377   1.721  0.00  0.00    +0.150 HD
ENDBRANCH  17  20
BRANCH  17  23
ATOM     23  C   UNL     1     -34.995  20.002   1.892  0.00  0.00    +0.055 C 
BRANCH  23  24
ATOM     24  C   UNL     1     -33.655  19.737   1.248  0.00  0.00    -0.020 C 
ATOM     25  C   UNL     1     -33.102  20.693   0.412  0.00  0.00    -0.004 C 
ATOM     26  C   UNL     1     -33.002  18.542   1.507  0.00  0.00    -0.004 C 
ATOM     27  C   UNL     1     -31.864  20.448  -0.182  0.00  0.00    -0.000 C 
ATOM     28  C   UNL     1     -31.763  18.298   0.914  0.00  0.00    -0.000 C 
ATOM     29  C   UNL     1     -31.194  19.251   0.068  0.00  0.00    -0.000 C 
ENDBRANCH  23  24
ENDBRANCH  17  23
ENDBRANCH   2  17
TORSDOF 10
ENDMDL
MODEL 7
REMARK VINA RESULT:      -5.9      2.518      6.585
REMARK  Name = 194777
REMARK  10 active torsions:
REMARK  status: ('A' for Active; 'I' for Inactive)
REMARK    1  A    between atoms: N_2  and  C_17
REMARK    2  A    between atoms: C_3  and  C_5
REMARK    3  A    between atoms: C_5  and  C_6
REMARK    4  A    between atoms: C_5  and  C_10
REMARK    5  A    between atoms: C_6  and  C_7
REMARK    6  A    between atoms: C_10  and  C_13
REMARK    7  A    between atoms: N_12  and  O_15
REMARK    8  A    between atoms: C_17  and  C_20
REMARK    9  A    between atoms: C_17  and  C_23
REMARK   10  A    between atoms: C_23  and  C_24
REMARK                            x       y       z     vdW  Elec       q    Type
REMARK                         _______ _______ _______ _____ _____    ______ ____
ROOT
ATOM      1  O   UNL     1     -35.500  26.693   5.070  0.00  0.00    -0.275 OA
ATOM      2  N   UNL     1     -35.209  27.182   2.823  0.00  0.00    -0.298 N 
ATOM      3  C   UNL     1     -35.547  26.362   3.885  0.00  0.00    +0.223 C 
ATOM      4  H   UNL     1     -35.280  26.825   1.908  0.00  0.00    +0.150 HD
ENDROOT
BRANCH   3   5
ATOM      5  C   UNL     1     -36.005  24.963   3.476  0.00  0.00    +0.086 C 
BRANCH   5   6
ATOM      6  C   UNL     1     -37.184  24.999   2.482  0.00  0.00    +0.010 C 
BRANCH   6   7
ATOM      7  C   UNL     1     -38.556  24.623   3.081  0.00  0.00    +0.000 C 
ATOM      8  C   UNL     1     -39.170  23.392   2.413  0.00  0.00    +0.000 C 
ATOM      9  C   UNL     1     -39.515  25.810   2.953  0.00  0.00    +0.000 C 
ENDBRANCH   6   7
ENDBRANCH   5   6
BRANCH   5  10
ATOM     10  C   UNL     1     -36.359  24.137   4.727  0.00  0.00    +0.096 C 
BRANCH  10  13
ATOM     11  O   UNL     1     -35.376  22.268   3.587  0.00  0.00    -0.273 OA
ATOM     12  N   UNL     1     -35.900  22.046   5.828  0.00  0.00    -0.197 N 
ATOM     13  C   UNL     1     -35.819  22.725   4.639  0.00  0.00    +0.245 C 
ATOM     14  H   UNL     1     -36.264  22.462   6.643  0.00  0.00    +0.182 HD
BRANCH  12  15
ATOM     15  O   UNL     1     -35.432  20.726   5.811  0.00  0.00    -0.295 OA
ATOM     16  H   UNL     1     -34.503  20.717   5.532  0.00  0.00    +0.241 HD
ENDBRANCH  12  15
ENDBRANCH  10  13
ENDBRANCH   5  10
ENDBRANCH   3   5
BRANCH   2  17
ATOM     17  C   UNL     1     -34.755  28.541   3.005  0.00  0.00    +0.153 C 
BRANCH  17  20
ATOM     18  O   UNL     1     -35.360  29.035   0.710  0.00  0.00    -0.273 OA
ATOM     19  N   UNL     1     -35.985  30.523   2.381  0.00  0.00    -0.301 N 
ATOM     20  C   UNL     1     -35.374  29.377   1.891  0.00  0.00    +0.241 C 
ATOM     21  C   UNL     1     -36.691  31.466   1.543  0.00  0.00    +0.111 C 
ATOM     22  H   UNL     1     -35.936  30.703   3.348  0.00  0.00    +0.150 HD
ENDBRANCH  17  20
BRANCH  17  23
ATOM     23  C   UNL     1     -33.226  28.650   2.966  0.00  0.00    +0.055 C 
BRANCH  23  24
ATOM     24  C   UNL     1     -32.633  29.019   4.304  0.00  0.00    -0.020 C 
ATOM     25  C   UNL     1     -32.484  30.357   4.637  0.00  0.00    -0.004 C 
ATOM     26  C   UNL     1     -32.248  28.013   5.177  0.00  0.00    -0.004 C 
ATOM     27  C   UNL     1     -31.936  30.697   5.873  0.00  0.00    -0.000 C 
ATOM     28  C   UNL     1     -31.700  28.354   6.414  0.00  0.00    -0.000 C 
ATOM     29  C   UNL     1     -31.544  29.696   6.762  0.00  0.00    -0.000 C 
ENDBRANCH  23  24
ENDBRANCH  17  23
ENDBRANCH   2  17
TORSDOF 10
ENDMDL
MODEL 8
REMARK VINA RESULT:      -5.9      2.175      7.274
REMARK  Name = 194777
REMARK  10 active torsions:
REMARK  status: ('A' for Active; 'I' for Inactive)
REMARK    1  A    between atoms: N_2  and  C_17
REMARK    2  A    between atoms: C_3  and  C_5
REMARK    3  A    between atoms: C_5  and  C_6
REMARK    4  A    between atoms: C_5  and  C_10
REMARK    5  A    between atoms: C_6  and  C_7
REMARK    6  A    between atoms: C_10  and  C_13
REMARK    7  A    between atoms: N_12  and  O_15
REMARK    8  A    between atoms: C_17  and  C_20
REMARK    9  A    between atoms: C_17  and  C_23
REMARK   10  A    between atoms: C_23  and  C_24
REMARK                            x       y       z     vdW  Elec       q    Type
REMARK                         _______ _______ _______ _____ _____    ______ ____
ROOT
ATOM      1  O   UNL     1     -33.201  26.468   6.725  0.00  0.00    -0.275 OA
ATOM      2  N   UNL     1     -33.028  27.641   4.733  0.00  0.00    -0.298 N 
ATOM      3  C   UNL     1     -33.536  26.650   5.554  0.00  0.00    +0.223 C 
ATOM      4  H   UNL     1     -33.360  27.707   3.808  0.00  0.00    +0.150 HD
ENDROOT
BRANCH   3   5
ATOM      5  C   UNL     1     -34.585  25.760   4.888  0.00  0.00    +0.086 C 
BRANCH   5   6
ATOM      6  C   UNL     1     -34.283  24.259   5.073  0.00  0.00    +0.010 C 
BRANCH   6   7
ATOM      7  C   UNL     1     -35.516  23.374   5.354  0.00  0.00    +0.000 C 
ATOM      8  C   UNL     1     -35.229  22.278   6.381  0.00  0.00    +0.000 C 
ATOM      9  C   UNL     1     -36.002  22.741   4.047  0.00  0.00    +0.000 C 
ENDBRANCH   6   7
ENDBRANCH   5   6
BRANCH   5  10
ATOM     10  C   UNL     1     -34.710  26.121   3.396  0.00  0.00    +0.096 C 
BRANCH  10  13
ATOM     11  O   UNL     1     -36.475  26.218   1.773  0.00  0.00    -0.273 OA
ATOM     12  N   UNL     1     -37.030  26.304   4.015  0.00  0.00    -0.197 N 
ATOM     13  C   UNL     1     -36.158  26.213   2.960  0.00  0.00    +0.245 C 
ATOM     14  H   UNL     1     -36.721  26.295   4.951  0.00  0.00    +0.182 HD
BRANCH  12  15
ATOM     15  O   UNL     1     -38.386  26.410   3.680  0.00  0.00    -0.295 OA
ATOM     16  H   UNL     1     -38.661  27.338   3.739  0.00  0.00    +0.241 HD
ENDBRANCH  12  15
ENDBRANCH  10  13
ENDBRANCH   5  10
ENDBRANCH   3   5
BRANCH   2  17
ATOM     17  C   UNL     1     -32.030  28.584   5.181  0.00  0.00    +0.153 C 
BRANCH  17  20
ATOM     18  O   UNL     1     -32.183  30.989   5.444  0.00  0.00    -0.273 OA
ATOM     19  N   UNL     1     -33.410  29.964   3.759  0.00  0.00    -0.301 N 
ATOM     20  C   UNL     1     -32.543  29.979   4.843  0.00  0.00    +0.241 C 
ATOM     21  C   UNL     1     -34.003  31.158   3.200  0.00  0.00    +0.111 C 
ATOM     22  H   UNL     1     -33.633  29.096   3.350  0.00  0.00    +0.150 HD
ENDBRANCH  17  20
BRANCH  17  23
ATOM     23  C   UNL     1     -30.669  28.342   4.519  0.00  0.00    +0.055 C 
BRANCH  23  24
ATOM     24  C   UNL     1     -29.518  28.464   5.489  0.00  0.00    -0.020 C 
ATOM     25  C   UNL     1     -28.292  27.905   5.163  0.00  0.00    -0.004 C 
ATOM     26  C   UNL     1     -29.707  29.134   6.688  0.00  0.00    -0.004 C 
ATOM     27  C   UNL     1     -27.229  28.018   6.059  0.00  0.00    -0.000 C 
ATOM     28  C   UNL     1     -28.644  29.248   7.583  0.00  0.00    -0.000 C 
ATOM     29  C   UNL     1     -27.404  28.689   7.269  0.00  0.00    -0.000 C 
ENDBRANCH  23  24
ENDBRANCH  17  23
ENDBRANCH   2  17
TORSDOF 10
ENDMDL
MODEL 9
REMARK VINA RESULT:      -5.9      4.018      5.947
REMARK  Name = 194777
REMARK  10 active torsions:
REMARK  status: ('A' for Active; 'I' for Inactive)
REMARK    1  A    between atoms: N_2  and  C_17
REMARK    2  A    between atoms: C_3  and  C_5
REMARK    3  A    between atoms: C_5  and  C_6
REMARK    4  A    between atoms: C_5  and  C_10
REMARK    5  A    between atoms: C_6  and  C_7
REMARK    6  A    between atoms: C_10  and  C_13
REMARK    7  A    between atoms: N_12  and  O_15
REMARK    8  A    between atoms: C_17  and  C_20
REMARK    9  A    between atoms: C_17  and  C_23
REMARK   10  A    between atoms: C_23  and  C_24
REMARK                            x       y       z     vdW  Elec       q    Type
REMARK                         _______ _______ _______ _____ _____    ______ ____
ROOT
ATOM      1  O   UNL     1     -33.928  23.800   0.749  0.00  0.00    -0.275 OA
ATOM      2  N   UNL     1     -35.253  22.380   2.016  0.00  0.00    -0.298 N 
ATOM      3  C   UNL     1     -34.548  23.549   1.782  0.00  0.00    +0.223 C 
ATOM      4  H   UNL     1     -35.718  22.272   2.877  0.00  0.00    +0.150 HD
ENDROOT
BRANCH   3   5
ATOM      5  C   UNL     1     -34.593  24.550   2.937  0.00  0.00    +0.086 C 
BRANCH   5   6
ATOM      6  C   UNL     1     -35.986  24.623   3.594  0.00  0.00    +0.010 C 
BRANCH   6   7
ATOM      7  C   UNL     1     -35.985  24.557   5.137  0.00  0.00    +0.000 C 
ATOM      8  C   UNL     1     -35.229  25.724   5.773  0.00  0.00    +0.000 C 
ATOM      9  C   UNL     1     -35.366  23.233   5.594  0.00  0.00    +0.000 C 
ENDBRANCH   6   7
ENDBRANCH   5   6
BRANCH   5  10
ATOM     10  C   UNL     1     -34.135  25.936   2.449  0.00  0.00    +0.096 C 
BRANCH  10  13
ATOM     11  O   UNL     1     -32.491  26.878   3.922  0.00  0.00    -0.273 OA
ATOM     12  N   UNL     1     -31.771  25.773   2.022  0.00  0.00    -0.197 N 
ATOM     13  C   UNL     1     -32.721  26.248   2.892  0.00  0.00    +0.245 C 
ATOM     14  H   UNL     1     -32.011  25.273   1.209  0.00  0.00    +0.182 HD
BRANCH  12  15
ATOM     15  O   UNL     1     -30.440  26.044   2.365  0.00  0.00    -0.295 OA
ATOM     16  H   UNL     1     -30.353  26.979   2.605  0.00  0.00    +0.241 HD
ENDBRANCH  12  15
ENDBRANCH  10  13
ENDBRANCH   5  10
ENDBRANCH   3   5
BRANCH   2  17
ATOM     17  C   UNL     1     -35.331  21.314   1.045  0.00  0.00    +0.153 C 
BRANCH  17  20
ATOM     18  O   UNL     1     -37.589  22.130   0.707  0.00  0.00    -0.273 OA
ATOM     19  N   UNL     1     -37.077  19.953   0.079  0.00  0.00    -0.301 N 
ATOM     20  C   UNL     1     -36.790  21.200   0.617  0.00  0.00    +0.241 C 
ATOM     21  C   UNL     1     -38.374  19.596  -0.449  0.00  0.00    +0.111 C 
ATOM     22  H   UNL     1     -36.361  19.278   0.056  0.00  0.00    +0.150 HD
ENDBRANCH  17  20
BRANCH  17  23
ATOM     23  C   UNL     1     -34.837  19.979   1.612  0.00  0.00    +0.055 C 
BRANCH  23  24
ATOM     24  C   UNL     1     -33.458  19.610   1.120  0.00  0.00    -0.020 C 
ATOM     25  C   UNL     1     -32.771  20.490   0.298  0.00  0.00    -0.004 C 
ATOM     26  C   UNL     1     -32.902  18.398   1.500  0.00  0.00    -0.004 C 
ATOM     27  C   UNL     1     -31.497  20.149  -0.156  0.00  0.00    -0.000 C 
ATOM     28  C   UNL     1     -31.628  18.058   1.047  0.00  0.00    -0.000 C 
ATOM     29  C   UNL     1     -30.925  18.933   0.218  0.00  0.00    -0.000 C 
ENDBRANCH  23  24
ENDBRANCH  17  23
ENDBRANCH   2  17
TORSDOF 10
ENDMDL
