MODEL 1
REMARK VINA RESULT:      -6.0      0.000      0.000
REMARK  Name = 5959
REMARK  8 active torsions:
REMARK  status: ('A' for Active; 'I' for Inactive)
REMARK    1  A    between atoms: C_1  and  C_2
REMARK    2  A    between atoms: C_1  and  O_11
REMARK    3  A    between atoms: C_1  and  CA_13
REMARK    4  A    between atoms: C_7  and  N_10
REMARK    5  A    between atoms: CA_13  and  N_15
REMARK    6  A    between atoms: CA_13  and  C_21
REMARK    7  A    between atoms: C_16  and  C_20
REMARK    8  A    between atoms: C_21  and  O_22
REMARK                            x       y       z     vdW  Elec       q    Type
REMARK                         _______ _______ _______ _____ _____    ______ ____
ROOT
ATOM      1  C   UNL     1     -36.681  20.626   1.776  0.00  0.00    +0.153 C 
ENDROOT
BRANCH   1   2
ATOM      2  C   UNL     1     -35.269  20.664   1.236  0.00  0.00    +0.006 C 
ATOM      3  C   UNL     1     -34.836  21.787   0.552  0.00  0.00    -0.000 C 
ATOM      4  C   UNL     1     -34.438  19.574   1.437  0.00  0.00    -0.000 C 
ATOM      5  C   UNL     1     -33.533  21.822   0.054  0.00  0.00    +0.024 C 
ATOM      6  C   UNL     1     -33.136  19.610   0.939  0.00  0.00    +0.024 C 
ATOM      7  C   UNL     1     -32.683  20.733   0.248  0.00  0.00    +0.143 C 
BRANCH   7  10
ATOM      8  O   UNL     1     -30.910  21.849  -0.715  0.00  0.00    -0.126 OA
ATOM      9  O   UNL     1     -30.668  19.721  -0.234  0.00  0.00    -0.126 OA
ATOM     10  N   UNL     1     -31.357  20.770  -0.257  0.00  0.00    +0.058 N 
ENDBRANCH   7  10
ENDBRANCH   1   2
BRANCH   1  11
ATOM     11  O   UNL     1     -36.675  19.742   2.901  0.00  0.00    -0.378 OA
ATOM     12  H   UNL     1     -36.044  20.066   3.563  0.00  0.00    +0.211 HD
ENDBRANCH   1  11
BRANCH   1  13
ATOM     13  CA  UNL     1     -37.222  22.005   2.210  0.00  0.00    +0.132 C 
BRANCH  13  15
ATOM     14  O   UNL     1     -35.389  24.024   3.099  0.00  0.00    -0.272 OA
ATOM     15  N   UNL     1     -36.829  22.273   3.581  0.00  0.00    -0.299 N 
ATOM     16  C   UNL     1     -35.933  23.275   3.908  0.00  0.00    +0.253 C 
ATOM     17  H   UNL     1     -37.213  21.723   4.301  0.00  0.00    +0.150 HD
BRANCH  16  20
ATOM     18 CL   UNL     1     -34.924  21.848   5.915  0.00  0.00    -0.087 Cl
ATOM     19 CL   UNL     1     -34.620  24.745   5.694  0.00  0.00    -0.087 Cl
ATOM     20  C   UNL     1     -35.684  23.361   5.395  0.00  0.00    +0.234 C 
ENDBRANCH  16  20
ENDBRANCH  13  15
BRANCH  13  21
ATOM     21  C   UNL     1     -38.743  22.153   2.079  0.00  0.00    +0.159 C 
BRANCH  21  22
ATOM     22  O   UNL     1     -39.406  20.906   2.242  0.00  0.00    -0.380 OA
ATOM     23  H   UNL     1     -39.934  20.925   3.056  0.00  0.00    +0.211 HD
ENDBRANCH  21  22
ENDBRANCH  13  21
ENDBRANCH   1  13
TORSDOF 8
ENDMDL
MODEL 2
REMARK VINA RESULT:      -5.8      3.852      5.758
REMARK  Name = 5959
REMARK  8 active torsions:
REMARK  status: ('A' for Active; 'I' for Inactive)
REMARK    1  A    between atoms: C_1  and  C_2
REMARK    2  A    between atoms: C_1  and  O_11
REMARK    3  A    between atoms: C_1  and  CA_13
REMARK    4  A    between atoms: C_7  and  N_10
REMARK    5  A    between atoms: CA_13  and  N_15
REMARK    6  A    between atoms: CA_13  and  C_21
REMARK    7  A    between atoms: C_16  and  C_20
REMARK    8  A    between atoms: C_21  and  O_22
REMARK                            x       y       z     vdW  Elec       q    Type
REMARK                         _______ _______ _______ _____ _____    ______ ____
ROOT
ATOM      1  C   UNL     1     -35.375  22.455   4.368  0.00  0.00    +0.153 C 
ENDROOT
BRANCH   1   2
ATOM      2  C   UNL     1     -34.842  23.869   4.432  0.00  0.00    +0.006 C 
ATOM      3  C   UNL     1     -34.355  24.461   3.279  0.00  0.00    -0.000 C 
ATOM      4  C   UNL     1     -34.850  24.542   5.642  0.00  0.00    -0.000 C 
ATOM      5  C   UNL     1     -33.863  25.765   3.337  0.00  0.00    +0.024 C 
ATOM      6  C   UNL     1     -34.358  25.845   5.700  0.00  0.00    +0.024 C 
ATOM      7  C   UNL     1     -33.865  26.457   4.548  0.00  0.00    +0.143 C 
BRANCH   7  10
ATOM      8  O   UNL     1     -32.608  28.109   5.554  0.00  0.00    -0.126 OA
ATOM      9  O   UNL     1     -33.696  28.599   3.711  0.00  0.00    -0.126 OA
ATOM     10  N   UNL     1     -33.365  27.785   4.607  0.00  0.00    +0.058 N 
ENDBRANCH   7  10
ENDBRANCH   1   2
BRANCH   1  11
ATOM     11  O   UNL     1     -36.365  22.335   5.395  0.00  0.00    -0.378 OA
ATOM     12  H   UNL     1     -36.558  23.212   5.762  0.00  0.00    +0.211 HD
ENDBRANCH   1  11
BRANCH   1  13
ATOM     13  CA  UNL     1     -36.001  22.084   3.007  0.00  0.00    +0.132 C 
BRANCH  13  15
ATOM     14  O   UNL     1     -37.450  24.075   1.536  0.00  0.00    -0.272 OA
ATOM     15  N   UNL     1     -37.433  22.319   3.049  0.00  0.00    -0.299 N 
ATOM     16  C   UNL     1     -38.038  23.309   2.297  0.00  0.00    +0.253 C 
ATOM     17  H   UNL     1     -37.990  21.754   3.631  0.00  0.00    +0.150 HD
BRANCH  16  20
ATOM     18 CL   UNL     1     -39.916  24.839   3.400  0.00  0.00    -0.087 Cl
ATOM     19 CL   UNL     1     -40.312  23.352   0.917  0.00  0.00    -0.087 Cl
ATOM     20  C   UNL     1     -39.534  23.358   2.508  0.00  0.00    +0.234 C 
ENDBRANCH  16  20
ENDBRANCH  13  15
BRANCH  13  21
ATOM     21  C   UNL     1     -35.736  20.638   2.567  0.00  0.00    +0.159 C 
BRANCH  21  22
ATOM     22  O   UNL     1     -36.889  19.823   2.728  0.00  0.00    -0.380 OA
ATOM     23  H   UNL     1     -36.760  19.226   3.481  0.00  0.00    +0.211 HD
ENDBRANCH  21  22
ENDBRANCH  13  21
ENDBRANCH   1  13
TORSDOF 8
ENDMDL
MODEL 3
REMARK VINA RESULT:      -5.7      3.939      6.121
REMARK  Name = 5959
REMARK  8 active torsions:
REMARK  status: ('A' for Active; 'I' for Inactive)
REMARK    1  A    between atoms: C_1  and  C_2
REMARK    2  A    between atoms: C_1  and  O_11
REMARK    3  A    between atoms: C_1  and  CA_13
REMARK    4  A    between atoms: C_7  and  N_10
REMARK    5  A    between atoms: CA_13  and  N_15
REMARK    6  A    between atoms: CA_13  and  C_21
REMARK    7  A    between atoms: C_16  and  C_20
REMARK    8  A    between atoms: C_21  and  O_22
REMARK                            x       y       z     vdW  Elec       q    Type
REMARK                         _______ _______ _______ _____ _____    ______ ____
ROOT
ATOM      1  C   UNL     1     -35.878  24.417   5.451  0.00  0.00    +0.153 C 
ENDROOT
BRANCH   1   2
ATOM      2  C   UNL     1     -34.800  25.396   5.044  0.00  0.00    +0.006 C 
ATOM      3  C   UNL     1     -34.159  26.140   6.019  0.00  0.00    -0.000 C 
ATOM      4  C   UNL     1     -34.477  25.529   3.704  0.00  0.00    -0.000 C 
ATOM      5  C   UNL     1     -33.163  27.043   5.644  0.00  0.00    +0.024 C 
ATOM      6  C   UNL     1     -33.482  26.432   3.329  0.00  0.00    +0.024 C 
ATOM      7  C   UNL     1     -32.826  27.189   4.299  0.00  0.00    +0.143 C 
BRANCH   7  10
ATOM      8  O   UNL     1     -32.116  29.311   3.744  0.00  0.00    -0.126 OA
ATOM      9  O   UNL     1     -30.639  27.688   3.763  0.00  0.00    -0.126 OA
ATOM     10  N   UNL     1     -31.812  28.107   3.918  0.00  0.00    +0.058 N 
ENDBRANCH   7  10
ENDBRANCH   1   2
BRANCH   1  11
ATOM     11  O   UNL     1     -37.091  24.845   4.823  0.00  0.00    -0.378 OA
ATOM     12  H   UNL     1     -37.499  24.094   4.363  0.00  0.00    +0.211 HD
ENDBRANCH   1  11
BRANCH   1  13
ATOM     13  CA  UNL     1     -35.581  22.957   5.049  0.00  0.00    +0.132 C 
BRANCH  13  15
ATOM     14  O   UNL     1     -35.225  22.297   2.281  0.00  0.00    -0.272 OA
ATOM     15  N   UNL     1     -36.604  22.485   4.134  0.00  0.00    -0.299 N 
ATOM     16  C   UNL     1     -36.330  22.193   2.811  0.00  0.00    +0.253 C 
ATOM     17  H   UNL     1     -37.523  22.370   4.468  0.00  0.00    +0.150 HD
BRANCH  16  20
ATOM     18 CL   UNL     1     -38.863  22.871   2.360  0.00  0.00    -0.087 Cl
ATOM     19 CL   UNL     1     -37.147  21.647   0.338  0.00  0.00    -0.087 Cl
ATOM     20  C   UNL     1     -37.553  21.719   2.061  0.00  0.00    +0.234 C 
ENDBRANCH  16  20
ENDBRANCH  13  15
BRANCH  13  21
ATOM     21  C   UNL     1     -35.473  21.988   6.234  0.00  0.00    +0.159 C 
BRANCH  21  22
ATOM     22  O   UNL     1     -35.308  20.645   5.798  0.00  0.00    -0.380 OA
ATOM     23  H   UNL     1     -34.618  20.608   5.117  0.00  0.00    +0.211 HD
ENDBRANCH  21  22
ENDBRANCH  13  21
ENDBRANCH   1  13
TORSDOF 8
ENDMDL
MODEL 4
REMARK VINA RESULT:      -5.2      1.467      1.861
REMARK  Name = 5959
REMARK  8 active torsions:
REMARK  status: ('A' for Active; 'I' for Inactive)
REMARK    1  A    between atoms: C_1  and  C_2
REMARK    2  A    between atoms: C_1  and  O_11
REMARK    3  A    between atoms: C_1  and  CA_13
REMARK    4  A    between atoms: C_7  and  N_10
REMARK    5  A    between atoms: CA_13  and  N_15
REMARK    6  A    between atoms: CA_13  and  C_21
REMARK    7  A    between atoms: C_16  and  C_20
REMARK    8  A    between atoms: C_21  and  O_22
REMARK                            x       y       z     vdW  Elec       q    Type
REMARK                         _______ _______ _______ _____ _____    ______ ____
ROOT
ATOM      1  C   UNL     1     -37.978  22.048   1.675  0.00  0.00    +0.153 C 
ENDROOT
BRANCH   1   2
ATOM      2  C   UNL     1     -36.574  21.566   1.387  0.00  0.00    +0.006 C 
ATOM      3  C   UNL     1     -35.780  22.283   0.509  0.00  0.00    -0.000 C 
ATOM      4  C   UNL     1     -36.112  20.417   2.006  0.00  0.00    -0.000 C 
ATOM      5  C   UNL     1     -34.484  21.838   0.243  0.00  0.00    +0.024 C 
ATOM      6  C   UNL     1     -34.817  19.972   1.741  0.00  0.00    +0.024 C 
ATOM      7  C   UNL     1     -34.003  20.683   0.859  0.00  0.00    +0.143 C 
BRANCH   7  10
ATOM      8  O   UNL     1     -32.309  19.133   1.063  0.00  0.00    -0.126 OA
ATOM      9  O   UNL     1     -31.929  20.947  -0.114  0.00  0.00    -0.126 OA
ATOM     10  N   UNL     1     -32.684  20.232   0.590  0.00  0.00    +0.058 N 
ENDBRANCH   7  10
ENDBRANCH   1   2
BRANCH   1  11
ATOM     11  O   UNL     1     -38.611  21.042   2.471  0.00  0.00    -0.378 OA
ATOM     12  H   UNL     1     -39.550  20.984   2.234  0.00  0.00    +0.211 HD
ENDBRANCH   1  11
BRANCH   1  13
ATOM     13  CA  UNL     1     -38.035  23.400   2.417  0.00  0.00    +0.132 C 
BRANCH  13  15
ATOM     14  O   UNL     1     -35.711  24.880   3.212  0.00  0.00    -0.272 OA
ATOM     15  N   UNL     1     -37.332  23.291   3.682  0.00  0.00    -0.299 N 
ATOM     16  C   UNL     1     -36.215  24.054   3.970  0.00  0.00    +0.253 C 
ATOM     17  H   UNL     1     -37.663  22.654   4.355  0.00  0.00    +0.150 HD
BRANCH  16  20
ATOM     18 CL   UNL     1     -35.118  22.080   5.378  0.00  0.00    -0.087 Cl
ATOM     19 CL   UNL     1     -34.314  24.876   5.639  0.00  0.00    -0.087 Cl
ATOM     20  C   UNL     1     -35.662  23.765   5.346  0.00  0.00    +0.234 C 
ENDBRANCH  16  20
ENDBRANCH  13  15
BRANCH  13  21
ATOM     21  C   UNL     1     -39.457  23.919   2.668  0.00  0.00    +0.159 C 
BRANCH  21  22
ATOM     22  O   UNL     1     -39.514  24.752   3.820  0.00  0.00    -0.380 OA
ATOM     23  H   UNL     1     -40.399  24.698   4.214  0.00  0.00    +0.211 HD
ENDBRANCH  21  22
ENDBRANCH  13  21
ENDBRANCH   1  13
TORSDOF 8
ENDMDL
MODEL 5
REMARK VINA RESULT:      -5.2      4.873      7.305
REMARK  Name = 5959
REMARK  8 active torsions:
REMARK  status: ('A' for Active; 'I' for Inactive)
REMARK    1  A    between atoms: C_1  and  C_2
REMARK    2  A    between atoms: C_1  and  O_11
REMARK    3  A    between atoms: C_1  and  CA_13
REMARK    4  A    between atoms: C_7  and  N_10
REMARK    5  A    between atoms: CA_13  and  N_15
REMARK    6  A    between atoms: CA_13  and  C_21
REMARK    7  A    between atoms: C_16  and  C_20
REMARK    8  A    between atoms: C_21  and  O_22
REMARK                            x       y       z     vdW  Elec       q    Type
REMARK                         _______ _______ _______ _____ _____    ______ ____
ROOT
ATOM      1  C   UNL     1     -34.619  27.120   2.986  0.00  0.00    +0.153 C 
ENDROOT
BRANCH   1   2
ATOM      2  C   UNL     1     -34.852  25.773   3.632  0.00  0.00    +0.006 C 
ATOM      3  C   UNL     1     -34.812  24.631   2.850  0.00  0.00    -0.000 C 
ATOM      4  C   UNL     1     -35.102  25.709   4.993  0.00  0.00    -0.000 C 
ATOM      5  C   UNL     1     -35.026  23.388   3.447  0.00  0.00    +0.024 C 
ATOM      6  C   UNL     1     -35.316  24.466   5.589  0.00  0.00    +0.024 C 
ATOM      7  C   UNL     1     -35.278  23.306   4.816  0.00  0.00    +0.143 C 
BRANCH   7  10
ATOM      8  O   UNL     1     -35.165  21.003   4.800  0.00  0.00    -0.126 OA
ATOM      9  O   UNL     1     -36.012  21.995   6.566  0.00  0.00    -0.126 OA
ATOM     10  N   UNL     1     -35.495  22.041   5.423  0.00  0.00    +0.058 N 
ENDBRANCH   7  10
ENDBRANCH   1   2
BRANCH   1  11
ATOM     11  O   UNL     1     -35.458  28.060   3.664  0.00  0.00    -0.378 OA
ATOM     12  H   UNL     1     -36.178  27.588   4.111  0.00  0.00    +0.211 HD
ENDBRANCH   1  11
BRANCH   1  13
ATOM     13  CA  UNL     1     -33.154  27.600   3.051  0.00  0.00    +0.132 C 
BRANCH  13  15
ATOM     14  O   UNL     1     -31.044  28.042   4.943  0.00  0.00    -0.272 OA
ATOM     15  N   UNL     1     -33.046  28.708   3.982  0.00  0.00    -0.299 N 
ATOM     16  C   UNL     1     -31.983  28.832   4.858  0.00  0.00    +0.253 C 
ATOM     17  H   UNL     1     -33.752  29.394   3.988  0.00  0.00    +0.150 HD
BRANCH  16  20
ATOM     18 CL   UNL     1     -31.513  29.654   7.345  0.00  0.00    -0.087 Cl
ATOM     19 CL   UNL     1     -31.095  31.336   4.994  0.00  0.00    -0.087 Cl
ATOM     20  C   UNL     1     -32.091  30.066   5.723  0.00  0.00    +0.234 C 
ENDBRANCH  16  20
ENDBRANCH  13  15
BRANCH  13  21
ATOM     21  C   UNL     1     -32.567  28.015   1.696  0.00  0.00    +0.159 C 
BRANCH  21  22
ATOM     22  O   UNL     1     -31.147  28.067   1.734  0.00  0.00    -0.380 OA
ATOM     23  H   UNL     1     -30.828  27.603   2.524  0.00  0.00    +0.211 HD
ENDBRANCH  21  22
ENDBRANCH  13  21
ENDBRANCH   1  13
TORSDOF 8
ENDMDL
MODEL 6
REMARK VINA RESULT:      -5.1      3.624      5.315
REMARK  Name = 5959
REMARK  8 active torsions:
REMARK  status: ('A' for Active; 'I' for Inactive)
REMARK    1  A    between atoms: C_1  and  C_2
REMARK    2  A    between atoms: C_1  and  O_11
REMARK    3  A    between atoms: C_1  and  CA_13
REMARK    4  A    between atoms: C_7  and  N_10
REMARK    5  A    between atoms: CA_13  and  N_15
REMARK    6  A    between atoms: CA_13  and  C_21
REMARK    7  A    between atoms: C_16  and  C_20
REMARK    8  A    between atoms: C_21  and  O_22
REMARK                            x       y       z     vdW  Elec       q    Type
REMARK                         _______ _______ _______ _____ _____    ______ ____
ROOT
ATOM      1  C   UNL     1     -35.550  21.397   2.602  0.00  0.00    +0.153 C 
ENDROOT
BRANCH   1   2
ATOM      2  C   UNL     1     -35.243  22.735   3.236  0.00  0.00    +0.006 C 
ATOM      3  C   UNL     1     -34.825  23.783   2.434  0.00  0.00    -0.000 C 
ATOM      4  C   UNL     1     -35.385  22.885   4.605  0.00  0.00    -0.000 C 
ATOM      5  C   UNL     1     -34.543  25.019   3.018  0.00  0.00    +0.024 C 
ATOM      6  C   UNL     1     -35.102  24.120   5.189  0.00  0.00    +0.024 C 
ATOM      7  C   UNL     1     -34.681  25.186   4.395  0.00  0.00    +0.143 C 
BRANCH   7  10
ATOM      8  O   UNL     1     -33.971  26.476   6.170  0.00  0.00    -0.126 OA
ATOM      9  O   UNL     1     -34.574  27.489   4.317  0.00  0.00    -0.126 OA
ATOM     10  N   UNL     1     -34.394  26.443   4.989  0.00  0.00    +0.058 N 
ENDBRANCH   7  10
ENDBRANCH   1   2
BRANCH   1  11
ATOM     11  O   UNL     1     -35.972  20.523   3.654  0.00  0.00    -0.378 OA
ATOM     12  H   UNL     1     -35.436  20.688   4.446  0.00  0.00    +0.211 HD
ENDBRANCH   1  11
BRANCH   1  13
ATOM     13  CA  UNL     1     -36.644  21.456   1.515  0.00  0.00    +0.132 C 
BRANCH  13  15
ATOM     14  O   UNL     1     -38.049  23.778   0.588  0.00  0.00    -0.272 OA
ATOM     15  N   UNL     1     -37.861  22.013   2.078  0.00  0.00    -0.299 N 
ATOM     16  C   UNL     1     -38.463  23.142   1.555  0.00  0.00    +0.253 C 
ATOM     17  H   UNL     1     -38.269  21.571   2.858  0.00  0.00    +0.150 HD
BRANCH  16  20
ATOM     18 CL   UNL     1     -39.306  24.842   3.422  0.00  0.00    -0.087 Cl
ATOM     19 CL   UNL     1     -40.929  24.046   1.127  0.00  0.00    -0.087 Cl
ATOM     20  C   UNL     1     -39.715  23.527   2.308  0.00  0.00    +0.234 C 
ENDBRANCH  16  20
ENDBRANCH  13  15
BRANCH  13  21
ATOM     21  C   UNL     1     -36.958  20.102   0.866  0.00  0.00    +0.159 C 
BRANCH  21  22
ATOM     22  O   UNL     1     -35.957  19.136   1.159  0.00  0.00    -0.380 OA
ATOM     23  H   UNL     1     -36.228  18.613   1.930  0.00  0.00    +0.211 HD
ENDBRANCH  21  22
ENDBRANCH  13  21
ENDBRANCH   1  13
TORSDOF 8
ENDMDL
MODEL 7
REMARK VINA RESULT:      -5.1      3.628      5.907
REMARK  Name = 5959
REMARK  8 active torsions:
REMARK  status: ('A' for Active; 'I' for Inactive)
REMARK    1  A    between atoms: C_1  and  C_2
REMARK    2  A    between atoms: C_1  and  O_11
REMARK    3  A    between atoms: C_1  and  CA_13
REMARK    4  A    between atoms: C_7  and  N_10
REMARK    5  A    between atoms: CA_13  and  N_15
REMARK    6  A    between atoms: CA_13  and  C_21
REMARK    7  A    between atoms: C_16  and  C_20
REMARK    8  A    between atoms: C_21  and  O_22
REMARK                            x       y       z     vdW  Elec       q    Type
REMARK                         _______ _______ _______ _____ _____    ______ ____
ROOT
ATOM      1  C   UNL     1     -35.655  22.851   4.395  0.00  0.00    +0.153 C 
ENDROOT
BRANCH   1   2
ATOM      2  C   UNL     1     -34.896  24.155   4.493  0.00  0.00    +0.006 C 
ATOM      3  C   UNL     1     -34.164  24.596   3.404  0.00  0.00    -0.000 C 
ATOM      4  C   UNL     1     -34.947  24.881   5.672  0.00  0.00    -0.000 C 
ATOM      5  C   UNL     1     -33.464  25.800   3.495  0.00  0.00    +0.024 C 
ATOM      6  C   UNL     1     -34.246  26.083   5.763  0.00  0.00    +0.024 C 
ATOM      7  C   UNL     1     -33.505  26.543   4.674  0.00  0.00    +0.143 C 
BRANCH   7  10
ATOM      8  O   UNL     1     -33.319  28.812   4.310  0.00  0.00    -0.126 OA
ATOM      9  O   UNL     1     -31.657  27.772   5.299  0.00  0.00    -0.126 OA
ATOM     10  N   UNL     1     -32.793  27.768   4.766  0.00  0.00    +0.058 N 
ENDBRANCH   7  10
ENDBRANCH   1   2
BRANCH   1  11
ATOM     11  O   UNL     1     -36.271  22.629   5.667  0.00  0.00    -0.378 OA
ATOM     12  H   UNL     1     -37.187  22.335   5.536  0.00  0.00    +0.211 HD
ENDBRANCH   1  11
BRANCH   1  13
ATOM     13  CA  UNL     1     -36.736  22.839   3.293  0.00  0.00    +0.132 C 
BRANCH  13  15
ATOM     14  O   UNL     1     -35.874  20.161   2.734  0.00  0.00    -0.272 OA
ATOM     15  N   UNL     1     -36.159  22.358   2.051  0.00  0.00    -0.299 N 
ATOM     16  C   UNL     1     -35.773  21.041   1.881  0.00  0.00    +0.253 C 
ATOM     17  H   UNL     1     -36.039  22.990   1.306  0.00  0.00    +0.150 HD
BRANCH  16  20
ATOM     18 CL   UNL     1     -33.527  20.244   0.696  0.00  0.00    -0.087 Cl
ATOM     19 CL   UNL     1     -36.190  19.531  -0.270  0.00  0.00    -0.087 Cl
ATOM     20  C   UNL     1     -35.204  20.781   0.505  0.00  0.00    +0.234 C 
ENDBRANCH  16  20
ENDBRANCH  13  15
BRANCH  13  21
ATOM     21  C   UNL     1     -37.402  24.200   3.050  0.00  0.00    +0.159 C 
BRANCH  21  22
ATOM     22  O   UNL     1     -38.198  24.597   4.159  0.00  0.00    -0.380 OA
ATOM     23  H   UNL     1     -38.766  25.339   3.899  0.00  0.00    +0.211 HD
ENDBRANCH  21  22
ENDBRANCH  13  21
ENDBRANCH   1  13
TORSDOF 8
ENDMDL
MODEL 8
REMARK VINA RESULT:      -5.1      1.986      2.533
REMARK  Name = 5959
REMARK  8 active torsions:
REMARK  status: ('A' for Active; 'I' for Inactive)
REMARK    1  A    between atoms: C_1  and  C_2
REMARK    2  A    between atoms: C_1  and  O_11
REMARK    3  A    between atoms: C_1  and  CA_13
REMARK    4  A    between atoms: C_7  and  N_10
REMARK    5  A    between atoms: CA_13  and  N_15
REMARK    6  A    between atoms: CA_13  and  C_21
REMARK    7  A    between atoms: C_16  and  C_20
REMARK    8  A    between atoms: C_21  and  O_22
REMARK                            x       y       z     vdW  Elec       q    Type
REMARK                         _______ _______ _______ _____ _____    ______ ____
ROOT
ATOM      1  C   UNL     1     -36.367  20.279   1.482  0.00  0.00    +0.153 C 
ENDROOT
BRANCH   1   2
ATOM      2  C   UNL     1     -35.212  19.401   1.057  0.00  0.00    +0.006 C 
ATOM      3  C   UNL     1     -35.390  18.507   0.015  0.00  0.00    -0.000 C 
ATOM      4  C   UNL     1     -34.000  19.507   1.720  0.00  0.00    -0.000 C 
ATOM      5  C   UNL     1     -34.323  17.697  -0.378  0.00  0.00    +0.024 C 
ATOM      6  C   UNL     1     -32.935  18.697   1.327  0.00  0.00    +0.024 C 
ATOM      7  C   UNL     1     -33.097  17.792   0.278  0.00  0.00    +0.143 C 
BRANCH   7  10
ATOM      8  O   UNL     1     -31.179  17.417  -0.945  0.00  0.00    -0.126 OA
ATOM      9  O   UNL     1     -31.918  15.812   0.357  0.00  0.00    -0.126 OA
ATOM     10  N   UNL     1     -32.012  16.968  -0.122  0.00  0.00    +0.058 N 
ENDBRANCH   7  10
ENDBRANCH   1   2
BRANCH   1  11
ATOM     11  O   UNL     1     -36.904  19.713   2.681  0.00  0.00    -0.378 OA
ATOM     12  H   UNL     1     -36.525  18.831   2.820  0.00  0.00    +0.211 HD
ENDBRANCH   1  11
BRANCH   1  13
ATOM     13  CA  UNL     1     -35.972  21.749   1.742  0.00  0.00    +0.132 C 
BRANCH  13  15
ATOM     14  O   UNL     1     -34.612  23.752   3.278  0.00  0.00    -0.272 OA
ATOM     15  N   UNL     1     -36.208  22.078   3.135  0.00  0.00    -0.299 N 
ATOM     16  C   UNL     1     -35.495  23.066   3.789  0.00  0.00    +0.253 C 
ATOM     17  H   UNL     1     -36.899  21.581   3.630  0.00  0.00    +0.150 HD
BRANCH  16  20
ATOM     18 CL   UNL     1     -34.986  22.085   6.210  0.00  0.00    -0.087 Cl
ATOM     19 CL   UNL     1     -35.599  24.898   5.715  0.00  0.00    -0.087 Cl
ATOM     20  C   UNL     1     -35.921  23.226   5.230  0.00  0.00    +0.234 C 
ENDBRANCH  16  20
ENDBRANCH  13  15
BRANCH  13  21
ATOM     21  C   UNL     1     -36.700  22.762   0.850  0.00  0.00    +0.159 C 
BRANCH  21  22
ATOM     22  O   UNL     1     -35.840  23.822   0.452  0.00  0.00    -0.380 OA
ATOM     23  H   UNL     1     -35.789  23.851  -0.516  0.00  0.00    +0.211 HD
ENDBRANCH  21  22
ENDBRANCH  13  21
ENDBRANCH   1  13
TORSDOF 8
ENDMDL
MODEL 9
REMARK VINA RESULT:      -5.0      4.276      6.340
REMARK  Name = 5959
REMARK  8 active torsions:
REMARK  status: ('A' for Active; 'I' for Inactive)
REMARK    1  A    between atoms: C_1  and  C_2
REMARK    2  A    between atoms: C_1  and  O_11
REMARK    3  A    between atoms: C_1  and  CA_13
REMARK    4  A    between atoms: C_7  and  N_10
REMARK    5  A    between atoms: CA_13  and  N_15
REMARK    6  A    between atoms: CA_13  and  C_21
REMARK    7  A    between atoms: C_16  and  C_20
REMARK    8  A    between atoms: C_21  and  O_22
REMARK                            x       y       z     vdW  Elec       q    Type
REMARK                         _______ _______ _______ _____ _____    ______ ____
ROOT
ATOM      1  C   UNL     1     -35.033  26.267   4.767  0.00  0.00    +0.153 C 
ENDROOT
BRANCH   1   2
ATOM      2  C   UNL     1     -35.213  24.865   4.230  0.00  0.00    +0.006 C 
ATOM      3  C   UNL     1     -35.164  24.653   2.864  0.00  0.00    -0.000 C 
ATOM      4  C   UNL     1     -35.426  23.822   5.117  0.00  0.00    -0.000 C 
ATOM      5  C   UNL     1     -35.330  23.359   2.368  0.00  0.00    +0.024 C 
ATOM      6  C   UNL     1     -35.592  22.530   4.622  0.00  0.00    +0.024 C 
ATOM      7  C   UNL     1     -35.544  22.298   3.247  0.00  0.00    +0.143 C 
BRANCH   7  10
ATOM      8  O   UNL     1     -34.816  20.129   2.956  0.00  0.00    -0.126 OA
ATOM      9  O   UNL     1     -36.752  20.706   2.097  0.00  0.00    -0.126 OA
ATOM     10  N   UNL     1     -35.712  20.981   2.743  0.00  0.00    +0.058 N 
ENDBRANCH   7  10
ENDBRANCH   1   2
BRANCH   1  11
ATOM     11  O   UNL     1     -34.822  26.151   6.178  0.00  0.00    -0.378 OA
ATOM     12  H   UNL     1     -34.401  25.300   6.373  0.00  0.00    +0.211 HD
ENDBRANCH   1  11
BRANCH   1  13
ATOM     13  CA  UNL     1     -33.851  27.032   4.134  0.00  0.00    +0.132 C 
BRANCH  13  15
ATOM     14  O   UNL     1     -31.069  27.720   4.241  0.00  0.00    -0.272 OA
ATOM     15  N   UNL     1     -33.200  27.846   5.144  0.00  0.00    -0.299 N 
ATOM     16  C   UNL     1     -31.846  28.121   5.106  0.00  0.00    +0.253 C 
ATOM     17  H   UNL     1     -33.742  28.214   5.878  0.00  0.00    +0.150 HD
BRANCH  16  20
ATOM     18 CL   UNL     1     -29.632  29.001   6.292  0.00  0.00    -0.087 Cl
ATOM     19 CL   UNL     1     -32.048  30.617   6.003  0.00  0.00    -0.087 Cl
ATOM     20  C   UNL     1     -31.402  28.988   6.261  0.00  0.00    +0.234 C 
ENDBRANCH  16  20
ENDBRANCH  13  15
BRANCH  13  21
ATOM     21  C   UNL     1     -34.241  27.916   2.942  0.00  0.00    +0.159 C 
BRANCH  21  22
ATOM     22  O   UNL     1     -35.192  28.906   3.314  0.00  0.00    -0.380 OA
ATOM     23  H   UNL     1     -35.608  29.270   2.517  0.00  0.00    +0.211 HD
ENDBRANCH  21  22
ENDBRANCH  13  21
ENDBRANCH   1  13
TORSDOF 8
ENDMDL
