MODEL 1
REMARK VINA RESULT:      -7.0      0.000      0.000
REMARK  Name = 194267
REMARK  7 active torsions:
REMARK  status: ('A' for Active; 'I' for Inactive)
REMARK    1  A    between atoms: C_2  and  O_7
REMARK    2  A    between atoms: C_3  and  O_9
REMARK    3  A    between atoms: C_4  and  O_11
REMARK    4  A    between atoms: C_5  and  C_26
REMARK    5  A    between atoms: C_6  and  O_13
REMARK    6  A    between atoms: O_13  and  C_16
REMARK    7  A    between atoms: C_26  and  O_27
REMARK                            x       y       z     vdW  Elec       q    Type
REMARK                         _______ _______ _______ _____ _____    ______ ____
ROOT
ATOM      1  O   UNL     1     -35.271  20.994   3.574  0.00  0.00    -0.316 OA
ATOM      2  C   UNL     1     -37.126  22.713   2.216  0.00  0.00    +0.173 C 
ATOM      3  C   UNL     1     -36.965  22.749   3.737  0.00  0.00    +0.169 C 
ATOM      4  C   UNL     1     -36.706  21.354   1.655  0.00  0.00    +0.210 C 
ATOM      5  C   UNL     1     -35.560  22.278   4.139  0.00  0.00    +0.177 C 
ATOM      6  C   UNL     1     -35.302  21.003   2.145  0.00  0.00    +0.318 C 
ENDROOT
BRANCH   2   7
ATOM      7  O   UNL     1     -38.485  22.982   1.882  0.00  0.00    -0.379 OA
ATOM      8  H   UNL     1     -38.889  23.519   2.581  0.00  0.00    +0.211 HD
ENDBRANCH   2   7
BRANCH   3   9
ATOM      9  O   UNL     1     -37.161  24.082   4.202  0.00  0.00    -0.379 OA
ATOM     10  H   UNL     1     -37.787  24.539   3.619  0.00  0.00    +0.211 HD
ENDBRANCH   3   9
BRANCH   4  11
ATOM     11  O   UNL     1     -37.608  20.344   2.121  0.00  0.00    -0.377 OA
ATOM     12  H   UNL     1     -38.488  20.731   2.250  0.00  0.00    +0.211 HD
ENDBRANCH   4  11
BRANCH   6  13
ATOM     13  O   UNL     1     -34.944  19.725   1.627  0.00  0.00    -0.450 OA
BRANCH  13  16
ATOM     14  O   UNL     1     -30.991  17.112   1.071  0.00  0.00    -0.421 OA
ATOM     15  O   UNL     1     -29.104  15.846   0.812  0.00  0.00    -0.244 OA
ATOM     16  C   UNL     1     -33.676  19.598   1.126  0.00  0.00    +0.144 C 
ATOM     17  C   UNL     1     -32.962  18.429   1.342  0.00  0.00    +0.075 C 
ATOM     18  C   UNL     1     -33.112  20.641   0.401  0.00  0.00    +0.037 C 
ATOM     19  C   UNL     1     -31.074  19.347   0.089  0.00  0.00    +0.031 C 
ATOM     20  C   UNL     1     -31.671  18.320   0.821  0.00  0.00    +0.151 C 
ATOM     21  C   UNL     1     -31.818  20.517  -0.115  0.00  0.00    +0.006 C 
ATOM     22  C   UNL     1     -29.712  19.146  -0.421  0.00  0.00    -0.012 C 
ATOM     23  C   UNL     1     -29.088  17.986  -0.169  0.00  0.00    +0.078 C 
ATOM     24  C   UNL     1     -29.041  20.232  -1.211  0.00  0.00    +0.031 C 
ATOM     25  C   UNL     1     -29.705  16.894   0.601  0.00  0.00    +0.346 C 
ENDBRANCH  13  16
ENDBRANCH   6  13
BRANCH   5  26
ATOM     26  C   UNL     1     -35.422  22.154   5.653  0.00  0.00    +0.169 C 
BRANCH  26  27
ATOM     27  O   UNL     1     -35.416  20.780   5.994  0.00  0.00    -0.379 OA
ATOM     28  H   UNL     1     -35.777  20.262   5.258  0.00  0.00    +0.211 HD
ENDBRANCH  26  27
ENDBRANCH   5  26
TORSDOF 7
ENDMDL
MODEL 2
REMARK VINA RESULT:      -6.9      1.609      2.274
REMARK  Name = 194267
REMARK  7 active torsions:
REMARK  status: ('A' for Active; 'I' for Inactive)
REMARK    1  A    between atoms: C_2  and  O_7
REMARK    2  A    between atoms: C_3  and  O_9
REMARK    3  A    between atoms: C_4  and  O_11
REMARK    4  A    between atoms: C_5  and  C_26
REMARK    5  A    between atoms: C_6  and  O_13
REMARK    6  A    between atoms: O_13  and  C_16
REMARK    7  A    between atoms: C_26  and  O_27
REMARK                            x       y       z     vdW  Elec       q    Type
REMARK                         _______ _______ _______ _____ _____    ______ ____
ROOT
ATOM      1  O   UNL     1     -35.154  21.020   3.594  0.00  0.00    -0.316 OA
ATOM      2  C   UNL     1     -37.040  22.952   2.619  0.00  0.00    +0.173 C 
ATOM      3  C   UNL     1     -36.711  22.833   4.109  0.00  0.00    +0.169 C 
ATOM      4  C   UNL     1     -36.767  21.634   1.894  0.00  0.00    +0.210 C 
ATOM      5  C   UNL     1     -35.301  22.255   4.303  0.00  0.00    +0.177 C 
ATOM      6  C   UNL     1     -35.341  21.167   2.185  0.00  0.00    +0.318 C 
ENDROOT
BRANCH   2   7
ATOM      7  O   UNL     1     -38.409  23.319   2.470  0.00  0.00    -0.379 OA
ATOM      8  H   UNL     1     -38.510  23.873   1.680  0.00  0.00    +0.211 HD
ENDBRANCH   2   7
BRANCH   3   9
ATOM      9  O   UNL     1     -36.774  24.123   4.712  0.00  0.00    -0.379 OA
ATOM     10  H   UNL     1     -36.574  24.800   4.048  0.00  0.00    +0.211 HD
ENDBRANCH   3   9
BRANCH   4  11
ATOM     11  O   UNL     1     -37.672  20.631   2.367  0.00  0.00    -0.377 OA
ATOM     12  H   UNL     1     -37.232  19.766   2.350  0.00  0.00    +0.211 HD
ENDBRANCH   4  11
BRANCH   6  13
ATOM     13  O   UNL     1     -35.120  19.930   1.516  0.00  0.00    -0.450 OA
BRANCH  13  16
ATOM     14  O   UNL     1     -31.093  21.237  -0.684  0.00  0.00    -0.421 OA
ATOM     15  O   UNL     1     -29.170  21.879  -1.742  0.00  0.00    -0.244 OA
ATOM     16  C   UNL     1     -33.830  19.648   1.154  0.00  0.00    +0.144 C 
ATOM     17  C   UNL     1     -33.102  20.571   0.420  0.00  0.00    +0.075 C 
ATOM     18  C   UNL     1     -33.258  18.438   1.526  0.00  0.00    +0.037 C 
ATOM     19  C   UNL     1     -31.181  19.059   0.417  0.00  0.00    +0.031 C 
ATOM     20  C   UNL     1     -31.788  20.264   0.061  0.00  0.00    +0.151 C 
ATOM     21  C   UNL     1     -31.939  18.143   1.160  0.00  0.00    +0.006 C 
ATOM     22  C   UNL     1     -29.794  18.819  -0.002  0.00  0.00    -0.012 C 
ATOM     23  C   UNL     1     -29.157  19.762  -0.711  0.00  0.00    +0.078 C 
ATOM     24  C   UNL     1     -29.114  17.532   0.364  0.00  0.00    +0.031 C 
ATOM     25  C   UNL     1     -29.784  21.039  -1.093  0.00  0.00    +0.346 C 
ENDBRANCH  13  16
ENDBRANCH   6  13
BRANCH   5  26
ATOM     26  C   UNL     1     -35.006  21.979   5.773  0.00  0.00    +0.169 C 
BRANCH  26  27
ATOM     27  O   UNL     1     -36.234  21.827   6.460  0.00  0.00    -0.379 OA
ATOM     28  H   UNL     1     -36.066  21.485   7.352  0.00  0.00    +0.211 HD
ENDBRANCH  26  27
ENDBRANCH   5  26
TORSDOF 7
ENDMDL
MODEL 3
REMARK VINA RESULT:      -6.9      2.377      3.386
REMARK  Name = 194267
REMARK  7 active torsions:
REMARK  status: ('A' for Active; 'I' for Inactive)
REMARK    1  A    between atoms: C_2  and  O_7
REMARK    2  A    between atoms: C_3  and  O_9
REMARK    3  A    between atoms: C_4  and  O_11
REMARK    4  A    between atoms: C_5  and  C_26
REMARK    5  A    between atoms: C_6  and  O_13
REMARK    6  A    between atoms: O_13  and  C_16
REMARK    7  A    between atoms: C_26  and  O_27
REMARK                            x       y       z     vdW  Elec       q    Type
REMARK                         _______ _______ _______ _____ _____    ______ ____
ROOT
ATOM      1  O   UNL     1     -35.907  23.243   3.754  0.00  0.00    -0.316 OA
ATOM      2  C   UNL     1     -37.383  25.657   3.272  0.00  0.00    +0.173 C 
ATOM      3  C   UNL     1     -36.844  25.309   4.661  0.00  0.00    +0.169 C 
ATOM      4  C   UNL     1     -37.580  24.395   2.433  0.00  0.00    +0.210 C 
ATOM      5  C   UNL     1     -35.614  24.397   4.548  0.00  0.00    +0.177 C 
ATOM      6  C   UNL     1     -36.289  23.575   2.417  0.00  0.00    +0.318 C 
ENDROOT
BRANCH   2   7
ATOM      7  O   UNL     1     -38.619  26.352   3.409  0.00  0.00    -0.379 OA
ATOM      8  H   UNL     1     -39.027  26.462   2.536  0.00  0.00    +0.211 HD
ENDBRANCH   2   7
BRANCH   3   9
ATOM      9  O   UNL     1     -36.475  26.508   5.339  0.00  0.00    -0.379 OA
ATOM     10  H   UNL     1     -37.275  26.989   5.603  0.00  0.00    +0.211 HD
ENDBRANCH   3   9
BRANCH   4  11
ATOM     11  O   UNL     1     -38.613  23.591   3.011  0.00  0.00    -0.377 OA
ATOM     12  H   UNL     1     -39.413  24.127   3.127  0.00  0.00    +0.211 HD
ENDBRANCH   4  11
BRANCH   6  13
ATOM     13  O   UNL     1     -36.506  22.397   1.648  0.00  0.00    -0.450 OA
BRANCH  13  16
ATOM     14  O   UNL     1     -32.265  21.914  -0.486  0.00  0.00    -0.421 OA
ATOM     15  O   UNL     1     -30.234  21.699  -1.514  0.00  0.00    -0.244 OA
ATOM     16  C   UNL     1     -35.405  21.630   1.374  0.00  0.00    +0.144 C 
ATOM     17  C   UNL     1     -34.385  22.143   0.586  0.00  0.00    +0.075 C 
ATOM     18  C   UNL     1     -35.315  20.343   1.888  0.00  0.00    +0.037 C 
ATOM     19  C   UNL     1     -33.148  20.048   0.819  0.00  0.00    +0.031 C 
ATOM     20  C   UNL     1     -33.271  21.344   0.320  0.00  0.00    +0.151 C 
ATOM     21  C   UNL     1     -34.192  19.554   1.613  0.00  0.00    +0.006 C 
ATOM     22  C   UNL     1     -31.941  19.278   0.488  0.00  0.00    -0.012 C 
ATOM     23  C   UNL     1     -31.000  19.845  -0.280  0.00  0.00    +0.078 C 
ATOM     24  C   UNL     1     -31.778  17.880   1.009  0.00  0.00    +0.031 C 
ATOM     25  C   UNL     1     -31.116  21.213  -0.814  0.00  0.00    +0.346 C 
ENDBRANCH  13  16
ENDBRANCH   6  13
BRANCH   5  26
ATOM     26  C   UNL     1     -35.150  23.908   5.916  0.00  0.00    +0.169 C 
BRANCH  26  27
ATOM     27  O   UNL     1     -35.815  22.693   6.210  0.00  0.00    -0.379 OA
ATOM     28  H   UNL     1     -35.315  21.951   5.834  0.00  0.00    +0.211 HD
ENDBRANCH  26  27
ENDBRANCH   5  26
TORSDOF 7
ENDMDL
MODEL 4
REMARK VINA RESULT:      -6.7      4.662      7.905
REMARK  Name = 194267
REMARK  7 active torsions:
REMARK  status: ('A' for Active; 'I' for Inactive)
REMARK    1  A    between atoms: C_2  and  O_7
REMARK    2  A    between atoms: C_3  and  O_9
REMARK    3  A    between atoms: C_4  and  O_11
REMARK    4  A    between atoms: C_5  and  C_26
REMARK    5  A    between atoms: C_6  and  O_13
REMARK    6  A    between atoms: O_13  and  C_16
REMARK    7  A    between atoms: C_26  and  O_27
REMARK                            x       y       z     vdW  Elec       q    Type
REMARK                         _______ _______ _______ _____ _____    ______ ____
ROOT
ATOM      1  O   UNL     1     -38.044  23.538   3.374  0.00  0.00    -0.316 OA
ATOM      2  C   UNL     1     -35.932  21.677   2.808  0.00  0.00    +0.173 C 
ATOM      3  C   UNL     1     -37.393  21.356   2.486  0.00  0.00    +0.169 C 
ATOM      4  C   UNL     1     -35.837  22.708   3.933  0.00  0.00    +0.210 C 
ATOM      5  C   UNL     1     -38.191  22.648   2.262  0.00  0.00    +0.177 C 
ATOM      6  C   UNL     1     -36.687  23.932   3.589  0.00  0.00    +0.318 C 
ENDROOT
BRANCH   2   7
ATOM      7  O   UNL     1     -35.261  20.479   3.185  0.00  0.00    -0.379 OA
ATOM      8  H   UNL     1     -35.830  19.961   3.776  0.00  0.00    +0.211 HD
ENDBRANCH   2   7
BRANCH   3   9
ATOM      9  O   UNL     1     -37.453  20.560   1.305  0.00  0.00    -0.379 OA
ATOM     10  H   UNL     1     -37.539  19.625   1.550  0.00  0.00    +0.211 HD
ENDBRANCH   3   9
BRANCH   4  11
ATOM     11  O   UNL     1     -36.340  22.142   5.147  0.00  0.00    -0.377 OA
ATOM     12  H   UNL     1     -36.319  22.811   5.849  0.00  0.00    +0.211 HD
ENDBRANCH   4  11
BRANCH   6  13
ATOM     13  O   UNL     1     -36.597  24.866   4.660  0.00  0.00    -0.450 OA
BRANCH  13  16
ATOM     14  O   UNL     1     -33.717  27.940   2.420  0.00  0.00    -0.421 OA
ATOM     15  O   UNL     1     -32.347  29.414   1.333  0.00  0.00    -0.244 OA
ATOM     16  C   UNL     1     -35.492  25.675   4.680  0.00  0.00    +0.144 C 
ATOM     17  C   UNL     1     -35.149  26.404   3.552  0.00  0.00    +0.075 C 
ATOM     18  C   UNL     1     -34.721  25.761   5.833  0.00  0.00    +0.037 C 
ATOM     19  C   UNL     1     -33.223  27.333   4.734  0.00  0.00    +0.031 C 
ATOM     20  C   UNL     1     -34.019  27.222   3.594  0.00  0.00    +0.151 C 
ATOM     21  C   UNL     1     -33.591  26.587   5.861  0.00  0.00    +0.006 C 
ATOM     22  C   UNL     1     -32.051  28.219   4.690  0.00  0.00    -0.012 C 
ATOM     23  C   UNL     1     -31.787  28.891   3.560  0.00  0.00    +0.078 C 
ATOM     24  C   UNL     1     -31.174  28.360   5.899  0.00  0.00    +0.031 C 
ATOM     25  C   UNL     1     -32.619  28.784   2.349  0.00  0.00    +0.346 C 
ENDBRANCH  13  16
ENDBRANCH   6  13
BRANCH   5  26
ATOM     26  C   UNL     1     -39.680  22.367   2.094  0.00  0.00    +0.169 C 
BRANCH  26  27
ATOM     27  O   UNL     1     -39.915  20.999   2.373  0.00  0.00    -0.379 OA
ATOM     28  H   UNL     1     -39.574  20.457   1.644  0.00  0.00    +0.211 HD
ENDBRANCH  26  27
ENDBRANCH   5  26
TORSDOF 7
ENDMDL
MODEL 5
REMARK VINA RESULT:      -6.7      4.296      7.640
REMARK  Name = 194267
REMARK  7 active torsions:
REMARK  status: ('A' for Active; 'I' for Inactive)
REMARK    1  A    between atoms: C_2  and  O_7
REMARK    2  A    between atoms: C_3  and  O_9
REMARK    3  A    between atoms: C_4  and  O_11
REMARK    4  A    between atoms: C_5  and  C_26
REMARK    5  A    between atoms: C_6  and  O_13
REMARK    6  A    between atoms: O_13  and  C_16
REMARK    7  A    between atoms: C_26  and  O_27
REMARK                            x       y       z     vdW  Elec       q    Type
REMARK                         _______ _______ _______ _____ _____    ______ ____
ROOT
ATOM      1  O   UNL     1     -37.538  22.998   3.330  0.00  0.00    -0.316 OA
ATOM      2  C   UNL     1     -35.903  20.993   2.086  0.00  0.00    +0.173 C 
ATOM      3  C   UNL     1     -37.431  20.931   2.031  0.00  0.00    +0.169 C 
ATOM      4  C   UNL     1     -35.434  21.797   3.300  0.00  0.00    +0.210 C 
ATOM      5  C   UNL     1     -38.031  22.338   2.159  0.00  0.00    +0.177 C 
ATOM      6  C   UNL     1     -36.118  23.164   3.312  0.00  0.00    +0.318 C 
ENDROOT
BRANCH   2   7
ATOM      7  O   UNL     1     -35.381  19.669   2.145  0.00  0.00    -0.379 OA
ATOM      8  H   UNL     1     -35.920  19.084   1.590  0.00  0.00    +0.211 HD
ENDBRANCH   2   7
BRANCH   3   9
ATOM      9  O   UNL     1     -37.836  20.361   0.789  0.00  0.00    -0.379 OA
ATOM     10  H   UNL     1     -38.054  19.425   0.918  0.00  0.00    +0.211 HD
ENDBRANCH   3   9
BRANCH   4  11
ATOM     11  O   UNL     1     -35.793  21.106   4.500  0.00  0.00    -0.377 OA
ATOM     12  H   UNL     1     -36.722  20.830   4.449  0.00  0.00    +0.211 HD
ENDBRANCH   4  11
BRANCH   6  13
ATOM     13  O   UNL     1     -35.681  23.882   4.461  0.00  0.00    -0.450 OA
BRANCH  13  16
ATOM     14  O   UNL     1     -32.985  27.412   6.204  0.00  0.00    -0.421 OA
ATOM     15  O   UNL     1     -31.697  29.099   7.055  0.00  0.00    -0.244 OA
ATOM     16  C   UNL     1     -34.806  24.914   4.246  0.00  0.00    +0.144 C 
ATOM     17  C   UNL     1     -34.329  25.650   5.320  0.00  0.00    +0.075 C 
ATOM     18  C   UNL     1     -34.399  25.215   2.952  0.00  0.00    +0.037 C 
ATOM     19  C   UNL     1     -33.008  27.027   3.792  0.00  0.00    +0.031 C 
ATOM     20  C   UNL     1     -33.438  26.697   5.078  0.00  0.00    +0.151 C 
ATOM     21  C   UNL     1     -33.505  26.266   2.725  0.00  0.00    +0.006 C 
ATOM     22  C   UNL     1     -32.068  28.144   3.630  0.00  0.00    -0.012 C 
ATOM     23  C   UNL     1     -31.654  28.807   4.719  0.00  0.00    +0.078 C 
ATOM     24  C   UNL     1     -31.588  28.525   2.260  0.00  0.00    +0.031 C 
ATOM     25  C   UNL     1     -32.098  28.470   6.082  0.00  0.00    +0.346 C 
ENDBRANCH  13  16
ENDBRANCH   6  13
BRANCH   5  26
ATOM     26  C   UNL     1     -39.552  22.292   2.265  0.00  0.00    +0.169 C 
BRANCH  26  27
ATOM     27  O   UNL     1     -39.954  20.941   2.400  0.00  0.00    -0.379 OA
ATOM     28  H   UNL     1     -39.610  20.425   1.654  0.00  0.00    +0.211 HD
ENDBRANCH  26  27
ENDBRANCH   5  26
TORSDOF 7
ENDMDL
MODEL 6
REMARK VINA RESULT:      -6.7      1.819      2.693
REMARK  Name = 194267
REMARK  7 active torsions:
REMARK  status: ('A' for Active; 'I' for Inactive)
REMARK    1  A    between atoms: C_2  and  O_7
REMARK    2  A    between atoms: C_3  and  O_9
REMARK    3  A    between atoms: C_4  and  O_11
REMARK    4  A    between atoms: C_5  and  C_26
REMARK    5  A    between atoms: C_6  and  O_13
REMARK    6  A    between atoms: O_13  and  C_16
REMARK    7  A    between atoms: C_26  and  O_27
REMARK                            x       y       z     vdW  Elec       q    Type
REMARK                         _______ _______ _______ _____ _____    ______ ____
ROOT
ATOM      1  O   UNL     1     -35.823  23.300   3.415  0.00  0.00    -0.316 OA
ATOM      2  C   UNL     1     -37.246  25.780   3.161  0.00  0.00    +0.173 C 
ATOM      3  C   UNL     1     -36.916  25.180   4.530  0.00  0.00    +0.169 C 
ATOM      4  C   UNL     1     -37.297  24.693   2.088  0.00  0.00    +0.210 C 
ATOM      5  C   UNL     1     -35.670  24.288   4.439  0.00  0.00    +0.177 C 
ATOM      6  C   UNL     1     -36.006  23.873   2.118  0.00  0.00    +0.318 C 
ENDROOT
BRANCH   2   7
ATOM      7  O   UNL     1     -38.499  26.454   3.235  0.00  0.00    -0.379 OA
ATOM      8  H   UNL     1     -38.361  27.407   3.124  0.00  0.00    +0.211 HD
ENDBRANCH   2   7
BRANCH   3   9
ATOM      9  O   UNL     1     -36.671  26.232   5.460  0.00  0.00    -0.379 OA
ATOM     10  H   UNL     1     -36.549  27.066   4.981  0.00  0.00    +0.211 HD
ENDBRANCH   3   9
BRANCH   4  11
ATOM     11  O   UNL     1     -38.393  23.810   2.350  0.00  0.00    -0.377 OA
ATOM     12  H   UNL     1     -38.124  23.146   3.004  0.00  0.00    +0.211 HD
ENDBRANCH   4  11
BRANCH   6  13
ATOM     13  O   UNL     1     -36.088  22.856   1.125  0.00  0.00    -0.450 OA
BRANCH  13  16
ATOM     14  O   UNL     1     -33.235  19.035   1.298  0.00  0.00    -0.421 OA
ATOM     15  O   UNL     1     -31.880  17.195   1.390  0.00  0.00    -0.244 OA
ATOM     16  C   UNL     1     -34.914  22.244   0.773  0.00  0.00    +0.144 C 
ATOM     17  C   UNL     1     -34.652  20.953   1.204  0.00  0.00    +0.075 C 
ATOM     18  C   UNL     1     -33.992  22.922  -0.015  0.00  0.00    +0.037 C 
ATOM     19  C   UNL     1     -32.502  20.998   0.043  0.00  0.00    +0.031 C 
ATOM     20  C   UNL     1     -33.450  20.348   0.833  0.00  0.00    +0.151 C 
ATOM     21  C   UNL     1     -32.791  22.303  -0.379  0.00  0.00    +0.006 C 
ATOM     22  C   UNL     1     -31.264  20.285  -0.299  0.00  0.00    -0.012 C 
ATOM     23  C   UNL     1     -31.085  19.037   0.157  0.00  0.00    +0.078 C 
ATOM     24  C   UNL     1     -30.223  20.957  -1.147  0.00  0.00    +0.031 C 
ATOM     25  C   UNL     1     -32.077  18.338   0.991  0.00  0.00    +0.346 C 
ENDBRANCH  13  16
ENDBRANCH   6  13
BRANCH   5  26
ATOM     26  C   UNL     1     -35.408  23.554   5.750  0.00  0.00    +0.169 C 
BRANCH  26  27
ATOM     27  O   UNL     1     -36.112  22.325   5.726  0.00  0.00    -0.379 OA
ATOM     28  H   UNL     1     -37.031  22.484   5.459  0.00  0.00    +0.211 HD
ENDBRANCH  26  27
ENDBRANCH   5  26
TORSDOF 7
ENDMDL
MODEL 7
REMARK VINA RESULT:      -6.6      2.624      4.402
REMARK  Name = 194267
REMARK  7 active torsions:
REMARK  status: ('A' for Active; 'I' for Inactive)
REMARK    1  A    between atoms: C_2  and  O_7
REMARK    2  A    between atoms: C_3  and  O_9
REMARK    3  A    between atoms: C_4  and  O_11
REMARK    4  A    between atoms: C_5  and  C_26
REMARK    5  A    between atoms: C_6  and  O_13
REMARK    6  A    between atoms: O_13  and  C_16
REMARK    7  A    between atoms: C_26  and  O_27
REMARK                            x       y       z     vdW  Elec       q    Type
REMARK                         _______ _______ _______ _____ _____    ______ ____
ROOT
ATOM      1  O   UNL     1     -35.452  24.242   4.667  0.00  0.00    -0.316 OA
ATOM      2  C   UNL     1     -36.581  26.128   2.821  0.00  0.00    +0.173 C 
ATOM      3  C   UNL     1     -35.821  26.583   4.069  0.00  0.00    +0.169 C 
ATOM      4  C   UNL     1     -37.158  24.726   3.016  0.00  0.00    +0.210 C 
ATOM      5  C   UNL     1     -34.811  25.511   4.502  0.00  0.00    +0.177 C 
ATOM      6  C   UNL     1     -36.052  23.768   3.460  0.00  0.00    +0.318 C 
ENDROOT
BRANCH   2   7
ATOM      7  O   UNL     1     -37.628  27.054   2.547  0.00  0.00    -0.379 OA
ATOM      8  H   UNL     1     -37.328  27.695   1.883  0.00  0.00    +0.211 HD
ENDBRANCH   2   7
BRANCH   3   9
ATOM      9  O   UNL     1     -35.124  27.793   3.783  0.00  0.00    -0.379 OA
ATOM     10  H   UNL     1     -34.590  27.677   2.982  0.00  0.00    +0.211 HD
ENDBRANCH   3   9
BRANCH   4  11
ATOM     11  O   UNL     1     -38.160  24.757   4.037  0.00  0.00    -0.377 OA
ATOM     12  H   UNL     1     -38.861  25.378   3.783  0.00  0.00    +0.211 HD
ENDBRANCH   4  11
BRANCH   6  13
ATOM     13  O   UNL     1     -36.619  22.476   3.655  0.00  0.00    -0.450 OA
BRANCH  13  16
ATOM     14  O   UNL     1     -33.636  19.148   1.984  0.00  0.00    -0.421 OA
ATOM     15  O   UNL     1     -32.196  17.555   1.197  0.00  0.00    -0.244 OA
ATOM     16  C   UNL     1     -36.320  21.525   2.715  0.00  0.00    +0.144 C 
ATOM     17  C   UNL     1     -35.136  20.810   2.809  0.00  0.00    +0.075 C 
ATOM     18  C   UNL     1     -37.207  21.282   1.673  0.00  0.00    +0.037 C 
ATOM     19  C   UNL     1     -35.718  19.575   0.782  0.00  0.00    +0.031 C 
ATOM     20  C   UNL     1     -34.852  19.845   1.841  0.00  0.00    +0.151 C 
ATOM     21  C   UNL     1     -36.908  20.311   0.710  0.00  0.00    +0.006 C 
ATOM     22  C   UNL     1     -35.338  18.542  -0.192  0.00  0.00    -0.012 C 
ATOM     23  C   UNL     1     -34.176  17.894  -0.031  0.00  0.00    +0.078 C 
ATOM     24  C   UNL     1     -36.248  18.228  -1.343  0.00  0.00    +0.031 C 
ATOM     25  C   UNL     1     -33.251  18.168   1.082  0.00  0.00    +0.346 C 
ENDBRANCH  13  16
ENDBRANCH   6  13
BRANCH   5  26
ATOM     26  C   UNL     1     -34.150  25.867   5.830  0.00  0.00    +0.169 C 
BRANCH  26  27
ATOM     27  O   UNL     1     -33.063  26.737   5.574  0.00  0.00    -0.379 OA
ATOM     28  H   UNL     1     -32.633  26.481   4.743  0.00  0.00    +0.211 HD
ENDBRANCH  26  27
ENDBRANCH   5  26
TORSDOF 7
ENDMDL
MODEL 8
REMARK VINA RESULT:      -6.5      5.242      8.484
REMARK  Name = 194267
REMARK  7 active torsions:
REMARK  status: ('A' for Active; 'I' for Inactive)
REMARK    1  A    between atoms: C_2  and  O_7
REMARK    2  A    between atoms: C_3  and  O_9
REMARK    3  A    between atoms: C_4  and  O_11
REMARK    4  A    between atoms: C_5  and  C_26
REMARK    5  A    between atoms: C_6  and  O_13
REMARK    6  A    between atoms: O_13  and  C_16
REMARK    7  A    between atoms: C_26  and  O_27
REMARK                            x       y       z     vdW  Elec       q    Type
REMARK                         _______ _______ _______ _____ _____    ______ ____
ROOT
ATOM      1  O   UNL     1     -32.349  26.842   4.358  0.00  0.00    -0.316 OA
ATOM      2  C   UNL     1     -31.568  29.156   5.867  0.00  0.00    +0.173 C 
ATOM      3  C   UNL     1     -30.821  28.734   4.600  0.00  0.00    +0.169 C 
ATOM      4  C   UNL     1     -32.273  27.959   6.507  0.00  0.00    +0.210 C 
ATOM      5  C   UNL     1     -31.749  27.944   3.667  0.00  0.00    +0.177 C 
ATOM      6  C   UNL     1     -33.148  27.257   5.468  0.00  0.00    +0.318 C 
ENDROOT
BRANCH   2   7
ATOM      7  O   UNL     1     -30.643  29.728   6.788  0.00  0.00    -0.379 OA
ATOM      8  H   UNL     1     -30.554  30.677   6.609  0.00  0.00    +0.211 HD
ENDBRANCH   2   7
BRANCH   3   9
ATOM      9  O   UNL     1     -30.353  29.896   3.919  0.00  0.00    -0.379 OA
ATOM     10  H   UNL     1     -29.414  30.032   4.119  0.00  0.00    +0.211 HD
ENDBRANCH   3   9
BRANCH   4  11
ATOM     11  O   UNL     1     -31.299  27.023   6.977  0.00  0.00    -0.377 OA
ATOM     12  H   UNL     1     -30.525  27.503   7.312  0.00  0.00    +0.211 HD
ENDBRANCH   4  11
BRANCH   6  13
ATOM     13  O   UNL     1     -33.776  26.137   6.082  0.00  0.00    -0.450 OA
BRANCH  13  16
ATOM     14  O   UNL     1     -35.117  22.183   3.772  0.00  0.00    -0.421 OA
ATOM     15  O   UNL     1     -35.745  20.280   2.670  0.00  0.00    -0.244 OA
ATOM     16  C   UNL     1     -34.708  25.467   5.334  0.00  0.00    +0.144 C 
ATOM     17  C   UNL     1     -34.458  24.166   4.924  0.00  0.00    +0.075 C 
ATOM     18  C   UNL     1     -35.899  26.095   4.992  0.00  0.00    +0.037 C 
ATOM     19  C   UNL     1     -36.628  24.101   3.801  0.00  0.00    +0.031 C 
ATOM     20  C   UNL     1     -35.421  23.502   4.163  0.00  0.00    +0.151 C 
ATOM     21  C   UNL     1     -36.856  25.416   4.229  0.00  0.00    +0.006 C 
ATOM     22  C   UNL     1     -37.585  23.328   2.998  0.00  0.00    -0.012 C 
ATOM     23  C   UNL     1     -37.269  22.075   2.641  0.00  0.00    +0.078 C 
ATOM     24  C   UNL     1     -38.892  23.944   2.592  0.00  0.00    +0.031 C 
ATOM     25  C   UNL     1     -36.000  21.429   3.015  0.00  0.00    +0.346 C 
ENDBRANCH  13  16
ENDBRANCH   6  13
BRANCH   5  26
ATOM     26  C   UNL     1     -30.992  27.377   2.470  0.00  0.00    +0.169 C 
BRANCH  26  27
ATOM     27  O   UNL     1     -30.956  25.967   2.586  0.00  0.00    -0.379 OA
ATOM     28  H   UNL     1     -31.319  25.703   3.446  0.00  0.00    +0.211 HD
ENDBRANCH  26  27
ENDBRANCH   5  26
TORSDOF 7
ENDMDL
MODEL 9
REMARK VINA RESULT:      -6.5      5.725      8.453
REMARK  Name = 194267
REMARK  7 active torsions:
REMARK  status: ('A' for Active; 'I' for Inactive)
REMARK    1  A    between atoms: C_2  and  O_7
REMARK    2  A    between atoms: C_3  and  O_9
REMARK    3  A    between atoms: C_4  and  O_11
REMARK    4  A    between atoms: C_5  and  C_26
REMARK    5  A    between atoms: C_6  and  O_13
REMARK    6  A    between atoms: O_13  and  C_16
REMARK    7  A    between atoms: C_26  and  O_27
REMARK                            x       y       z     vdW  Elec       q    Type
REMARK                         _______ _______ _______ _____ _____    ______ ____
ROOT
ATOM      1  O   UNL     1     -32.864  28.347   4.843  0.00  0.00    -0.316 OA
ATOM      2  C   UNL     1     -32.205  30.271   2.816  0.00  0.00    +0.173 C 
ATOM      3  C   UNL     1     -31.431  30.196   4.134  0.00  0.00    +0.169 C 
ATOM      4  C   UNL     1     -33.615  29.702   2.980  0.00  0.00    +0.210 C 
ATOM      5  C   UNL     1     -31.505  28.779   4.721  0.00  0.00    +0.177 C 
ATOM      6  C   UNL     1     -33.542  28.301   3.586  0.00  0.00    +0.318 C 
ENDROOT
BRANCH   2   7
ATOM      7  O   UNL     1     -32.272  31.628   2.388  0.00  0.00    -0.379 OA
ATOM      8  H   UNL     1     -31.951  32.207   3.097  0.00  0.00    +0.211 HD
ENDBRANCH   2   7
BRANCH   3   9
ATOM      9  O   UNL     1     -30.066  30.535   3.901  0.00  0.00    -0.379 OA
ATOM     10  H   UNL     1     -29.591  29.754   3.577  0.00  0.00    +0.211 HD
ENDBRANCH   3   9
BRANCH   4  11
ATOM     11  O   UNL     1     -34.368  30.535   3.869  0.00  0.00    -0.377 OA
ATOM     12  H   UNL     1     -34.798  29.984   4.542  0.00  0.00    +0.211 HD
ENDBRANCH   4  11
BRANCH   6  13
ATOM     13  O   UNL     1     -34.867  27.804   3.747  0.00  0.00    -0.450 OA
BRANCH  13  16
ATOM     14  O   UNL     1     -35.188  23.293   2.225  0.00  0.00    -0.421 OA
ATOM     15  O   UNL     1     -35.339  21.136   1.479  0.00  0.00    -0.244 OA
ATOM     16  C   UNL     1     -34.993  26.470   4.031  0.00  0.00    +0.144 C 
ATOM     17  C   UNL     1     -35.028  25.544   2.999  0.00  0.00    +0.075 C 
ATOM     18  C   UNL     1     -35.084  26.051   5.353  0.00  0.00    +0.037 C 
ATOM     19  C   UNL     1     -35.251  23.734   4.626  0.00  0.00    +0.031 C 
ATOM     20  C   UNL     1     -35.157  24.190   3.311  0.00  0.00    +0.151 C 
ATOM     21  C   UNL     1     -35.212  24.690   5.650  0.00  0.00    +0.006 C 
ATOM     22  C   UNL     1     -35.384  22.290   4.862  0.00  0.00    -0.012 C 
ATOM     23  C   UNL     1     -35.410  21.460   3.810  0.00  0.00    +0.078 C 
ATOM     24  C   UNL     1     -35.488  21.768   6.265  0.00  0.00    +0.031 C 
ATOM     25  C   UNL     1     -35.312  21.926   2.417  0.00  0.00    +0.346 C 
ENDBRANCH  13  16
ENDBRANCH   6  13
BRANCH   5  26
ATOM     26  C   UNL     1     -30.876  28.713   6.109  0.00  0.00    +0.169 C 
BRANCH  26  27
ATOM     27  O   UNL     1     -31.212  27.471   6.698  0.00  0.00    -0.379 OA
ATOM     28  H   UNL     1     -32.177  27.362   6.695  0.00  0.00    +0.211 HD
ENDBRANCH  26  27
ENDBRANCH   5  26
TORSDOF 7
ENDMDL
