MODEL 1
REMARK VINA RESULT:      -5.1      0.000      0.000
REMARK  Name = 192232
REMARK  10 active torsions:
REMARK  status: ('A' for Active; 'I' for Inactive)
REMARK    1  A    between atoms: C_1  and  O_2
REMARK    2  A    between atoms: C_1  and  C_4
REMARK    3  A    between atoms: C_1  and  CA_14
REMARK    4  A    between atoms: C_4  and  O_5
REMARK    5  A    between atoms: C_4  and  C_7
REMARK    6  A    between atoms: C_7  and  O_8
REMARK    7  A    between atoms: C_7  and  C_11
REMARK    8  A    between atoms: C_11  and  O_12
REMARK    9  A    between atoms: CA_14  and  N_16
REMARK   10  A    between atoms: CA_14  and  C_21
REMARK                            x       y       z     vdW  Elec       q    Type
REMARK                         _______ _______ _______ _____ _____    ______ ____
ROOT
ATOM      1  C   UNL     1     -35.504  26.115   4.238  0.00  0.00    +0.166 C 
ENDROOT
BRANCH   1   2
ATOM      2  O   UNL     1     -36.429  26.648   5.190  0.00  0.00    -0.380 OA
ATOM      3  H   UNL     1     -36.810  27.470   4.844  0.00  0.00    +0.211 HD
ENDBRANCH   1   2
BRANCH   1   4
ATOM      4  C   UNL     1     -34.087  26.268   4.829  0.00  0.00    +0.177 C 
BRANCH   4   5
ATOM      5  O   UNL     1     -33.349  25.076   4.531  0.00  0.00    -0.379 OA
ATOM      6  H   UNL     1     -32.970  24.717   5.350  0.00  0.00    +0.211 HD
ENDBRANCH   4   5
BRANCH   4   7
ATOM      7  C   UNL     1     -33.286  27.460   4.290  0.00  0.00    +0.239 C 
BRANCH   7   8
ATOM      8  O   UNL     1     -34.226  28.439   3.841  0.00  0.00    -0.373 OA
ATOM      9  H   UNL     1     -35.062  28.329   4.323  0.00  0.00    +0.211 HD
ENDBRANCH   7   8
BRANCH   7  11
ATOM     10  O   UNL     1     -32.371  29.357   5.505  0.00  0.00    -0.248 OA
ATOM     11  C   UNL     1     -32.459  28.144   5.359  0.00  0.00    +0.344 C 
BRANCH  11  12
ATOM     12  O   UNL     1     -31.819  27.257   6.163  0.00  0.00    -0.478 OA
ATOM     13  H   UNL     1     -32.311  26.623   6.647  0.00  0.00    +0.295 HD
ENDBRANCH  11  12
ENDBRANCH   7  11
ENDBRANCH   4   7
ENDBRANCH   1   4
BRANCH   1  14
ATOM     14  CA  UNL     1     -35.901  24.661   3.936  0.00  0.00    +0.166 C 
BRANCH  14  16
ATOM     15  O   UNL     1     -35.279  21.829   4.084  0.00  0.00    -0.275 OA
ATOM     16  N   UNL     1     -35.906  23.825   5.108  0.00  0.00    -0.297 N 
ATOM     17  C   UNL     1     -35.593  22.473   5.081  0.00  0.00    +0.223 C 
ATOM     18  C   UNL     1     -35.650  21.844   6.447  0.00  0.00    +0.095 C 
ATOM     19  H   UNL     1     -36.142  24.232   5.972  0.00  0.00    +0.150 HD
ENDBRANCH  14  16
BRANCH  14  21
ATOM     20  O   UNL     1     -38.321  24.677   4.060  0.00  0.00    -0.286 OA
ATOM     21  C   UNL     1     -37.308  24.559   3.376  0.00  0.00    +0.229 C 
ENDBRANCH  14  21
ENDBRANCH   1  14
TORSDOF 10
ENDMDL
MODEL 2
REMARK VINA RESULT:      -5.0      2.649      5.973
REMARK  Name = 192232
REMARK  10 active torsions:
REMARK  status: ('A' for Active; 'I' for Inactive)
REMARK    1  A    between atoms: C_1  and  O_2
REMARK    2  A    between atoms: C_1  and  C_4
REMARK    3  A    between atoms: C_1  and  CA_14
REMARK    4  A    between atoms: C_4  and  O_5
REMARK    5  A    between atoms: C_4  and  C_7
REMARK    6  A    between atoms: C_7  and  O_8
REMARK    7  A    between atoms: C_7  and  C_11
REMARK    8  A    between atoms: C_11  and  O_12
REMARK    9  A    between atoms: CA_14  and  N_16
REMARK   10  A    between atoms: CA_14  and  C_21
REMARK                            x       y       z     vdW  Elec       q    Type
REMARK                         _______ _______ _______ _____ _____    ______ ____
ROOT
ATOM      1  C   UNL     1     -35.899  24.192   3.244  0.00  0.00    +0.166 C 
ENDROOT
BRANCH   1   2
ATOM      2  O   UNL     1     -34.500  24.295   3.527  0.00  0.00    -0.380 OA
ATOM      3  H   UNL     1     -34.213  23.515   4.027  0.00  0.00    +0.211 HD
ENDBRANCH   1   2
BRANCH   1   4
ATOM      4  C   UNL     1     -36.384  22.830   3.782  0.00  0.00    +0.177 C 
BRANCH   4   5
ATOM      5  O   UNL     1     -37.673  22.561   3.217  0.00  0.00    -0.379 OA
ATOM      6  H   UNL     1     -37.634  21.745   2.694  0.00  0.00    +0.211 HD
ENDBRANCH   4   5
BRANCH   4   7
ATOM      7  C   UNL     1     -35.472  21.641   3.451  0.00  0.00    +0.239 C 
BRANCH   7   8
ATOM      8  O   UNL     1     -35.451  20.786   4.596  0.00  0.00    -0.373 OA
ATOM      9  H   UNL     1     -35.409  21.326   5.402  0.00  0.00    +0.211 HD
ENDBRANCH   7   8
BRANCH   7  11
ATOM     10  O   UNL     1     -35.791  21.004   1.126  0.00  0.00    -0.248 OA
ATOM     11  C   UNL     1     -36.002  20.793   2.314  0.00  0.00    +0.344 C 
BRANCH  11  12
ATOM     12  O   UNL     1     -36.746  19.745   2.754  0.00  0.00    -0.478 OA
ATOM     13  H   UNL     1     -36.954  19.041   2.172  0.00  0.00    +0.295 HD
ENDBRANCH  11  12
ENDBRANCH   7  11
ENDBRANCH   4   7
ENDBRANCH   1   4
BRANCH   1  14
ATOM     14  CA  UNL     1     -36.612  25.401   3.871  0.00  0.00    +0.166 C 
BRANCH  14  16
ATOM     15  O   UNL     1     -38.574  26.640   2.127  0.00  0.00    -0.275 OA
ATOM     16  N   UNL     1     -38.043  25.248   3.916  0.00  0.00    -0.297 N 
ATOM     17  C   UNL     1     -38.906  25.884   3.036  0.00  0.00    +0.223 C 
ATOM     18  C   UNL     1     -40.347  25.529   3.288  0.00  0.00    +0.095 C 
ATOM     19  H   UNL     1     -38.428  24.661   4.606  0.00  0.00    +0.150 HD
ENDBRANCH  14  16
BRANCH  14  21
ATOM     20  O   UNL     1     -35.218  26.290   5.642  0.00  0.00    -0.286 OA
ATOM     21  C   UNL     1     -36.196  25.624   5.313  0.00  0.00    +0.229 C 
ENDBRANCH  14  21
ENDBRANCH   1  14
TORSDOF 10
ENDMDL
MODEL 3
REMARK VINA RESULT:      -5.0      4.584      6.366
REMARK  Name = 192232
REMARK  10 active torsions:
REMARK  status: ('A' for Active; 'I' for Inactive)
REMARK    1  A    between atoms: C_1  and  O_2
REMARK    2  A    between atoms: C_1  and  C_4
REMARK    3  A    between atoms: C_1  and  CA_14
REMARK    4  A    between atoms: C_4  and  O_5
REMARK    5  A    between atoms: C_4  and  C_7
REMARK    6  A    between atoms: C_7  and  O_8
REMARK    7  A    between atoms: C_7  and  C_11
REMARK    8  A    between atoms: C_11  and  O_12
REMARK    9  A    between atoms: CA_14  and  N_16
REMARK   10  A    between atoms: CA_14  and  C_21
REMARK                            x       y       z     vdW  Elec       q    Type
REMARK                         _______ _______ _______ _____ _____    ______ ____
ROOT
ATOM      1  C   UNL     1     -36.332  20.703   1.884  0.00  0.00    +0.166 C 
ENDROOT
BRANCH   1   2
ATOM      2  O   UNL     1     -36.839  19.715   2.785  0.00  0.00    -0.380 OA
ATOM      3  H   UNL     1     -36.896  20.091   3.678  0.00  0.00    +0.211 HD
ENDBRANCH   1   2
BRANCH   1   4
ATOM      4  C   UNL     1     -35.322  21.571   2.664  0.00  0.00    +0.177 C 
BRANCH   4   5
ATOM      5  O   UNL     1     -34.605  22.376   1.720  0.00  0.00    -0.379 OA
ATOM      6  H   UNL     1     -34.139  23.087   2.189  0.00  0.00    +0.211 HD
ENDBRANCH   4   5
BRANCH   4   7
ATOM      7  C   UNL     1     -35.945  22.512   3.703  0.00  0.00    +0.239 C 
BRANCH   7   8
ATOM      8  O   UNL     1     -37.364  22.452   3.538  0.00  0.00    -0.373 OA
ATOM      9  H   UNL     1     -37.690  23.311   3.226  0.00  0.00    +0.211 HD
ENDBRANCH   7   8
BRANCH   7  11
ATOM     10  O   UNL     1     -35.864  22.766   6.120  0.00  0.00    -0.248 OA
ATOM     11  C   UNL     1     -35.677  22.073   5.128  0.00  0.00    +0.344 C 
BRANCH  11  12
ATOM     12  O   UNL     1     -35.206  20.801   5.196  0.00  0.00    -0.478 OA
ATOM     13  H   UNL     1     -34.398  20.578   4.777  0.00  0.00    +0.295 HD
ENDBRANCH  11  12
ENDBRANCH   7  11
ENDBRANCH   4   7
ENDBRANCH   1   4
BRANCH   1  14
ATOM     14  CA  UNL     1     -35.728  19.986   0.666  0.00  0.00    +0.166 C 
BRANCH  14  16
ATOM     15  O   UNL     1     -32.847  20.292   0.499  0.00  0.00    -0.275 OA
ATOM     16  N   UNL     1     -34.724  19.018   1.024  0.00  0.00    -0.297 N 
ATOM     17  C   UNL     1     -33.362  19.255   0.909  0.00  0.00    +0.223 C 
ATOM     18  C   UNL     1     -32.535  18.087   1.376  0.00  0.00    +0.095 C 
ATOM     19  H   UNL     1     -35.019  18.145   1.368  0.00  0.00    +0.150 HD
ENDBRANCH  14  16
BRANCH  14  21
ATOM     20  O   UNL     1     -37.094  18.047   0.167  0.00  0.00    -0.286 OA
ATOM     21  C   UNL     1     -36.771  19.200  -0.107  0.00  0.00    +0.229 C 
ENDBRANCH  14  21
ENDBRANCH   1  14
TORSDOF 10
ENDMDL
MODEL 4
REMARK VINA RESULT:      -4.8      1.252      2.221
REMARK  Name = 192232
REMARK  10 active torsions:
REMARK  status: ('A' for Active; 'I' for Inactive)
REMARK    1  A    between atoms: C_1  and  O_2
REMARK    2  A    between atoms: C_1  and  C_4
REMARK    3  A    between atoms: C_1  and  CA_14
REMARK    4  A    between atoms: C_4  and  O_5
REMARK    5  A    between atoms: C_4  and  C_7
REMARK    6  A    between atoms: C_7  and  O_8
REMARK    7  A    between atoms: C_7  and  C_11
REMARK    8  A    between atoms: C_11  and  O_12
REMARK    9  A    between atoms: CA_14  and  N_16
REMARK   10  A    between atoms: CA_14  and  C_21
REMARK                            x       y       z     vdW  Elec       q    Type
REMARK                         _______ _______ _______ _____ _____    ______ ____
ROOT
ATOM      1  C   UNL     1     -37.337  25.281   3.470  0.00  0.00    +0.166 C 
ENDROOT
BRANCH   1   2
ATOM      2  O   UNL     1     -38.576  25.089   4.159  0.00  0.00    -0.380 OA
ATOM      3  H   UNL     1     -39.260  25.647   3.755  0.00  0.00    +0.211 HD
ENDBRANCH   1   2
BRANCH   1   4
ATOM      4  C   UNL     1     -36.541  26.359   4.234  0.00  0.00    +0.177 C 
BRANCH   4   5
ATOM      5  O   UNL     1     -36.435  25.949   5.603  0.00  0.00    -0.379 OA
ATOM      6  H   UNL     1     -37.212  25.420   5.843  0.00  0.00    +0.211 HD
ENDBRANCH   4   5
BRANCH   4   7
ATOM      7  C   UNL     1     -35.120  26.608   3.709  0.00  0.00    +0.239 C 
BRANCH   7   8
ATOM      8  O   UNL     1     -34.952  28.021   3.583  0.00  0.00    -0.373 OA
ATOM      9  H   UNL     1     -34.160  28.207   3.055  0.00  0.00    +0.211 HD
ENDBRANCH   7   8
BRANCH   7  11
ATOM     10  O   UNL     1     -33.584  25.017   4.720  0.00  0.00    -0.248 OA
ATOM     11  C   UNL     1     -34.048  26.149   4.676  0.00  0.00    +0.344 C 
BRANCH  11  12
ATOM     12  O   UNL     1     -33.638  27.146   5.502  0.00  0.00    -0.478 OA
ATOM     13  H   UNL     1     -33.702  28.040   5.226  0.00  0.00    +0.295 HD
ENDBRANCH  11  12
ENDBRANCH   7  11
ENDBRANCH   4   7
ENDBRANCH   1   4
BRANCH   1  14
ATOM     14  CA  UNL     1     -36.620  23.926   3.374  0.00  0.00    +0.166 C 
BRANCH  14  16
ATOM     15  O   UNL     1     -35.019  21.573   3.949  0.00  0.00    -0.275 OA
ATOM     16  N   UNL     1     -36.381  23.324   4.659  0.00  0.00    -0.297 N 
ATOM     17  C   UNL     1     -35.597  22.193   4.838  0.00  0.00    +0.223 C 
ATOM     18  C   UNL     1     -35.491  21.790   6.285  0.00  0.00    +0.095 C 
ATOM     19  H   UNL     1     -36.793  23.736   5.452  0.00  0.00    +0.150 HD
ENDBRANCH  14  16
BRANCH  14  21
ATOM     20  O   UNL     1     -38.591  22.599   2.898  0.00  0.00    -0.286 OA
ATOM     21  C   UNL     1     -37.437  22.901   2.608  0.00  0.00    +0.229 C 
ENDBRANCH  14  21
ENDBRANCH   1  14
TORSDOF 10
ENDMDL
MODEL 5
REMARK VINA RESULT:      -4.7      1.707      2.666
REMARK  Name = 192232
REMARK  10 active torsions:
REMARK  status: ('A' for Active; 'I' for Inactive)
REMARK    1  A    between atoms: C_1  and  O_2
REMARK    2  A    between atoms: C_1  and  C_4
REMARK    3  A    between atoms: C_1  and  CA_14
REMARK    4  A    between atoms: C_4  and  O_5
REMARK    5  A    between atoms: C_4  and  C_7
REMARK    6  A    between atoms: C_7  and  O_8
REMARK    7  A    between atoms: C_7  and  C_11
REMARK    8  A    between atoms: C_11  and  O_12
REMARK    9  A    between atoms: CA_14  and  N_16
REMARK   10  A    between atoms: CA_14  and  C_21
REMARK                            x       y       z     vdW  Elec       q    Type
REMARK                         _______ _______ _______ _____ _____    ______ ____
ROOT
ATOM      1  C   UNL     1     -36.680  24.391   4.725  0.00  0.00    +0.166 C 
ENDROOT
BRANCH   1   2
ATOM      2  O   UNL     1     -36.082  23.376   5.537  0.00  0.00    -0.380 OA
ATOM      3  H   UNL     1     -35.603  22.751   4.971  0.00  0.00    +0.211 HD
ENDBRANCH   1   2
BRANCH   1   4
ATOM      4  C   UNL     1     -35.747  25.619   4.752  0.00  0.00    +0.177 C 
BRANCH   4   5
ATOM      5  O   UNL     1     -36.421  26.675   5.449  0.00  0.00    -0.379 OA
ATOM      6  H   UNL     1     -36.745  26.345   6.302  0.00  0.00    +0.211 HD
ENDBRANCH   4   5
BRANCH   4   7
ATOM      7  C   UNL     1     -34.396  25.391   5.443  0.00  0.00    +0.239 C 
BRANCH   7   8
ATOM      8  O   UNL     1     -33.624  24.534   4.599  0.00  0.00    -0.373 OA
ATOM      9  H   UNL     1     -33.459  24.978   3.752  0.00  0.00    +0.211 HD
ENDBRANCH   7   8
BRANCH   7  11
ATOM     10  O   UNL     1     -32.801  26.894   6.496  0.00  0.00    -0.248 OA
ATOM     11  C   UNL     1     -33.587  26.664   5.586  0.00  0.00    +0.344 C 
BRANCH  11  12
ATOM     12  O   UNL     1     -33.822  27.541   4.576  0.00  0.00    -0.478 OA
ATOM     13  H   UNL     1     -33.854  27.237   3.689  0.00  0.00    +0.295 HD
ENDBRANCH  11  12
ENDBRANCH   7  11
ENDBRANCH   4   7
ENDBRANCH   1   4
BRANCH   1  14
ATOM     14  CA  UNL     1     -36.914  23.815   3.320  0.00  0.00    +0.166 C 
BRANCH  14  16
ATOM     15  O   UNL     1     -34.739  22.669   1.776  0.00  0.00    -0.275 OA
ATOM     16  N   UNL     1     -36.553  22.425   3.216  0.00  0.00    -0.297 N 
ATOM     17  C   UNL     1     -35.491  21.968   2.449  0.00  0.00    +0.223 C 
ATOM     18  C   UNL     1     -35.318  20.475   2.537  0.00  0.00    +0.095 C 
ATOM     19  H   UNL     1     -37.086  21.765   3.714  0.00  0.00    +0.150 HD
ENDBRANCH  14  16
BRANCH  14  21
ATOM     20  O   UNL     1     -39.229  24.494   3.543  0.00  0.00    -0.286 OA
ATOM     21  C   UNL     1     -38.376  23.871   2.916  0.00  0.00    +0.229 C 
ENDBRANCH  14  21
ENDBRANCH   1  14
TORSDOF 10
ENDMDL
MODEL 6
REMARK VINA RESULT:      -4.7      1.907      4.728
REMARK  Name = 192232
REMARK  10 active torsions:
REMARK  status: ('A' for Active; 'I' for Inactive)
REMARK    1  A    between atoms: C_1  and  O_2
REMARK    2  A    between atoms: C_1  and  C_4
REMARK    3  A    between atoms: C_1  and  CA_14
REMARK    4  A    between atoms: C_4  and  O_5
REMARK    5  A    between atoms: C_4  and  C_7
REMARK    6  A    between atoms: C_7  and  O_8
REMARK    7  A    between atoms: C_7  and  C_11
REMARK    8  A    between atoms: C_11  and  O_12
REMARK    9  A    between atoms: CA_14  and  N_16
REMARK   10  A    between atoms: CA_14  and  C_21
REMARK                            x       y       z     vdW  Elec       q    Type
REMARK                         _______ _______ _______ _____ _____    ______ ____
ROOT
ATOM      1  C   UNL     1     -36.505  25.791   4.794  0.00  0.00    +0.166 C 
ENDROOT
BRANCH   1   2
ATOM      2  O   UNL     1     -35.875  27.031   4.459  0.00  0.00    -0.380 OA
ATOM      3  H   UNL     1     -35.827  27.118   3.494  0.00  0.00    +0.211 HD
ENDBRANCH   1   2
BRANCH   1   4
ATOM      4  C   UNL     1     -37.037  25.169   3.486  0.00  0.00    +0.177 C 
BRANCH   4   5
ATOM      5  O   UNL     1     -38.010  24.174   3.830  0.00  0.00    -0.379 OA
ATOM      6  H   UNL     1     -37.644  23.292   3.657  0.00  0.00    +0.211 HD
ENDBRANCH   4   5
BRANCH   4   7
ATOM      7  C   UNL     1     -37.703  26.161   2.523  0.00  0.00    +0.239 C 
BRANCH   7   8
ATOM      8  O   UNL     1     -37.232  25.860   1.208  0.00  0.00    -0.373 OA
ATOM      9  H   UNL     1     -36.401  26.335   1.046  0.00  0.00    +0.211 HD
ENDBRANCH   7   8
BRANCH   7  11
ATOM     10  O   UNL     1     -39.816  25.402   1.591  0.00  0.00    -0.248 OA
ATOM     11  C   UNL     1     -39.209  26.004   2.467  0.00  0.00    +0.344 C 
BRANCH  11  12
ATOM     12  O   UNL     1     -39.830  26.605   3.514  0.00  0.00    -0.478 OA
ATOM     13  H   UNL     1     -39.333  26.874   4.262  0.00  0.00    +0.295 HD
ENDBRANCH  11  12
ENDBRANCH   7  11
ENDBRANCH   4   7
ENDBRANCH   1   4
BRANCH   1  14
ATOM     14  CA  UNL     1     -35.483  24.911   5.533  0.00  0.00    +0.166 C 
BRANCH  14  16
ATOM     15  O   UNL     1     -35.947  22.237   6.560  0.00  0.00    -0.275 OA
ATOM     16  N   UNL     1     -35.230  23.662   4.864  0.00  0.00    -0.297 N 
ATOM     17  C   UNL     1     -35.485  22.425   5.438  0.00  0.00    +0.223 C 
ATOM     18  C   UNL     1     -35.154  21.284   4.514  0.00  0.00    +0.095 C 
ATOM     19  H   UNL     1     -34.857  23.686   3.953  0.00  0.00    +0.150 HD
ENDBRANCH  14  16
BRANCH  14  21
ATOM     20  O   UNL     1     -33.324  25.641   4.710  0.00  0.00    -0.286 OA
ATOM     21  C   UNL     1     -34.125  25.581   5.639  0.00  0.00    +0.229 C 
ENDBRANCH  14  21
ENDBRANCH   1  14
TORSDOF 10
ENDMDL
MODEL 7
REMARK VINA RESULT:      -4.6      1.928      5.549
REMARK  Name = 192232
REMARK  10 active torsions:
REMARK  status: ('A' for Active; 'I' for Inactive)
REMARK    1  A    between atoms: C_1  and  O_2
REMARK    2  A    between atoms: C_1  and  C_4
REMARK    3  A    between atoms: C_1  and  CA_14
REMARK    4  A    between atoms: C_4  and  O_5
REMARK    5  A    between atoms: C_4  and  C_7
REMARK    6  A    between atoms: C_7  and  O_8
REMARK    7  A    between atoms: C_7  and  C_11
REMARK    8  A    between atoms: C_11  and  O_12
REMARK    9  A    between atoms: CA_14  and  N_16
REMARK   10  A    between atoms: CA_14  and  C_21
REMARK                            x       y       z     vdW  Elec       q    Type
REMARK                         _______ _______ _______ _____ _____    ______ ____
ROOT
ATOM      1  C   UNL     1     -35.721  25.608   5.497  0.00  0.00    +0.166 C 
ENDROOT
BRANCH   1   2
ATOM      2  O   UNL     1     -36.708  26.640   5.419  0.00  0.00    -0.380 OA
ATOM      3  H   UNL     1     -37.563  26.251   5.177  0.00  0.00    +0.211 HD
ENDBRANCH   1   2
BRANCH   1   4
ATOM      4  C   UNL     1     -36.198  24.439   4.610  0.00  0.00    +0.177 C 
BRANCH   4   5
ATOM      5  O   UNL     1     -35.958  24.791   3.242  0.00  0.00    -0.379 OA
ATOM      6  H   UNL     1     -35.950  25.757   3.153  0.00  0.00    +0.211 HD
ENDBRANCH   4   5
BRANCH   4   7
ATOM      7  C   UNL     1     -35.501  23.098   4.877  0.00  0.00    +0.239 C 
BRANCH   7   8
ATOM      8  O   UNL     1     -35.915  22.651   6.170  0.00  0.00    -0.373 OA
ATOM      9  H   UNL     1     -35.555  23.244   6.848  0.00  0.00    +0.211 HD
ENDBRANCH   7   8
BRANCH   7  11
ATOM     10  O   UNL     1     -36.636  22.189   2.929  0.00  0.00    -0.248 OA
ATOM     11  C   UNL     1     -35.926  22.012   3.910  0.00  0.00    +0.344 C 
BRANCH  11  12
ATOM     12  O   UNL     1     -35.421  20.797   4.244  0.00  0.00    -0.478 OA
ATOM     13  H   UNL     1     -34.516  20.712   4.473  0.00  0.00    +0.295 HD
ENDBRANCH  11  12
ENDBRANCH   7  11
ENDBRANCH   4   7
ENDBRANCH   1   4
BRANCH   1  14
ATOM     14  CA  UNL     1     -34.366  26.198   5.076  0.00  0.00    +0.166 C 
BRANCH  14  16
ATOM     15  O   UNL     1     -33.872  26.728   2.265  0.00  0.00    -0.275 OA
ATOM     16  N   UNL     1     -34.491  27.457   4.388  0.00  0.00    -0.297 N 
ATOM     17  C   UNL     1     -34.231  27.615   3.035  0.00  0.00    +0.223 C 
ATOM     18  C   UNL     1     -34.465  29.026   2.566  0.00  0.00    +0.095 C 
ATOM     19  H   UNL     1     -34.775  28.245   4.905  0.00  0.00    +0.150 HD
ENDBRANCH  14  16
BRANCH  14  21
ATOM     20  O   UNL     1     -32.860  27.543   6.416  0.00  0.00    -0.286 OA
ATOM     21  C   UNL     1     -33.476  26.491   6.270  0.00  0.00    +0.229 C 
ENDBRANCH  14  21
ENDBRANCH   1  14
TORSDOF 10
ENDMDL
MODEL 8
REMARK VINA RESULT:      -4.5      2.462      6.282
REMARK  Name = 192232
REMARK  10 active torsions:
REMARK  status: ('A' for Active; 'I' for Inactive)
REMARK    1  A    between atoms: C_1  and  O_2
REMARK    2  A    between atoms: C_1  and  C_4
REMARK    3  A    between atoms: C_1  and  CA_14
REMARK    4  A    between atoms: C_4  and  O_5
REMARK    5  A    between atoms: C_4  and  C_7
REMARK    6  A    between atoms: C_7  and  O_8
REMARK    7  A    between atoms: C_7  and  C_11
REMARK    8  A    between atoms: C_11  and  O_12
REMARK    9  A    between atoms: CA_14  and  N_16
REMARK   10  A    between atoms: CA_14  and  C_21
REMARK                            x       y       z     vdW  Elec       q    Type
REMARK                         _______ _______ _______ _____ _____    ______ ____
ROOT
ATOM      1  C   UNL     1     -35.850  22.022   3.183  0.00  0.00    +0.166 C 
ENDROOT
BRANCH   1   2
ATOM      2  O   UNL     1     -36.128  20.646   3.459  0.00  0.00    -0.380 OA
ATOM      3  H   UNL     1     -35.825  20.430   4.355  0.00  0.00    +0.211 HD
ENDBRANCH   1   2
BRANCH   1   4
ATOM      4  C   UNL     1     -37.190  22.709   2.845  0.00  0.00    +0.177 C 
BRANCH   4   5
ATOM      5  O   UNL     1     -36.902  24.013   2.322  0.00  0.00    -0.379 OA
ATOM      6  H   UNL     1     -37.696  24.568   2.382  0.00  0.00    +0.211 HD
ENDBRANCH   4   5
BRANCH   4   7
ATOM      7  C   UNL     1     -38.053  21.972   1.813  0.00  0.00    +0.239 C 
BRANCH   7   8
ATOM      8  O   UNL     1     -38.641  20.848   2.472  0.00  0.00    -0.373 OA
ATOM      9  H   UNL     1     -39.378  21.149   3.027  0.00  0.00    +0.211 HD
ENDBRANCH   7   8
BRANCH   7  11
ATOM     10  O   UNL     1     -40.304  22.889   1.860  0.00  0.00    -0.248 OA
ATOM     11  C   UNL     1     -39.212  22.808   1.311  0.00  0.00    +0.344 C 
BRANCH  11  12
ATOM     12  O   UNL     1     -38.909  23.481   0.172  0.00  0.00    -0.478 OA
ATOM     13  H   UNL     1     -39.119  23.109  -0.662  0.00  0.00    +0.295 HD
ENDBRANCH  11  12
ENDBRANCH   7  11
ENDBRANCH   4   7
ENDBRANCH   1   4
BRANCH   1  14
ATOM     14  CA  UNL     1     -35.128  22.626   4.398  0.00  0.00    +0.166 C 
BRANCH  14  16
ATOM     15  O   UNL     1     -33.776  25.135   4.947  0.00  0.00    -0.275 OA
ATOM     16  N   UNL     1     -35.721  23.858   4.849  0.00  0.00    -0.297 N 
ATOM     17  C   UNL     1     -34.990  25.013   5.086  0.00  0.00    +0.223 C 
ATOM     18  C   UNL     1     -35.859  26.162   5.524  0.00  0.00    +0.095 C 
ATOM     19  H   UNL     1     -36.694  23.882   4.996  0.00  0.00    +0.150 HD
ENDBRANCH  14  16
BRANCH  14  21
ATOM     20  O   UNL     1     -36.011  21.797   6.497  0.00  0.00    -0.286 OA
ATOM     21  C   UNL     1     -35.173  21.705   5.604  0.00  0.00    +0.229 C 
ENDBRANCH  14  21
ENDBRANCH   1  14
TORSDOF 10
ENDMDL
MODEL 9
REMARK VINA RESULT:      -4.5      2.315      5.627
REMARK  Name = 192232
REMARK  10 active torsions:
REMARK  status: ('A' for Active; 'I' for Inactive)
REMARK    1  A    between atoms: C_1  and  O_2
REMARK    2  A    between atoms: C_1  and  C_4
REMARK    3  A    between atoms: C_1  and  CA_14
REMARK    4  A    between atoms: C_4  and  O_5
REMARK    5  A    between atoms: C_4  and  C_7
REMARK    6  A    between atoms: C_7  and  O_8
REMARK    7  A    between atoms: C_7  and  C_11
REMARK    8  A    between atoms: C_11  and  O_12
REMARK    9  A    between atoms: CA_14  and  N_16
REMARK   10  A    between atoms: CA_14  and  C_21
REMARK                            x       y       z     vdW  Elec       q    Type
REMARK                         _______ _______ _______ _____ _____    ______ ____
ROOT
ATOM      1  C   UNL     1     -34.160  26.084   4.783  0.00  0.00    +0.166 C 
ENDROOT
BRANCH   1   2
ATOM      2  O   UNL     1     -33.727  26.950   5.836  0.00  0.00    -0.380 OA
ATOM      3  H   UNL     1     -34.488  27.441   6.183  0.00  0.00    +0.211 HD
ENDBRANCH   1   2
BRANCH   1   4
ATOM      4  C   UNL     1     -35.593  25.621   5.119  0.00  0.00    +0.177 C 
BRANCH   4   5
ATOM      5  O   UNL     1     -36.401  26.787   5.324  0.00  0.00    -0.379 OA
ATOM      6  H   UNL     1     -36.711  26.808   6.243  0.00  0.00    +0.211 HD
ENDBRANCH   4   5
BRANCH   4   7
ATOM      7  C   UNL     1     -36.268  24.768   4.037  0.00  0.00    +0.239 C 
BRANCH   7   8
ATOM      8  O   UNL     1     -36.684  23.547   4.653  0.00  0.00    -0.373 OA
ATOM      9  H   UNL     1     -37.588  23.648   4.991  0.00  0.00    +0.211 HD
ENDBRANCH   7   8
BRANCH   7  11
ATOM     10  O   UNL     1     -37.556  26.272   2.626  0.00  0.00    -0.248 OA
ATOM     11  C   UNL     1     -37.529  25.404   3.490  0.00  0.00    +0.344 C 
BRANCH  11  12
ATOM     12  O   UNL     1     -38.652  24.897   4.060  0.00  0.00    -0.478 OA
ATOM     13  H   UNL     1     -38.992  24.072   3.774  0.00  0.00    +0.295 HD
ENDBRANCH  11  12
ENDBRANCH   7  11
ENDBRANCH   4   7
ENDBRANCH   1   4
BRANCH   1  14
ATOM     14  CA  UNL     1     -34.045  26.843   3.451  0.00  0.00    +0.166 C 
BRANCH  14  16
ATOM     15  O   UNL     1     -35.352  28.529   1.482  0.00  0.00    -0.275 OA
ATOM     16  N   UNL     1     -34.367  28.241   3.572  0.00  0.00    -0.297 N 
ATOM     17  C   UNL     1     -34.996  28.968   2.572  0.00  0.00    +0.223 C 
ATOM     18  C   UNL     1     -35.238  30.400   2.968  0.00  0.00    +0.095 C 
ATOM     19  H   UNL     1     -34.130  28.705   4.408  0.00  0.00    +0.150 HD
ENDBRANCH  14  16
BRANCH  14  21
ATOM     20  O   UNL     1     -31.631  27.000   3.583  0.00  0.00    -0.286 OA
ATOM     21  C   UNL     1     -32.633  26.813   2.897  0.00  0.00    +0.229 C 
ENDBRANCH  14  21
ENDBRANCH   1  14
TORSDOF 10
ENDMDL
