MODEL 1
REMARK VINA RESULT:      -6.6      0.000      0.000
REMARK  Name = 57349455
REMARK  9 active torsions:
REMARK  status: ('A' for Active; 'I' for Inactive)
REMARK    1  A    between atoms: C_4  and  O_20
REMARK    2  A    between atoms: C_5  and  C_12
REMARK    3  A    between atoms: N_11  and  C_12
REMARK    4  A    between atoms: N_11  and  N_13
REMARK    5  A    between atoms: N_13  and  C_16
REMARK    6  A    between atoms: C_16  and  N_17
REMARK    7  A    between atoms: O_20  and  C_22
REMARK    8  A    between atoms: C_22  and  O_23
REMARK    9  A    between atoms: O_23  and  C_24
REMARK                            x       y       z     vdW  Elec       q    Type
REMARK                         _______ _______ _______ _____ _____    ______ ____
ROOT
ATOM      1  N   UNL     1     -35.186  23.568   5.979  0.00  0.00    -0.247 NA
ATOM      2  C   UNL     1     -36.221  22.554   3.566  0.00  0.00    +0.038 C 
ATOM      3  C   UNL     1     -36.374  23.919   3.887  0.00  0.00    +0.018 C 
ATOM      4  C   UNL     1     -36.746  22.073   2.355  0.00  0.00    +0.152 C 
ATOM      5  C   UNL     1     -35.838  24.359   5.098  0.00  0.00    +0.079 C 
ATOM      6  C   UNL     1     -37.047  24.774   2.998  0.00  0.00    +0.001 C 
ATOM      7  C   UNL     1     -35.548  21.718   4.464  0.00  0.00    +0.024 C 
ATOM      8  C   UNL     1     -37.413  22.932   1.479  0.00  0.00    +0.038 C 
ATOM      9  C   UNL     1     -37.563  24.280   1.800  0.00  0.00    +0.003 C 
ATOM     10  C   UNL     1     -35.057  22.268   5.638  0.00  0.00    +0.099 C 
ENDROOT
BRANCH   5  11
ATOM     11  C   UNL     1     -35.936  25.748   5.533  0.00  0.00    +0.157 C 
BRANCH  11  12
ATOM     12  N   UNL     1     -34.998  26.621   5.305  0.00  0.00    -0.126 NA
BRANCH  12  13
ATOM     13  N   UNL     1     -33.786  26.288   5.811  0.00  0.00    -0.244 N 
ATOM     14  H   UNL     1     -33.560  25.340   5.945  0.00  0.00    +0.170 HD
BRANCH  13  16
ATOM     15  S   UNL     1     -32.177  28.234   4.974  0.00  0.00    -0.018 S 
ATOM     16  C   UNL     1     -32.870  27.256   6.139  0.00  0.00    +0.143 C 
BRANCH  16  17
ATOM     17  N   UNL     1     -32.549  27.385   7.463  0.00  0.00    -0.340 N 
ATOM     18  H   UNL     1     -33.251  27.588   8.123  0.00  0.00    +0.144 HD
ATOM     19  H   UNL     1     -31.616  27.274   7.757  0.00  0.00    +0.144 HD
ENDBRANCH  16  17
ENDBRANCH  13  16
ENDBRANCH  12  13
ENDBRANCH  11  12
ENDBRANCH   5  11
BRANCH   4  20
ATOM     20  O   UNL     1     -36.622  20.761   1.999  0.00  0.00    -0.393 OA
BRANCH  20  22
ATOM     21  O   UNL     1     -36.298  19.923  -0.153  0.00  0.00    -0.202 OA
ATOM     22  C   UNL     1     -35.896  20.552   0.819  0.00  0.00    +0.521 C 
BRANCH  22  23
ATOM     23  O   UNL     1     -34.661  21.173   0.944  0.00  0.00    -0.393 OA
BRANCH  23  24
ATOM     24  C   UNL     1     -33.590  20.281   0.861  0.00  0.00    +0.152 C 
ATOM     25  C   UNL     1     -33.631  19.075   1.561  0.00  0.00    +0.038 C 
ATOM     26  C   UNL     1     -32.479  20.594   0.077  0.00  0.00    +0.038 C 
ATOM     27  C   UNL     1     -32.561  18.183   1.478  0.00  0.00    +0.003 C 
ATOM     28  C   UNL     1     -31.411  19.703  -0.006  0.00  0.00    +0.003 C 
ATOM     29  C   UNL     1     -31.451  18.497   0.695  0.00  0.00    +0.000 C 
ENDBRANCH  23  24
ENDBRANCH  22  23
ENDBRANCH  20  22
ENDBRANCH   4  20
TORSDOF 9
ENDMDL
MODEL 2
REMARK VINA RESULT:      -6.5      2.396      3.763
REMARK  Name = 57349455
REMARK  9 active torsions:
REMARK  status: ('A' for Active; 'I' for Inactive)
REMARK    1  A    between atoms: C_4  and  O_20
REMARK    2  A    between atoms: C_5  and  C_12
REMARK    3  A    between atoms: N_11  and  C_12
REMARK    4  A    between atoms: N_11  and  N_13
REMARK    5  A    between atoms: N_13  and  C_16
REMARK    6  A    between atoms: C_16  and  N_17
REMARK    7  A    between atoms: O_20  and  C_22
REMARK    8  A    between atoms: C_22  and  O_23
REMARK    9  A    between atoms: O_23  and  C_24
REMARK                            x       y       z     vdW  Elec       q    Type
REMARK                         _______ _______ _______ _____ _____    ______ ____
ROOT
ATOM      1  N   UNL     1     -33.286  26.944   5.513  0.00  0.00    -0.247 NA
ATOM      2  C   UNL     1     -35.610  26.019   4.222  0.00  0.00    +0.038 C 
ATOM      3  C   UNL     1     -34.838  27.047   3.644  0.00  0.00    +0.018 C 
ATOM      4  C   UNL     1     -36.766  25.575   3.558  0.00  0.00    +0.152 C 
ATOM      5  C   UNL     1     -33.697  27.461   4.333  0.00  0.00    +0.079 C 
ATOM      6  C   UNL     1     -35.232  27.612   2.419  0.00  0.00    +0.001 C 
ATOM      7  C   UNL     1     -35.201  25.469   5.443  0.00  0.00    +0.024 C 
ATOM      8  C   UNL     1     -37.148  26.144   2.341  0.00  0.00    +0.038 C 
ATOM      9  C   UNL     1     -36.383  27.160   1.773  0.00  0.00    +0.003 C 
ATOM     10  C   UNL     1     -34.049  25.960   6.036  0.00  0.00    +0.099 C 
ENDROOT
BRANCH   5  11
ATOM     11  C   UNL     1     -32.824  28.516   3.831  0.00  0.00    +0.157 C 
BRANCH  11  12
ATOM     12  N   UNL     1     -32.892  29.743   4.260  0.00  0.00    -0.126 NA
BRANCH  12  13
ATOM     13  N   UNL     1     -32.480  29.916   5.539  0.00  0.00    -0.244 N 
ATOM     14  H   UNL     1     -33.132  30.178   6.227  0.00  0.00    +0.170 HD
BRANCH  13  16
ATOM     15  S   UNL     1     -29.946  30.665   5.227  0.00  0.00    -0.018 S 
ATOM     16  C   UNL     1     -31.165  29.730   5.886  0.00  0.00    +0.143 C 
BRANCH  16  17
ATOM     17  N   UNL     1     -30.897  28.745   6.797  0.00  0.00    -0.340 N 
ATOM     18  H   UNL     1     -31.176  28.851   7.735  0.00  0.00    +0.144 HD
ATOM     19  H   UNL     1     -30.425  27.928   6.515  0.00  0.00    +0.144 HD
ENDBRANCH  16  17
ENDBRANCH  13  16
ENDBRANCH  12  13
ENDBRANCH  11  12
ENDBRANCH   5  11
BRANCH   4  20
ATOM     20  O   UNL     1     -37.545  24.581   4.076  0.00  0.00    -0.393 OA
BRANCH  20  22
ATOM     21  O   UNL     1     -38.232  22.961   2.546  0.00  0.00    -0.202 OA
ATOM     22  C   UNL     1     -37.446  23.360   3.397  0.00  0.00    +0.521 C 
BRANCH  22  23
ATOM     23  O   UNL     1     -36.316  22.691   3.851  0.00  0.00    -0.393 OA
BRANCH  23  24
ATOM     24  C   UNL     1     -35.586  22.092   2.822  0.00  0.00    +0.152 C 
ATOM     25  C   UNL     1     -34.988  22.881   1.839  0.00  0.00    +0.038 C 
ATOM     26  C   UNL     1     -35.455  20.704   2.777  0.00  0.00    +0.038 C 
ATOM     27  C   UNL     1     -34.259  22.282   0.812  0.00  0.00    +0.003 C 
ATOM     28  C   UNL     1     -34.726  20.106   1.750  0.00  0.00    +0.003 C 
ATOM     29  C   UNL     1     -34.128  20.895   0.767  0.00  0.00    +0.000 C 
ENDBRANCH  23  24
ENDBRANCH  22  23
ENDBRANCH  20  22
ENDBRANCH   4  20
TORSDOF 9
ENDMDL
MODEL 3
REMARK VINA RESULT:      -6.4      1.731      3.027
REMARK  Name = 57349455
REMARK  9 active torsions:
REMARK  status: ('A' for Active; 'I' for Inactive)
REMARK    1  A    between atoms: C_4  and  O_20
REMARK    2  A    between atoms: C_5  and  C_12
REMARK    3  A    between atoms: N_11  and  C_12
REMARK    4  A    between atoms: N_11  and  N_13
REMARK    5  A    between atoms: N_13  and  C_16
REMARK    6  A    between atoms: C_16  and  N_17
REMARK    7  A    between atoms: O_20  and  C_22
REMARK    8  A    between atoms: C_22  and  O_23
REMARK    9  A    between atoms: O_23  and  C_24
REMARK                            x       y       z     vdW  Elec       q    Type
REMARK                         _______ _______ _______ _____ _____    ______ ____
ROOT
ATOM      1  N   UNL     1     -34.775  27.157   4.077  0.00  0.00    -0.247 NA
ATOM      2  C   UNL     1     -35.790  24.548   3.780  0.00  0.00    +0.038 C 
ATOM      3  C   UNL     1     -34.902  24.849   4.833  0.00  0.00    +0.018 C 
ATOM      4  C   UNL     1     -36.283  23.239   3.654  0.00  0.00    +0.152 C 
ATOM      5  C   UNL     1     -34.434  26.161   4.926  0.00  0.00    +0.079 C 
ATOM      6  C   UNL     1     -34.523  23.842   5.736  0.00  0.00    +0.001 C 
ATOM      7  C   UNL     1     -36.156  25.566   2.891  0.00  0.00    +0.024 C 
ATOM      8  C   UNL     1     -35.899  22.246   4.557  0.00  0.00    +0.038 C 
ATOM      9  C   UNL     1     -35.021  22.546   5.596  0.00  0.00    +0.003 C 
ATOM     10  C   UNL     1     -35.628  26.832   3.082  0.00  0.00    +0.099 C 
ENDROOT
BRANCH   5  11
ATOM     11  C   UNL     1     -33.512  26.586   5.973  0.00  0.00    +0.157 C 
BRANCH  11  12
ATOM     12  N   UNL     1     -32.418  27.243   5.717  0.00  0.00    -0.126 NA
BRANCH  12  13
ATOM     13  N   UNL     1     -32.589  28.574   5.538  0.00  0.00    -0.244 N 
ATOM     14  H   UNL     1     -33.324  28.896   4.969  0.00  0.00    +0.170 HD
BRANCH  13  16
ATOM     15  S   UNL     1     -31.014  30.701   5.269  0.00  0.00    -0.018 S 
ATOM     16  C   UNL     1     -31.751  29.480   6.140  0.00  0.00    +0.143 C 
BRANCH  16  17
ATOM     17  N   UNL     1     -31.548  29.337   7.486  0.00  0.00    -0.340 N 
ATOM     18  H   UNL     1     -31.731  30.089   8.094  0.00  0.00    +0.144 HD
ATOM     19  H   UNL     1     -31.217  28.483   7.846  0.00  0.00    +0.144 HD
ENDBRANCH  16  17
ENDBRANCH  13  16
ENDBRANCH  12  13
ENDBRANCH  11  12
ENDBRANCH   5  11
BRANCH   4  20
ATOM     20  O   UNL     1     -37.146  22.899   2.652  0.00  0.00    -0.393 OA
BRANCH  20  22
ATOM     21  O   UNL     1     -35.872  22.661   0.713  0.00  0.00    -0.202 OA
ATOM     22  C   UNL     1     -36.557  22.176   1.607  0.00  0.00    +0.521 C 
BRANCH  22  23
ATOM     23  O   UNL     1     -36.880  20.834   1.759  0.00  0.00    -0.393 OA
BRANCH  23  24
ATOM     24  C   UNL     1     -35.871  19.976   1.315  0.00  0.00    +0.152 C 
ATOM     25  C   UNL     1     -34.628  19.974   1.950  0.00  0.00    +0.038 C 
ATOM     26  C   UNL     1     -36.106  19.120   0.239  0.00  0.00    +0.038 C 
ATOM     27  C   UNL     1     -33.621  19.117   1.507  0.00  0.00    +0.003 C 
ATOM     28  C   UNL     1     -35.099  18.264  -0.203  0.00  0.00    +0.003 C 
ATOM     29  C   UNL     1     -33.856  18.262   0.430  0.00  0.00    +0.000 C 
ENDBRANCH  23  24
ENDBRANCH  22  23
ENDBRANCH  20  22
ENDBRANCH   4  20
TORSDOF 9
ENDMDL
MODEL 4
REMARK VINA RESULT:      -6.4      2.496      3.321
REMARK  Name = 57349455
REMARK  9 active torsions:
REMARK  status: ('A' for Active; 'I' for Inactive)
REMARK    1  A    between atoms: C_4  and  O_20
REMARK    2  A    between atoms: C_5  and  C_12
REMARK    3  A    between atoms: N_11  and  C_12
REMARK    4  A    between atoms: N_11  and  N_13
REMARK    5  A    between atoms: N_13  and  C_16
REMARK    6  A    between atoms: C_16  and  N_17
REMARK    7  A    between atoms: O_20  and  C_22
REMARK    8  A    between atoms: C_22  and  O_23
REMARK    9  A    between atoms: O_23  and  C_24
REMARK                            x       y       z     vdW  Elec       q    Type
REMARK                         _______ _______ _______ _____ _____    ______ ____
ROOT
ATOM      1  N   UNL     1     -33.155  26.256   1.994  0.00  0.00    -0.247 NA
ATOM      2  C   UNL     1     -34.754  24.118   2.885  0.00  0.00    +0.038 C 
ATOM      3  C   UNL     1     -34.309  25.099   3.795  0.00  0.00    +0.018 C 
ATOM      4  C   UNL     1     -35.551  23.060   3.355  0.00  0.00    +0.152 C 
ATOM      5  C   UNL     1     -33.519  26.133   3.290  0.00  0.00    +0.079 C 
ATOM      6  C   UNL     1     -34.664  25.006   5.151  0.00  0.00    +0.001 C 
ATOM      7  C   UNL     1     -34.389  24.226   1.538  0.00  0.00    +0.024 C 
ATOM      8  C   UNL     1     -35.897  22.979   4.705  0.00  0.00    +0.038 C 
ATOM      9  C   UNL     1     -35.455  23.949   5.601  0.00  0.00    +0.003 C 
ATOM     10  C   UNL     1     -33.601  25.299   1.152  0.00  0.00    +0.099 C 
ENDROOT
BRANCH   5  11
ATOM     11  C   UNL     1     -33.002  27.202   4.137  0.00  0.00    +0.157 C 
BRANCH  11  12
ATOM     12  N   UNL     1     -33.418  28.432   4.044  0.00  0.00    -0.126 NA
BRANCH  12  13
ATOM     13  N   UNL     1     -34.680  28.565   3.571  0.00  0.00    -0.244 N 
ATOM     14  H   UNL     1     -35.366  27.909   3.829  0.00  0.00    +0.170 HD
BRANCH  13  16
ATOM     15  S   UNL     1     -34.719  29.530   1.092  0.00  0.00    -0.018 S 
ATOM     16  C   UNL     1     -35.014  29.601   2.736  0.00  0.00    +0.143 C 
BRANCH  16  17
ATOM     17  N   UNL     1     -35.600  30.697   3.309  0.00  0.00    -0.340 N 
ATOM     18  H   UNL     1     -35.118  31.554   3.341  0.00  0.00    +0.144 HD
ATOM     19  H   UNL     1     -36.506  30.627   3.691  0.00  0.00    +0.144 HD
ENDBRANCH  16  17
ENDBRANCH  13  16
ENDBRANCH  12  13
ENDBRANCH  11  12
ENDBRANCH   5  11
BRANCH   4  20
ATOM     20  O   UNL     1     -36.008  22.087   2.513  0.00  0.00    -0.393 OA
BRANCH  20  22
ATOM     21  O   UNL     1     -35.049  20.396   3.802  0.00  0.00    -0.202 OA
ATOM     22  C   UNL     1     -35.426  20.830   2.720  0.00  0.00    +0.521 C 
BRANCH  22  23
ATOM     23  O   UNL     1     -35.353  20.170   1.500  0.00  0.00    -0.393 OA
BRANCH  23  24
ATOM     24  C   UNL     1     -34.040  19.951   1.075  0.00  0.00    +0.152 C 
ATOM     25  C   UNL     1     -33.388  18.764   1.410  0.00  0.00    +0.038 C 
ATOM     26  C   UNL     1     -33.382  20.918   0.315  0.00  0.00    +0.038 C 
ATOM     27  C   UNL     1     -32.077  18.545   0.985  0.00  0.00    +0.003 C 
ATOM     28  C   UNL     1     -32.073  20.699  -0.109  0.00  0.00    +0.003 C 
ATOM     29  C   UNL     1     -31.419  19.512   0.226  0.00  0.00    +0.000 C 
ENDBRANCH  23  24
ENDBRANCH  22  23
ENDBRANCH  20  22
ENDBRANCH   4  20
TORSDOF 9
ENDMDL
MODEL 5
REMARK VINA RESULT:      -6.4      4.284      7.006
REMARK  Name = 57349455
REMARK  9 active torsions:
REMARK  status: ('A' for Active; 'I' for Inactive)
REMARK    1  A    between atoms: C_4  and  O_20
REMARK    2  A    between atoms: C_5  and  C_12
REMARK    3  A    between atoms: N_11  and  C_12
REMARK    4  A    between atoms: N_11  and  N_13
REMARK    5  A    between atoms: N_13  and  C_16
REMARK    6  A    between atoms: C_16  and  N_17
REMARK    7  A    between atoms: O_20  and  C_22
REMARK    8  A    between atoms: C_22  and  O_23
REMARK    9  A    between atoms: O_23  and  C_24
REMARK                            x       y       z     vdW  Elec       q    Type
REMARK                         _______ _______ _______ _____ _____    ______ ____
ROOT
ATOM      1  N   UNL     1     -36.155  22.362   1.279  0.00  0.00    -0.247 NA
ATOM      2  C   UNL     1     -35.881  23.482   3.847  0.00  0.00    +0.038 C 
ATOM      3  C   UNL     1     -35.608  22.115   3.635  0.00  0.00    +0.018 C 
ATOM      4  C   UNL     1     -35.736  24.017   5.138  0.00  0.00    +0.152 C 
ATOM      5  C   UNL     1     -35.762  21.621   2.339  0.00  0.00    +0.079 C 
ATOM      6  C   UNL     1     -35.198  21.310   4.712  0.00  0.00    +0.001 C 
ATOM      7  C   UNL     1     -36.288  24.268   2.762  0.00  0.00    +0.024 C 
ATOM      8  C   UNL     1     -35.329  23.207   6.200  0.00  0.00    +0.038 C 
ATOM      9  C   UNL     1     -35.060  21.857   5.987  0.00  0.00    +0.003 C 
ATOM     10  C   UNL     1     -36.407  23.667   1.519  0.00  0.00    +0.099 C 
ENDROOT
BRANCH   5  11
ATOM     11  C   UNL     1     -35.509  20.224   2.003  0.00  0.00    +0.157 C 
BRANCH  11  12
ATOM     12  N   UNL     1     -34.586  19.865   1.158  0.00  0.00    -0.126 NA
BRANCH  12  13
ATOM     13  N   UNL     1     -33.771  18.878   1.601  0.00  0.00    -0.244 N 
ATOM     14  H   UNL     1     -34.106  18.234   2.265  0.00  0.00    +0.170 HD
BRANCH  13  16
ATOM     15  S   UNL     1     -31.823  19.906   0.110  0.00  0.00    -0.018 S 
ATOM     16  C   UNL     1     -32.485  18.765   1.137  0.00  0.00    +0.143 C 
BRANCH  16  17
ATOM     17  N   UNL     1     -31.768  17.676   1.552  0.00  0.00    -0.340 N 
ATOM     18  H   UNL     1     -32.200  16.980   2.098  0.00  0.00    +0.144 HD
ATOM     19  H   UNL     1     -30.819  17.587   1.304  0.00  0.00    +0.144 HD
ENDBRANCH  16  17
ENDBRANCH  13  16
ENDBRANCH  12  13
ENDBRANCH  11  12
ENDBRANCH   5  11
BRANCH   4  20
ATOM     20  O   UNL     1     -35.987  25.334   5.393  0.00  0.00    -0.393 OA
BRANCH  20  22
ATOM     21  O   UNL     1     -33.984  26.087   6.320  0.00  0.00    -0.202 OA
ATOM     22  C   UNL     1     -34.841  26.138   5.445  0.00  0.00    +0.521 C 
BRANCH  22  23
ATOM     23  O   UNL     1     -34.846  26.989   4.348  0.00  0.00    -0.393 OA
BRANCH  23  24
ATOM     24  C   UNL     1     -33.614  27.040   3.691  0.00  0.00    +0.152 C 
ATOM     25  C   UNL     1     -33.220  25.987   2.865  0.00  0.00    +0.038 C 
ATOM     26  C   UNL     1     -32.779  28.145   3.859  0.00  0.00    +0.038 C 
ATOM     27  C   UNL     1     -31.990  26.038   2.209  0.00  0.00    +0.003 C 
ATOM     28  C   UNL     1     -31.550  28.196   3.203  0.00  0.00    +0.003 C 
ATOM     29  C   UNL     1     -31.155  27.142   2.378  0.00  0.00    +0.000 C 
ENDBRANCH  23  24
ENDBRANCH  22  23
ENDBRANCH  20  22
ENDBRANCH   4  20
TORSDOF 9
ENDMDL
MODEL 6
REMARK VINA RESULT:      -6.3      1.318      1.418
REMARK  Name = 57349455
REMARK  9 active torsions:
REMARK  status: ('A' for Active; 'I' for Inactive)
REMARK    1  A    between atoms: C_4  and  O_20
REMARK    2  A    between atoms: C_5  and  C_12
REMARK    3  A    between atoms: N_11  and  C_12
REMARK    4  A    between atoms: N_11  and  N_13
REMARK    5  A    between atoms: N_13  and  C_16
REMARK    6  A    between atoms: C_16  and  N_17
REMARK    7  A    between atoms: O_20  and  C_22
REMARK    8  A    between atoms: C_22  and  O_23
REMARK    9  A    between atoms: O_23  and  C_24
REMARK                            x       y       z     vdW  Elec       q    Type
REMARK                         _______ _______ _______ _____ _____    ______ ____
ROOT
ATOM      1  N   UNL     1     -34.716  24.474   5.496  0.00  0.00    -0.247 NA
ATOM      2  C   UNL     1     -35.684  23.011   3.295  0.00  0.00    +0.038 C 
ATOM      3  C   UNL     1     -35.151  24.303   3.110  0.00  0.00    +0.018 C 
ATOM      4  C   UNL     1     -36.161  22.301   2.181  0.00  0.00    +0.152 C 
ATOM      5  C   UNL     1     -34.687  24.977   4.241  0.00  0.00    +0.079 C 
ATOM      6  C   UNL     1     -35.105  24.861   1.821  0.00  0.00    +0.001 C 
ATOM      7  C   UNL     1     -35.722  22.472   4.587  0.00  0.00    +0.024 C 
ATOM      8  C   UNL     1     -36.110  22.865   0.904  0.00  0.00    +0.038 C 
ATOM      9  C   UNL     1     -35.583  24.143   0.725  0.00  0.00    +0.003 C 
ATOM     10  C   UNL     1     -35.232  23.235   5.635  0.00  0.00    +0.099 C 
ENDROOT
BRANCH   5  11
ATOM     11  C   UNL     1     -34.117  26.317   4.169  0.00  0.00    +0.157 C 
BRANCH  11  12
ATOM     12  N   UNL     1     -32.945  26.605   4.657  0.00  0.00    -0.126 NA
BRANCH  12  13
ATOM     13  N   UNL     1     -32.855  27.837   5.213  0.00  0.00    -0.244 N 
ATOM     14  H   UNL     1     -33.321  28.594   4.792  0.00  0.00    +0.170 HD
BRANCH  13  16
ATOM     15  S   UNL     1     -30.867  29.146   6.401  0.00  0.00    -0.018 S 
ATOM     16  C   UNL     1     -32.123  28.043   6.355  0.00  0.00    +0.143 C 
BRANCH  16  17
ATOM     17  N   UNL     1     -32.467  27.305   7.455  0.00  0.00    -0.340 N 
ATOM     18  H   UNL     1     -33.396  27.002   7.575  0.00  0.00    +0.144 HD
ATOM     19  H   UNL     1     -31.785  27.076   8.127  0.00  0.00    +0.144 HD
ENDBRANCH  16  17
ENDBRANCH  13  16
ENDBRANCH  12  13
ENDBRANCH  11  12
ENDBRANCH   5  11
BRANCH   4  20
ATOM     20  O   UNL     1     -36.684  21.046   2.309  0.00  0.00    -0.393 OA
BRANCH  20  22
ATOM     21  O   UNL     1     -36.314  19.475   0.625  0.00  0.00    -0.202 OA
ATOM     22  C   UNL     1     -35.955  20.049   1.647  0.00  0.00    +0.521 C 
BRANCH  22  23
ATOM     23  O   UNL     1     -34.773  19.831   2.341  0.00  0.00    -0.393 OA
BRANCH  23  24
ATOM     24  C   UNL     1     -33.674  19.636   1.500  0.00  0.00    +0.152 C 
ATOM     25  C   UNL     1     -32.993  18.419   1.513  0.00  0.00    +0.038 C 
ATOM     26  C   UNL     1     -33.259  20.659   0.646  0.00  0.00    +0.038 C 
ATOM     27  C   UNL     1     -31.896  18.225   0.674  0.00  0.00    +0.003 C 
ATOM     28  C   UNL     1     -32.163  20.464  -0.192  0.00  0.00    +0.003 C 
ATOM     29  C   UNL     1     -31.481  19.247  -0.179  0.00  0.00    +0.000 C 
ENDBRANCH  23  24
ENDBRANCH  22  23
ENDBRANCH  20  22
ENDBRANCH   4  20
TORSDOF 9
ENDMDL
MODEL 7
REMARK VINA RESULT:      -6.3      4.699      7.373
REMARK  Name = 57349455
REMARK  9 active torsions:
REMARK  status: ('A' for Active; 'I' for Inactive)
REMARK    1  A    between atoms: C_4  and  O_20
REMARK    2  A    between atoms: C_5  and  C_12
REMARK    3  A    between atoms: N_11  and  C_12
REMARK    4  A    between atoms: N_11  and  N_13
REMARK    5  A    between atoms: N_13  and  C_16
REMARK    6  A    between atoms: C_16  and  N_17
REMARK    7  A    between atoms: O_20  and  C_22
REMARK    8  A    between atoms: C_22  and  O_23
REMARK    9  A    between atoms: O_23  and  C_24
REMARK                            x       y       z     vdW  Elec       q    Type
REMARK                         _______ _______ _______ _____ _____    ______ ____
ROOT
ATOM      1  N   UNL     1     -36.146  22.199   1.258  0.00  0.00    -0.247 NA
ATOM      2  C   UNL     1     -35.949  23.438   3.777  0.00  0.00    +0.038 C 
ATOM      3  C   UNL     1     -35.578  22.087   3.619  0.00  0.00    +0.018 C 
ATOM      4  C   UNL     1     -35.842  24.034   5.045  0.00  0.00    +0.152 C 
ATOM      5  C   UNL     1     -35.698  21.531   2.345  0.00  0.00    +0.079 C 
ATOM      6  C   UNL     1     -35.109  21.358   4.725  0.00  0.00    +0.001 C 
ATOM      7  C   UNL     1     -36.414  24.148   2.664  0.00  0.00    +0.024 C 
ATOM      8  C   UNL     1     -35.374  23.299   6.137  0.00  0.00    +0.038 C 
ATOM      9  C   UNL     1     -35.009  21.965   5.977  0.00  0.00    +0.003 C 
ATOM     10  C   UNL     1     -36.491  23.490   1.446  0.00  0.00    +0.099 C 
ENDROOT
BRANCH   5  11
ATOM     11  C   UNL     1     -35.344  20.144   2.064  0.00  0.00    +0.157 C 
BRANCH  11  12
ATOM     12  N   UNL     1     -35.630  19.564   0.934  0.00  0.00    -0.126 NA
BRANCH  12  13
ATOM     13  N   UNL     1     -36.813  18.905   0.924  0.00  0.00    -0.244 N 
ATOM     14  H   UNL     1     -36.966  18.173   1.563  0.00  0.00    +0.170 HD
BRANCH  13  16
ATOM     15  S   UNL     1     -38.058  18.364  -1.364  0.00  0.00    -0.018 S 
ATOM     16  C   UNL     1     -37.801  19.244   0.033  0.00  0.00    +0.143 C 
BRANCH  16  17
ATOM     17  N   UNL     1     -38.566  20.336   0.341  0.00  0.00    -0.340 N 
ATOM     18  H   UNL     1     -38.155  21.230   0.386  0.00  0.00    +0.144 HD
ATOM     19  H   UNL     1     -39.529  20.229   0.518  0.00  0.00    +0.144 HD
ENDBRANCH  16  17
ENDBRANCH  13  16
ENDBRANCH  12  13
ENDBRANCH  11  12
ENDBRANCH   5  11
BRANCH   4  20
ATOM     20  O   UNL     1     -36.187  25.339   5.248  0.00  0.00    -0.393 OA
BRANCH  20  22
ATOM     21  O   UNL     1     -34.286  26.265   6.233  0.00  0.00    -0.202 OA
ATOM     22  C   UNL     1     -35.098  26.218   5.315  0.00  0.00    +0.521 C 
BRANCH  22  23
ATOM     23  O   UNL     1     -35.100  27.014   4.177  0.00  0.00    -0.393 OA
BRANCH  23  24
ATOM     24  C   UNL     1     -33.849  27.090   3.562  0.00  0.00    +0.152 C 
ATOM     25  C   UNL     1     -33.348  25.991   2.862  0.00  0.00    +0.038 C 
ATOM     26  C   UNL     1     -33.100  28.263   3.646  0.00  0.00    +0.038 C 
ATOM     27  C   UNL     1     -32.098  26.067   2.247  0.00  0.00    +0.003 C 
ATOM     28  C   UNL     1     -31.851  28.339   3.031  0.00  0.00    +0.003 C 
ATOM     29  C   UNL     1     -31.349  27.241   2.332  0.00  0.00    +0.000 C 
ENDBRANCH  23  24
ENDBRANCH  22  23
ENDBRANCH  20  22
ENDBRANCH   4  20
TORSDOF 9
ENDMDL
MODEL 8
REMARK VINA RESULT:      -6.3      3.532      6.042
REMARK  Name = 57349455
REMARK  9 active torsions:
REMARK  status: ('A' for Active; 'I' for Inactive)
REMARK    1  A    between atoms: C_4  and  O_20
REMARK    2  A    between atoms: C_5  and  C_12
REMARK    3  A    between atoms: N_11  and  C_12
REMARK    4  A    between atoms: N_11  and  N_13
REMARK    5  A    between atoms: N_13  and  C_16
REMARK    6  A    between atoms: C_16  and  N_17
REMARK    7  A    between atoms: O_20  and  C_22
REMARK    8  A    between atoms: C_22  and  O_23
REMARK    9  A    between atoms: O_23  and  C_24
REMARK                            x       y       z     vdW  Elec       q    Type
REMARK                         _______ _______ _______ _____ _____    ______ ____
ROOT
ATOM      1  N   UNL     1     -34.307  27.324   4.481  0.00  0.00    -0.247 NA
ATOM      2  C   UNL     1     -35.554  24.888   3.823  0.00  0.00    +0.038 C 
ATOM      3  C   UNL     1     -34.783  24.997   4.998  0.00  0.00    +0.018 C 
ATOM      4  C   UNL     1     -36.166  23.661   3.516  0.00  0.00    +0.152 C 
ATOM      5  C   UNL     1     -34.191  26.231   5.268  0.00  0.00    +0.079 C 
ATOM      6  C   UNL     1     -34.636  23.883   5.842  0.00  0.00    +0.001 C 
ATOM      7  C   UNL     1     -35.688  26.009   2.994  0.00  0.00    +0.024 C 
ATOM      8  C   UNL     1     -36.013  22.561   4.363  0.00  0.00    +0.038 C 
ATOM      9  C   UNL     1     -35.250  22.672   5.523  0.00  0.00    +0.003 C 
ATOM     10  C   UNL     1     -35.054  27.184   3.365  0.00  0.00    +0.099 C 
ENDROOT
BRANCH   5  11
ATOM     11  C   UNL     1     -33.372  26.460   6.453  0.00  0.00    +0.157 C 
BRANCH  11  12
ATOM     12  N   UNL     1     -32.252  27.123   6.413  0.00  0.00    -0.126 NA
BRANCH  12  13
ATOM     13  N   UNL     1     -32.287  28.323   7.039  0.00  0.00    -0.244 N 
ATOM     14  H   UNL     1     -32.947  28.480   7.751  0.00  0.00    +0.170 HD
BRANCH  13  16
ATOM     15  S   UNL     1     -31.857  30.544   5.640  0.00  0.00    -0.018 S 
ATOM     16  C   UNL     1     -31.414  29.324   6.692  0.00  0.00    +0.143 C 
BRANCH  16  17
ATOM     17  N   UNL     1     -30.164  29.277   7.247  0.00  0.00    -0.340 N 
ATOM     18  H   UNL     1     -29.369  29.428   6.686  0.00  0.00    +0.144 HD
ATOM     19  H   UNL     1     -30.059  29.093   8.209  0.00  0.00    +0.144 HD
ENDBRANCH  16  17
ENDBRANCH  13  16
ENDBRANCH  12  13
ENDBRANCH  11  12
ENDBRANCH   5  11
BRANCH   4  20
ATOM     20  O   UNL     1     -36.923  23.507   2.391  0.00  0.00    -0.393 OA
BRANCH  20  22
ATOM     21  O   UNL     1     -38.942  22.346   2.247  0.00  0.00    -0.202 OA
ATOM     22  C   UNL     1     -38.287  23.306   2.640  0.00  0.00    +0.521 C 
BRANCH  22  23
ATOM     23  O   UNL     1     -38.760  24.368   3.400  0.00  0.00    -0.393 OA
BRANCH  23  24
ATOM     24  C   UNL     1     -39.557  25.251   2.667  0.00  0.00    +0.152 C 
ATOM     25  C   UNL     1     -39.119  25.722   1.429  0.00  0.00    +0.038 C 
ATOM     26  C   UNL     1     -40.791  25.660   3.172  0.00  0.00    +0.038 C 
ATOM     27  C   UNL     1     -39.915  26.604   0.698  0.00  0.00    +0.003 C 
ATOM     28  C   UNL     1     -41.586  26.541   2.441  0.00  0.00    +0.003 C 
ATOM     29  C   UNL     1     -41.148  27.014   1.203  0.00  0.00    +0.000 C 
ENDBRANCH  23  24
ENDBRANCH  22  23
ENDBRANCH  20  22
ENDBRANCH   4  20
TORSDOF 9
ENDMDL
MODEL 9
REMARK VINA RESULT:      -6.2      3.025      4.482
REMARK  Name = 57349455
REMARK  9 active torsions:
REMARK  status: ('A' for Active; 'I' for Inactive)
REMARK    1  A    between atoms: C_4  and  O_20
REMARK    2  A    between atoms: C_5  and  C_12
REMARK    3  A    between atoms: N_11  and  C_12
REMARK    4  A    between atoms: N_11  and  N_13
REMARK    5  A    between atoms: N_13  and  C_16
REMARK    6  A    between atoms: C_16  and  N_17
REMARK    7  A    between atoms: O_20  and  C_22
REMARK    8  A    between atoms: C_22  and  O_23
REMARK    9  A    between atoms: O_23  and  C_24
REMARK                            x       y       z     vdW  Elec       q    Type
REMARK                         _______ _______ _______ _____ _____    ______ ____
ROOT
ATOM      1  N   UNL     1     -37.218  27.348   1.729  0.00  0.00    -0.247 NA
ATOM      2  C   UNL     1     -36.208  25.670   3.750  0.00  0.00    +0.038 C 
ATOM      3  C   UNL     1     -35.470  26.793   3.325  0.00  0.00    +0.018 C 
ATOM      4  C   UNL     1     -35.682  24.847   4.760  0.00  0.00    +0.152 C 
ATOM      5  C   UNL     1     -36.025  27.586   2.319  0.00  0.00    +0.079 C 
ATOM      6  C   UNL     1     -34.225  27.074   3.913  0.00  0.00    +0.001 C 
ATOM      7  C   UNL     1     -37.446  25.406   3.151  0.00  0.00    +0.024 C 
ATOM      8  C   UNL     1     -34.443  25.136   5.337  0.00  0.00    +0.038 C 
ATOM      9  C   UNL     1     -33.717  26.247   4.914  0.00  0.00    +0.003 C 
ATOM     10  C   UNL     1     -37.897  26.265   2.161  0.00  0.00    +0.099 C 
ENDROOT
BRANCH   5  11
ATOM     11  C   UNL     1     -35.352  28.772   1.801  0.00  0.00    +0.157 C 
BRANCH  11  12
ATOM     12  N   UNL     1     -35.771  29.979   2.050  0.00  0.00    -0.126 NA
BRANCH  12  13
ATOM     13  N   UNL     1     -35.349  30.488   3.232  0.00  0.00    -0.244 N 
ATOM     14  H   UNL     1     -35.945  30.457   4.014  0.00  0.00    +0.170 HD
BRANCH  13  16
ATOM     15  S   UNL     1     -33.569  32.235   2.305  0.00  0.00    -0.018 S 
ATOM     16  C   UNL     1     -34.101  31.046   3.353  0.00  0.00    +0.143 C 
BRANCH  16  17
ATOM     17  N   UNL     1     -33.311  30.586   4.371  0.00  0.00    -0.340 N 
ATOM     18  H   UNL     1     -32.340  30.493   4.239  0.00  0.00    +0.144 HD
ATOM     19  H   UNL     1     -33.713  30.347   5.238  0.00  0.00    +0.144 HD
ENDBRANCH  16  17
ENDBRANCH  13  16
ENDBRANCH  12  13
ENDBRANCH  11  12
ENDBRANCH   5  11
BRANCH   4  20
ATOM     20  O   UNL     1     -36.359  23.749   5.206  0.00  0.00    -0.393 OA
BRANCH  20  22
ATOM     21  O   UNL     1     -34.942  21.902   5.348  0.00  0.00    -0.202 OA
ATOM     22  C   UNL     1     -35.824  22.529   4.773  0.00  0.00    +0.521 C 
BRANCH  22  23
ATOM     23  O   UNL     1     -36.461  22.160   3.595  0.00  0.00    -0.393 OA
BRANCH  23  24
ATOM     24  C   UNL     1     -35.571  21.761   2.595  0.00  0.00    +0.152 C 
ATOM     25  C   UNL     1     -34.983  22.716   1.763  0.00  0.00    +0.038 C 
ATOM     26  C   UNL     1     -35.267  20.410   2.429  0.00  0.00    +0.038 C 
ATOM     27  C   UNL     1     -34.094  22.317   0.765  0.00  0.00    +0.003 C 
ATOM     28  C   UNL     1     -34.379  20.013   1.431  0.00  0.00    +0.003 C 
ATOM     29  C   UNL     1     -33.792  20.966   0.598  0.00  0.00    +0.000 C 
ENDBRANCH  23  24
ENDBRANCH  22  23
ENDBRANCH  20  22
ENDBRANCH   4  20
TORSDOF 9
ENDMDL
