MODEL 1
REMARK VINA RESULT:      -6.0      0.000      0.000
REMARK  Name = 5476886
REMARK  6 active torsions:
REMARK  status: ('A' for Active; 'I' for Inactive)
REMARK    1  A    between atoms: C_1  and  C_15
REMARK    2  A    between atoms: C_2  and  C_3
REMARK    3  A    between atoms: C_6  and  C_10
REMARK    4  A    between atoms: C_10  and  O_11
REMARK    5  A    between atoms: N_13  and  C_21
REMARK    6  A    between atoms: C_16  and  N_20
REMARK                            x       y       z     vdW  Elec       q    Type
REMARK                         _______ _______ _______ _____ _____    ______ ____
ROOT
ATOM      1  C   UNL     1     -35.184  20.770   1.415  0.00  0.00    +0.035 C 
ATOM      2  C   UNL     1     -35.509  20.919   2.722  0.00  0.00    +0.003 C 
ENDROOT
BRANCH   2   3
ATOM      3  C   UNL     1     -35.462  22.176   3.453  0.00  0.00    +0.000 C 
ATOM      4  C   UNL     1     -35.456  22.171   4.848  0.00  0.00    +0.000 C 
ATOM      5  C   UNL     1     -35.426  23.385   2.759  0.00  0.00    +0.000 C 
ATOM      6  C   UNL     1     -35.376  24.586   4.855  0.00  0.00    +0.075 C 
ATOM      7  C   UNL     1     -35.413  23.376   5.549  0.00  0.00    +0.006 C 
ATOM      8  C   UNL     1     -35.383  24.590   3.460  0.00  0.00    +0.006 C 
BRANCH   6  10
ATOM      9  O   UNL     1     -34.332  26.315   6.139  0.00  0.00    -0.245 OA
ATOM     10  C   UNL     1     -35.332  25.843   5.587  0.00  0.00    +0.338 C 
BRANCH  10  11
ATOM     11  O   UNL     1     -36.536  26.476   5.605  0.00  0.00    -0.477 OA
ATOM     12  H   UNL     1     -36.617  27.340   5.250  0.00  0.00    +0.295 HD
ENDBRANCH  10  11
ENDBRANCH   6  10
ENDBRANCH   2   3
BRANCH   1  15
ATOM     13  N   UNL     1     -34.042  18.864   0.509  0.00  0.00    -0.230 N 
ATOM     14  N   UNL     1     -36.246  18.895   0.234  0.00  0.00    -0.225 NA
ATOM     15  C   UNL     1     -35.212  19.518   0.718  0.00  0.00    +0.141 C 
ATOM     16  C   UNL     1     -34.352  17.718  -0.167  0.00  0.00    +0.222 C 
ATOM     17  C   UNL     1     -35.717  17.759  -0.325  0.00  0.00    +0.140 C 
BRANCH  16  20
ATOM     18  O   UNL     1     -32.885  16.848  -1.720  0.00  0.00    -0.125 OA
ATOM     19  O   UNL     1     -33.097  15.819   0.208  0.00  0.00    -0.125 OA
ATOM     20  N   UNL     1     -33.412  16.761  -0.574  0.00  0.00    +0.074 N 
ENDBRANCH  16  20
BRANCH  13  21
ATOM     21  C   UNL     1     -32.768  19.255   0.895  0.00  0.00    +0.072 C 
ATOM     22  C   UNL     1     -31.845  19.893   0.164  0.00  0.00    +0.018 C 
ENDBRANCH  13  21
ENDBRANCH   1  15
TORSDOF 6
ENDMDL
MODEL 2
REMARK VINA RESULT:      -5.6      1.451      2.393
REMARK  Name = 5476886
REMARK  6 active torsions:
REMARK  status: ('A' for Active; 'I' for Inactive)
REMARK    1  A    between atoms: C_1  and  C_15
REMARK    2  A    between atoms: C_2  and  C_3
REMARK    3  A    between atoms: C_6  and  C_10
REMARK    4  A    between atoms: C_10  and  O_11
REMARK    5  A    between atoms: N_13  and  C_21
REMARK    6  A    between atoms: C_16  and  N_20
REMARK                            x       y       z     vdW  Elec       q    Type
REMARK                         _______ _______ _______ _____ _____    ______ ____
ROOT
ATOM      1  C   UNL     1     -34.562  20.546   1.575  0.00  0.00    +0.035 C 
ATOM      2  C   UNL     1     -35.217  20.755   2.742  0.00  0.00    +0.003 C 
ENDROOT
BRANCH   2   3
ATOM      3  C   UNL     1     -35.293  22.031   3.438  0.00  0.00    +0.000 C 
ATOM      4  C   UNL     1     -35.258  23.223   2.714  0.00  0.00    +0.000 C 
ATOM      5  C   UNL     1     -35.398  22.061   4.828  0.00  0.00    +0.000 C 
ATOM      6  C   UNL     1     -35.435  24.476   4.773  0.00  0.00    +0.075 C 
ATOM      7  C   UNL     1     -35.328  24.446   3.382  0.00  0.00    +0.006 C 
ATOM      8  C   UNL     1     -35.469  23.284   5.495  0.00  0.00    +0.006 C 
BRANCH   6  10
ATOM      9  O   UNL     1     -34.566  26.309   6.041  0.00  0.00    -0.245 OA
ATOM     10  C   UNL     1     -35.508  25.751   5.468  0.00  0.00    +0.338 C 
BRANCH  10  11
ATOM     11  O   UNL     1     -36.754  26.296   5.425  0.00  0.00    -0.477 OA
ATOM     12  H   UNL     1     -36.936  27.006   4.841  0.00  0.00    +0.295 HD
ENDBRANCH  10  11
ENDBRANCH   6  10
ENDBRANCH   2   3
BRANCH   1  15
ATOM     13  N   UNL     1     -35.404  18.970  -0.026  0.00  0.00    -0.230 N 
ATOM     14  N   UNL     1     -33.601  18.334   1.104  0.00  0.00    -0.225 NA
ATOM     15  C   UNL     1     -34.478  19.276   0.916  0.00  0.00    +0.141 C 
ATOM     16  C   UNL     1     -35.095  17.721  -0.486  0.00  0.00    +0.222 C 
ATOM     17  C   UNL     1     -33.979  17.350   0.225  0.00  0.00    +0.140 C 
BRANCH  16  20
ATOM     18  O   UNL     1     -35.499  17.176  -2.691  0.00  0.00    -0.125 OA
ATOM     19  O   UNL     1     -36.783  16.294  -1.144  0.00  0.00    -0.125 OA
ATOM     20  N   UNL     1     -35.817  17.041  -1.475  0.00  0.00    +0.074 N 
ENDBRANCH  16  20
BRANCH  13  21
ATOM     21  C   UNL     1     -36.467  19.750  -0.460  0.00  0.00    +0.072 C 
ATOM     22  C   UNL     1     -37.747  19.688  -0.073  0.00  0.00    +0.018 C 
ENDBRANCH  13  21
ENDBRANCH   1  15
TORSDOF 6
ENDMDL
MODEL 3
REMARK VINA RESULT:      -5.5      2.896      7.893
REMARK  Name = 5476886
REMARK  6 active torsions:
REMARK  status: ('A' for Active; 'I' for Inactive)
REMARK    1  A    between atoms: C_1  and  C_15
REMARK    2  A    between atoms: C_2  and  C_3
REMARK    3  A    between atoms: C_6  and  C_10
REMARK    4  A    between atoms: C_10  and  O_11
REMARK    5  A    between atoms: N_13  and  C_21
REMARK    6  A    between atoms: C_16  and  N_20
REMARK                            x       y       z     vdW  Elec       q    Type
REMARK                         _______ _______ _______ _____ _____    ______ ____
ROOT
ATOM      1  C   UNL     1     -34.918  21.587   1.643  0.00  0.00    +0.035 C 
ATOM      2  C   UNL     1     -34.225  21.126   0.574  0.00  0.00    +0.003 C 
ENDROOT
BRANCH   2   3
ATOM      3  C   UNL     1     -33.156  20.142   0.636  0.00  0.00    +0.000 C 
ATOM      4  C   UNL     1     -31.946  20.385  -0.015  0.00  0.00    +0.000 C 
ATOM      5  C   UNL     1     -33.341  18.955   1.345  0.00  0.00    +0.000 C 
ATOM      6  C   UNL     1     -31.106  18.253   0.753  0.00  0.00    +0.075 C 
ATOM      7  C   UNL     1     -30.922  19.440   0.043  0.00  0.00    +0.006 C 
ATOM      8  C   UNL     1     -32.316  18.011   1.404  0.00  0.00    +0.006 C 
BRANCH   6  10
ATOM      9  O   UNL     1     -28.903  17.469   1.259  0.00  0.00    -0.245 OA
ATOM     10  C   UNL     1     -30.038  17.268   0.813  0.00  0.00    +0.338 C 
BRANCH  10  11
ATOM     11  O   UNL     1     -30.417  16.059   0.317  0.00  0.00    -0.477 OA
ATOM     12  H   UNL     1     -30.592  15.961  -0.599  0.00  0.00    +0.295 HD
ENDBRANCH  10  11
ENDBRANCH   6  10
ENDBRANCH   2   3
BRANCH   1  15
ATOM     13  N   UNL     1     -36.413  23.125   2.717  0.00  0.00    -0.230 N 
ATOM     14  N   UNL     1     -36.537  23.040   0.501  0.00  0.00    -0.225 NA
ATOM     15  C   UNL     1     -35.953  22.576   1.566  0.00  0.00    +0.141 C 
ATOM     16  C   UNL     1     -37.380  24.024   2.361  0.00  0.00    +0.222 C 
ATOM     17  C   UNL     1     -37.438  23.953   0.989  0.00  0.00    +0.140 C 
BRANCH  16  20
ATOM     18  O   UNL     1     -37.611  25.885   3.703  0.00  0.00    -0.125 OA
ATOM     19  O   UNL     1     -39.252  24.428   3.645  0.00  0.00    -0.125 OA
ATOM     20  N   UNL     1     -38.106  24.806   3.268  0.00  0.00    +0.074 N 
ENDBRANCH  16  20
BRANCH  13  21
ATOM     21  C   UNL     1     -36.004  22.852   4.014  0.00  0.00    +0.072 C 
ATOM     22  C   UNL     1     -35.049  23.466   4.724  0.00  0.00    +0.018 C 
ENDBRANCH  13  21
ENDBRANCH   1  15
TORSDOF 6
ENDMDL
MODEL 4
REMARK VINA RESULT:      -5.4      2.810      8.257
REMARK  Name = 5476886
REMARK  6 active torsions:
REMARK  status: ('A' for Active; 'I' for Inactive)
REMARK    1  A    between atoms: C_1  and  C_15
REMARK    2  A    between atoms: C_2  and  C_3
REMARK    3  A    between atoms: C_6  and  C_10
REMARK    4  A    between atoms: C_10  and  O_11
REMARK    5  A    between atoms: N_13  and  C_21
REMARK    6  A    between atoms: C_16  and  N_20
REMARK                            x       y       z     vdW  Elec       q    Type
REMARK                         _______ _______ _______ _____ _____    ______ ____
ROOT
ATOM      1  C   UNL     1     -35.615  22.064   2.332  0.00  0.00    +0.035 C 
ATOM      2  C   UNL     1     -34.832  21.618   1.320  0.00  0.00    +0.003 C 
ENDROOT
BRANCH   2   3
ATOM      3  C   UNL     1     -34.640  20.219   0.970  0.00  0.00    +0.000 C 
ATOM      4  C   UNL     1     -35.602  19.552   0.212  0.00  0.00    +0.000 C 
ATOM      5  C   UNL     1     -33.495  19.546   1.394  0.00  0.00    +0.000 C 
ATOM      6  C   UNL     1     -34.272  17.536   0.301  0.00  0.00    +0.075 C 
ATOM      7  C   UNL     1     -35.419  18.210  -0.122  0.00  0.00    +0.006 C 
ATOM      8  C   UNL     1     -33.311  18.204   1.059  0.00  0.00    +0.006 C 
BRANCH   6  10
ATOM      9  O   UNL     1     -33.099  15.673  -0.636  0.00  0.00    -0.245 OA
ATOM     10  C   UNL     1     -34.082  16.137  -0.048  0.00  0.00    +0.338 C 
BRANCH  10  11
ATOM     11  O   UNL     1     -35.122  15.355   0.350  0.00  0.00    -0.477 OA
ATOM     12  H   UNL     1     -34.990  14.440   0.501  0.00  0.00    +0.295 HD
ENDBRANCH  10  11
ENDBRANCH   6  10
ENDBRANCH   2   3
BRANCH   1  15
ATOM     13  N   UNL     1     -35.364  23.859   3.903  0.00  0.00    -0.230 N 
ATOM     14  N   UNL     1     -36.277  24.400   1.952  0.00  0.00    -0.225 NA
ATOM     15  C   UNL     1     -35.773  23.446   2.678  0.00  0.00    +0.141 C 
ATOM     16  C   UNL     1     -35.626  25.199   3.970  0.00  0.00    +0.222 C 
ATOM     17  C   UNL     1     -36.189  25.509   2.755  0.00  0.00    +0.140 C 
BRANCH  16  20
ATOM     18  O   UNL     1     -36.199  26.109   6.010  0.00  0.00    -0.125 OA
ATOM     19  O   UNL     1     -34.246  26.622   5.148  0.00  0.00    -0.125 OA
ATOM     20  N   UNL     1     -35.347  26.005   5.081  0.00  0.00    +0.074 N 
ENDBRANCH  16  20
BRANCH  13  21
ATOM     21  C   UNL     1     -34.787  23.098   4.910  0.00  0.00    +0.072 C 
ATOM     22  C   UNL     1     -35.388  22.547   5.972  0.00  0.00    +0.018 C 
ENDBRANCH  13  21
ENDBRANCH   1  15
TORSDOF 6
ENDMDL
MODEL 5
REMARK VINA RESULT:      -5.3      5.886      9.565
REMARK  Name = 5476886
REMARK  6 active torsions:
REMARK  status: ('A' for Active; 'I' for Inactive)
REMARK    1  A    between atoms: C_1  and  C_15
REMARK    2  A    between atoms: C_2  and  C_3
REMARK    3  A    between atoms: C_6  and  C_10
REMARK    4  A    between atoms: C_10  and  O_11
REMARK    5  A    between atoms: N_13  and  C_21
REMARK    6  A    between atoms: C_16  and  N_20
REMARK                            x       y       z     vdW  Elec       q    Type
REMARK                         _______ _______ _______ _____ _____    ______ ____
ROOT
ATOM      1  C   UNL     1     -33.072  26.740   4.769  0.00  0.00    +0.035 C 
ATOM      2  C   UNL     1     -33.823  25.815   5.415  0.00  0.00    +0.003 C 
ENDROOT
BRANCH   2   3
ATOM      3  C   UNL     1     -34.462  24.671   4.782  0.00  0.00    +0.000 C 
ATOM      4  C   UNL     1     -34.985  23.643   5.566  0.00  0.00    +0.000 C 
ATOM      5  C   UNL     1     -34.550  24.603   3.392  0.00  0.00    +0.000 C 
ATOM      6  C   UNL     1     -35.685  22.477   3.569  0.00  0.00    +0.075 C 
ATOM      7  C   UNL     1     -35.596  22.546   4.960  0.00  0.00    +0.006 C 
ATOM      8  C   UNL     1     -35.161  23.506   2.785  0.00  0.00    +0.006 C 
BRANCH   6  10
ATOM      9  O   UNL     1     -35.780  20.246   2.712  0.00  0.00    -0.245 OA
ATOM     10  C   UNL     1     -36.322  21.333   2.936  0.00  0.00    +0.338 C 
BRANCH  10  11
ATOM     11  O   UNL     1     -37.619  21.577   2.605  0.00  0.00    -0.477 OA
ATOM     12  H   UNL     1     -38.253  21.732   3.278  0.00  0.00    +0.295 HD
ENDBRANCH  10  11
ENDBRANCH   6  10
ENDBRANCH   2   3
BRANCH   1  15
ATOM     13  N   UNL     1     -31.830  28.788   4.634  0.00  0.00    -0.230 N 
ATOM     14  N   UNL     1     -32.451  28.163   6.674  0.00  0.00    -0.225 NA
ATOM     15  C   UNL     1     -32.471  27.874   5.406  0.00  0.00    +0.141 C 
ATOM     16  C   UNL     1     -31.357  29.750   5.482  0.00  0.00    +0.222 C 
ATOM     17  C   UNL     1     -31.753  29.343   6.734  0.00  0.00    +0.140 C 
BRANCH  16  20
ATOM     18  O   UNL     1     -29.369  30.863   5.121  0.00  0.00    -0.125 OA
ATOM     19  O   UNL     1     -31.247  31.901   4.657  0.00  0.00    -0.125 OA
ATOM     20  N   UNL     1     -30.633  30.877   5.073  0.00  0.00    +0.074 N 
ENDBRANCH  16  20
BRANCH  13  21
ATOM     21  C   UNL     1     -31.670  28.776   3.256  0.00  0.00    +0.072 C 
ATOM     22  C   UNL     1     -30.618  28.340   2.552  0.00  0.00    +0.018 C 
ENDBRANCH  13  21
ENDBRANCH   1  15
TORSDOF 6
ENDMDL
MODEL 6
REMARK VINA RESULT:      -5.3      4.673      6.219
REMARK  Name = 5476886
REMARK  6 active torsions:
REMARK  status: ('A' for Active; 'I' for Inactive)
REMARK    1  A    between atoms: C_1  and  C_15
REMARK    2  A    between atoms: C_2  and  C_3
REMARK    3  A    between atoms: C_6  and  C_10
REMARK    4  A    between atoms: C_10  and  O_11
REMARK    5  A    between atoms: N_13  and  C_21
REMARK    6  A    between atoms: C_16  and  N_20
REMARK                            x       y       z     vdW  Elec       q    Type
REMARK                         _______ _______ _______ _____ _____    ______ ____
ROOT
ATOM      1  C   UNL     1     -35.361  24.268   4.195  0.00  0.00    +0.035 C 
ATOM      2  C   UNL     1     -34.538  25.199   3.656  0.00  0.00    +0.003 C 
ENDROOT
BRANCH   2   3
ATOM      3  C   UNL     1     -33.764  26.168   4.417  0.00  0.00    +0.000 C 
ATOM      4  C   UNL     1     -33.768  26.122   5.811  0.00  0.00    +0.000 C 
ATOM      5  C   UNL     1     -33.020  27.142   3.752  0.00  0.00    +0.000 C 
ATOM      6  C   UNL     1     -32.282  28.026   5.877  0.00  0.00    +0.075 C 
ATOM      7  C   UNL     1     -33.027  27.052   6.541  0.00  0.00    +0.006 C 
ATOM      8  C   UNL     1     -32.278  28.072   4.482  0.00  0.00    +0.006 C 
BRANCH   6  10
ATOM      9  O   UNL     1     -30.587  29.686   6.192  0.00  0.00    -0.245 OA
ATOM     10  C   UNL     1     -31.510  28.995   6.638  0.00  0.00    +0.338 C 
BRANCH  10  11
ATOM     11  O   UNL     1     -31.913  29.078   7.935  0.00  0.00    -0.477 OA
ATOM     12  H   UNL     1     -32.337  29.854   8.246  0.00  0.00    +0.295 HD
ENDBRANCH  10  11
ENDBRANCH   6  10
ENDBRANCH   2   3
BRANCH   1  15
ATOM     13  N   UNL     1     -37.405  23.672   3.090  0.00  0.00    -0.230 N 
ATOM     14  N   UNL     1     -35.775  22.166   2.991  0.00  0.00    -0.225 NA
ATOM     15  C   UNL     1     -36.135  23.337   3.427  0.00  0.00    +0.141 C 
ATOM     16  C   UNL     1     -37.907  22.623   2.371  0.00  0.00    +0.222 C 
ATOM     17  C   UNL     1     -36.883  21.707   2.323  0.00  0.00    +0.140 C 
BRANCH  16  20
ATOM     18  O   UNL     1     -40.102  21.918   2.428  0.00  0.00    -0.125 OA
ATOM     19  O   UNL     1     -39.459  23.200   0.766  0.00  0.00    -0.125 OA
ATOM     20  N   UNL     1     -39.201  22.578   1.836  0.00  0.00    +0.074 N 
ENDBRANCH  16  20
BRANCH  13  21
ATOM     21  C   UNL     1     -38.088  24.841   3.397  0.00  0.00    +0.072 C 
ATOM     22  C   UNL     1     -38.200  25.949   2.654  0.00  0.00    +0.018 C 
ENDBRANCH  13  21
ENDBRANCH   1  15
TORSDOF 6
ENDMDL
MODEL 7
REMARK VINA RESULT:      -5.3      5.929      9.265
REMARK  Name = 5476886
REMARK  6 active torsions:
REMARK  status: ('A' for Active; 'I' for Inactive)
REMARK    1  A    between atoms: C_1  and  C_15
REMARK    2  A    between atoms: C_2  and  C_3
REMARK    3  A    between atoms: C_6  and  C_10
REMARK    4  A    between atoms: C_10  and  O_11
REMARK    5  A    between atoms: N_13  and  C_21
REMARK    6  A    between atoms: C_16  and  N_20
REMARK                            x       y       z     vdW  Elec       q    Type
REMARK                         _______ _______ _______ _____ _____    ______ ____
ROOT
ATOM      1  C   UNL     1     -33.914  26.190   4.708  0.00  0.00    +0.035 C 
ATOM      2  C   UNL     1     -34.946  25.482   5.226  0.00  0.00    +0.003 C 
ENDROOT
BRANCH   2   3
ATOM      3  C   UNL     1     -35.818  24.602   4.463  0.00  0.00    +0.000 C 
ATOM      4  C   UNL     1     -35.453  23.273   4.249  0.00  0.00    +0.000 C 
ATOM      5  C   UNL     1     -37.018  25.089   3.944  0.00  0.00    +0.000 C 
ATOM      6  C   UNL     1     -37.489  22.916   2.997  0.00  0.00    +0.075 C 
ATOM      7  C   UNL     1     -36.288  22.430   3.516  0.00  0.00    +0.006 C 
ATOM      8  C   UNL     1     -37.853  24.245   3.211  0.00  0.00    +0.006 C 
BRANCH   6  10
ATOM      9  O   UNL     1     -39.407  22.376   1.673  0.00  0.00    -0.245 OA
ATOM     10  C   UNL     1     -38.359  22.036   2.233  0.00  0.00    +0.338 C 
BRANCH  10  11
ATOM     11  O   UNL     1     -37.895  20.758   2.186  0.00  0.00    -0.477 OA
ATOM     12  H   UNL     1     -37.774  20.332   1.360  0.00  0.00    +0.295 HD
ENDBRANCH  10  11
ENDBRANCH   6  10
ENDBRANCH   2   3
BRANCH   1  15
ATOM     13  N   UNL     1     -32.520  28.138   4.848  0.00  0.00    -0.230 N 
ATOM     14  N   UNL     1     -32.772  26.989   6.733  0.00  0.00    -0.225 NA
ATOM     15  C   UNL     1     -33.080  27.072   5.472  0.00  0.00    +0.141 C 
ATOM     16  C   UNL     1     -31.787  28.800   5.792  0.00  0.00    +0.222 C 
ATOM     17  C   UNL     1     -31.958  28.073   6.946  0.00  0.00    +0.140 C 
BRANCH  16  20
ATOM     18  O   UNL     1     -29.821  29.881   5.257  0.00  0.00    -0.125 OA
ATOM     19  O   UNL     1     -31.615  31.093   5.614  0.00  0.00    -0.125 OA
ATOM     20  N   UNL     1     -31.048  29.965   5.546  0.00  0.00    +0.074 N 
ENDBRANCH  16  20
BRANCH  13  21
ATOM     21  C   UNL     1     -32.648  28.510   3.517  0.00  0.00    +0.072 C 
ATOM     22  C   UNL     1     -33.513  29.382   2.985  0.00  0.00    +0.018 C 
ENDBRANCH  13  21
ENDBRANCH   1  15
TORSDOF 6
ENDMDL
MODEL 8
REMARK VINA RESULT:      -5.3      6.004      9.627
REMARK  Name = 5476886
REMARK  6 active torsions:
REMARK  status: ('A' for Active; 'I' for Inactive)
REMARK    1  A    between atoms: C_1  and  C_15
REMARK    2  A    between atoms: C_2  and  C_3
REMARK    3  A    between atoms: C_6  and  C_10
REMARK    4  A    between atoms: C_10  and  O_11
REMARK    5  A    between atoms: N_13  and  C_21
REMARK    6  A    between atoms: C_16  and  N_20
REMARK                            x       y       z     vdW  Elec       q    Type
REMARK                         _______ _______ _______ _____ _____    ______ ____
ROOT
ATOM      1  C   UNL     1     -34.627  27.574   3.075  0.00  0.00    +0.035 C 
ATOM      2  C   UNL     1     -35.238  26.874   4.061  0.00  0.00    +0.003 C 
ENDROOT
BRANCH   2   3
ATOM      3  C   UNL     1     -35.245  25.423   4.171  0.00  0.00    +0.000 C 
ATOM      4  C   UNL     1     -35.214  24.636   3.020  0.00  0.00    +0.000 C 
ATOM      5  C   UNL     1     -35.283  24.820   5.428  0.00  0.00    +0.000 C 
ATOM      6  C   UNL     1     -35.260  22.641   4.384  0.00  0.00    +0.075 C 
ATOM      7  C   UNL     1     -35.223  23.245   3.126  0.00  0.00    +0.006 C 
ATOM      8  C   UNL     1     -35.291  23.429   5.535  0.00  0.00    +0.006 C 
BRANCH   6  10
ATOM      9  O   UNL     1     -35.230  20.401   3.545  0.00  0.00    -0.245 OA
ATOM     10  C   UNL     1     -35.269  21.191   4.494  0.00  0.00    +0.338 C 
BRANCH  10  11
ATOM     11  O   UNL     1     -35.323  20.768   5.786  0.00  0.00    -0.477 OA
ATOM     12  H   UNL     1     -35.208  21.382   6.486  0.00  0.00    +0.295 HD
ENDBRANCH  10  11
ENDBRANCH   6  10
ENDBRANCH   2   3
BRANCH   1  15
ATOM     13  N   UNL     1     -35.525  29.574   2.102  0.00  0.00    -0.230 N 
ATOM     14  N   UNL     1     -33.923  29.866   3.613  0.00  0.00    -0.225 NA
ATOM     15  C   UNL     1     -34.652  29.003   2.968  0.00  0.00    +0.141 C 
ATOM     16  C   UNL     1     -35.342  30.925   2.199  0.00  0.00    +0.222 C 
ATOM     17  C   UNL     1     -34.350  31.080   3.137  0.00  0.00    +0.140 C 
BRANCH  16  20
ATOM     18  O   UNL     1     -37.177  32.286   1.881  0.00  0.00    -0.125 OA
ATOM     19  O   UNL     1     -35.580  32.318   0.376  0.00  0.00    -0.125 OA
ATOM     20  N   UNL     1     -36.058  31.876   1.459  0.00  0.00    +0.074 N 
ENDBRANCH  16  20
BRANCH  13  21
ATOM     21  C   UNL     1     -36.436  28.941   1.269  0.00  0.00    +0.072 C 
ATOM     22  C   UNL     1     -36.277  28.595  -0.015  0.00  0.00    +0.018 C 
ENDBRANCH  13  21
ENDBRANCH   1  15
TORSDOF 6
ENDMDL
MODEL 9
REMARK VINA RESULT:      -5.2      2.511      3.366
REMARK  Name = 5476886
REMARK  6 active torsions:
REMARK  status: ('A' for Active; 'I' for Inactive)
REMARK    1  A    between atoms: C_1  and  C_15
REMARK    2  A    between atoms: C_2  and  C_3
REMARK    3  A    between atoms: C_6  and  C_10
REMARK    4  A    between atoms: C_10  and  O_11
REMARK    5  A    between atoms: N_13  and  C_21
REMARK    6  A    between atoms: C_16  and  N_20
REMARK                            x       y       z     vdW  Elec       q    Type
REMARK                         _______ _______ _______ _____ _____    ______ ____
ROOT
ATOM      1  C   UNL     1     -36.283  21.020   1.259  0.00  0.00    +0.035 C 
ATOM      2  C   UNL     1     -36.098  21.094   2.599  0.00  0.00    +0.003 C 
ENDROOT
BRANCH   2   3
ATOM      3  C   UNL     1     -35.916  22.329   3.348  0.00  0.00    +0.000 C 
ATOM      4  C   UNL     1     -35.462  22.284   4.666  0.00  0.00    +0.000 C 
ATOM      5  C   UNL     1     -36.198  23.556   2.748  0.00  0.00    +0.000 C 
ATOM      6  C   UNL     1     -35.570  24.696   4.784  0.00  0.00    +0.075 C 
ATOM      7  C   UNL     1     -35.290  23.467   5.384  0.00  0.00    +0.006 C 
ATOM      8  C   UNL     1     -36.025  24.739   3.465  0.00  0.00    +0.006 C 
BRANCH   6  10
ATOM      9  O   UNL     1     -34.373  26.245   6.158  0.00  0.00    -0.245 OA
ATOM     10  C   UNL     1     -35.391  25.929   5.533  0.00  0.00    +0.338 C 
BRANCH  10  11
ATOM     11  O   UNL     1     -36.486  26.735   5.479  0.00  0.00    -0.477 OA
ATOM     12  H   UNL     1     -36.421  27.633   5.740  0.00  0.00    +0.295 HD
ENDBRANCH  10  11
ENDBRANCH   6  10
ENDBRANCH   2   3
BRANCH   1  15
ATOM     13  N   UNL     1     -37.633  19.523  -0.041  0.00  0.00    -0.230 N 
ATOM     14  N   UNL     1     -35.548  18.861   0.346  0.00  0.00    -0.225 NA
ATOM     15  C   UNL     1     -36.435  19.793   0.535  0.00  0.00    +0.141 C 
ATOM     16  C   UNL     1     -37.505  18.310  -0.657  0.00  0.00    +0.222 C 
ATOM     17  C   UNL     1     -36.211  17.922  -0.405  0.00  0.00    +0.140 C 
BRANCH  16  20
ATOM     18  O   UNL     1     -39.334  16.909  -0.766  0.00  0.00    -0.125 OA
ATOM     19  O   UNL     1     -38.641  17.868  -2.615  0.00  0.00    -0.125 OA
ATOM     20  N   UNL     1     -38.528  17.673  -1.371  0.00  0.00    +0.074 N 
ENDBRANCH  16  20
BRANCH  13  21
ATOM     21  C   UNL     1     -38.780  20.305  -0.027  0.00  0.00    +0.072 C 
ATOM     22  C   UNL     1     -39.202  21.164  -0.962  0.00  0.00    +0.018 C 
ENDBRANCH  13  21
ENDBRANCH   1  15
TORSDOF 6
ENDMDL
