MODEL 1
REMARK VINA RESULT:      -6.8      0.000      0.000
REMARK  Name = 57333717
REMARK  7 active torsions:
REMARK  status: ('A' for Active; 'I' for Inactive)
REMARK    1  A    between atoms: C_4  and  O_16
REMARK    2  A    between atoms: C_5  and  O_18
REMARK    3  A    between atoms: C_12  and  C_13
REMARK    4  A    between atoms: O_18  and  C_20
REMARK    5  A    between atoms: C_20  and  C_21
REMARK    6  A    between atoms: C_23  and  O_28
REMARK    7  A    between atoms: C_27  and  O_30
REMARK                            x       y       z     vdW  Elec       q    Type
REMARK                         _______ _______ _______ _____ _____    ______ ____
ROOT
ATOM      1  O   UNL     1     -33.205  28.106   4.463  0.00  0.00    -0.475 OA
ATOM      2  O   UNL     1     -36.302  22.772   5.464  0.00  0.00    -0.288 OA
ATOM      3  C   UNL     1     -35.150  26.619   4.494  0.00  0.00    +0.097 C 
ATOM      4  C   UNL     1     -36.200  25.849   3.671  0.00  0.00    +0.162 C 
ATOM      5  C   UNL     1     -35.992  24.329   3.628  0.00  0.00    +0.215 C 
ATOM      6  C   UNL     1     -34.493  25.800   5.587  0.00  0.00    -0.010 C 
ATOM      7  C   UNL     1     -34.023  27.232   3.659  0.00  0.00    +0.212 C 
ATOM      8  C   UNL     1     -35.773  23.798   5.042  0.00  0.00    +0.211 C 
ATOM      9  C   UNL     1     -34.814  24.538   5.902  0.00  0.00    +0.037 C 
ATOM     10  C   UNL     1     -34.818  23.905   2.743  0.00  0.00    +0.054 C 
ATOM     11  C   UNL     1     -33.416  26.505   6.257  0.00  0.00    +0.033 C 
ATOM     12  C   UNL     1     -32.854  27.594   5.702  0.00  0.00    +0.138 C 
ENDROOT
BRANCH  12  13
ATOM     13  C   UNL     1     -31.805  28.333   6.349  0.00  0.00    +0.032 C 
ATOM     14  C   UNL     1     -30.578  28.476   5.834  0.00  0.00    -0.023 C 
ATOM     15  C   UNL     1     -29.484  29.241   6.504  0.00  0.00    +0.031 C 
ENDBRANCH  12  13
BRANCH   4  16
ATOM     16  O   UNL     1     -37.489  26.116   4.252  0.00  0.00    -0.380 OA
ATOM     17  H   UNL     1     -38.024  25.308   4.238  0.00  0.00    +0.211 HD
ENDBRANCH   4  16
BRANCH   5  18
ATOM     18  O   UNL     1     -37.159  23.701   3.103  0.00  0.00    -0.443 OA
BRANCH  18  20
ATOM     19  O   UNL     1     -37.252  25.006   1.209  0.00  0.00    -0.245 OA
ATOM     20  C   UNL     1     -37.426  23.948   1.794  0.00  0.00    +0.344 C 
BRANCH  20  21
ATOM     21  C   UNL     1     -37.973  22.735   1.134  0.00  0.00    +0.105 C 
ATOM     22  C   UNL     1     -37.186  22.003   0.245  0.00  0.00    -0.010 C 
ATOM     23  C   UNL     1     -39.279  22.329   1.406  0.00  0.00    +0.143 C 
ATOM     24  C   UNL     1     -37.705  20.865  -0.373  0.00  0.00    +0.033 C 
ATOM     25  C   UNL     1     -39.798  21.192   0.789  0.00  0.00    +0.073 C 
ATOM     26  C   UNL     1     -35.783  22.414  -0.066  0.00  0.00    +0.031 C 
ATOM     27  C   UNL     1     -39.012  20.460  -0.101  0.00  0.00    +0.136 C 
BRANCH  23  28
ATOM     28  O   UNL     1     -40.065  23.030   2.271  0.00  0.00    -0.505 OA
ATOM     29  H   UNL     1     -40.526  23.791   1.975  0.00  0.00    +0.292 HD
ENDBRANCH  23  28
BRANCH  27  30
ATOM     30  O   UNL     1     -39.520  19.349  -0.702  0.00  0.00    -0.505 OA
ATOM     31  H   UNL     1     -39.929  19.417  -1.543  0.00  0.00    +0.292 HD
ENDBRANCH  27  30
ENDBRANCH  20  21
ENDBRANCH  18  20
ENDBRANCH   5  18
TORSDOF 7
ENDMDL
MODEL 2
REMARK VINA RESULT:      -6.7      1.613      2.005
REMARK  Name = 57333717
REMARK  7 active torsions:
REMARK  status: ('A' for Active; 'I' for Inactive)
REMARK    1  A    between atoms: C_4  and  O_16
REMARK    2  A    between atoms: C_5  and  O_18
REMARK    3  A    between atoms: C_12  and  C_13
REMARK    4  A    between atoms: O_18  and  C_20
REMARK    5  A    between atoms: C_20  and  C_21
REMARK    6  A    between atoms: C_23  and  O_28
REMARK    7  A    between atoms: C_27  and  O_30
REMARK                            x       y       z     vdW  Elec       q    Type
REMARK                         _______ _______ _______ _____ _____    ______ ____
ROOT
ATOM      1  O   UNL     1     -33.954  27.589   3.546  0.00  0.00    -0.475 OA
ATOM      2  O   UNL     1     -35.908  22.136   5.891  0.00  0.00    -0.288 OA
ATOM      3  C   UNL     1     -35.583  25.849   4.109  0.00  0.00    +0.097 C 
ATOM      4  C   UNL     1     -36.558  24.777   3.589  0.00  0.00    +0.162 C 
ATOM      5  C   UNL     1     -36.084  23.330   3.785  0.00  0.00    +0.215 C 
ATOM      6  C   UNL     1     -34.675  25.375   5.226  0.00  0.00    -0.010 C 
ATOM      7  C   UNL     1     -34.682  26.456   3.030  0.00  0.00    +0.212 C 
ATOM      8  C   UNL     1     -35.621  23.129   5.226  0.00  0.00    +0.211 C 
ATOM      9  C   UNL     1     -34.726  24.166   5.799  0.00  0.00    +0.037 C 
ATOM     10  C   UNL     1     -34.955  22.931   2.833  0.00  0.00    +0.054 C 
ATOM     11  C   UNL     1     -33.678  26.360   5.605  0.00  0.00    +0.033 C 
ATOM     12  C   UNL     1     -33.385  27.393   4.794  0.00  0.00    +0.138 C 
ENDROOT
BRANCH  12  13
ATOM     13  C   UNL     1     -32.424  28.401   5.149  0.00  0.00    +0.032 C 
ATOM     14  C   UNL     1     -31.840  28.472   6.351  0.00  0.00    -0.023 C 
ATOM     15  C   UNL     1     -30.843  29.519   6.725  0.00  0.00    +0.031 C 
ENDBRANCH  12  13
BRANCH   4  16
ATOM     16  O   UNL     1     -37.804  24.946   4.289  0.00  0.00    -0.380 OA
ATOM     17  H   UNL     1     -38.479  25.273   3.675  0.00  0.00    +0.211 HD
ENDBRANCH   4  16
BRANCH   5  18
ATOM     18  O   UNL     1     -37.168  22.435   3.546  0.00  0.00    -0.443 OA
BRANCH  18  20
ATOM     19  O   UNL     1     -38.813  23.249   2.159  0.00  0.00    -0.245 OA
ATOM     20  C   UNL     1     -37.808  22.585   2.358  0.00  0.00    +0.344 C 
BRANCH  20  21
ATOM     21  C   UNL     1     -37.116  21.817   1.291  0.00  0.00    +0.105 C 
ATOM     22  C   UNL     1     -36.803  22.427   0.076  0.00  0.00    -0.010 C 
ATOM     23  C   UNL     1     -36.781  20.481   1.507  0.00  0.00    +0.143 C 
ATOM     24  C   UNL     1     -36.155  21.702  -0.923  0.00  0.00    +0.033 C 
ATOM     25  C   UNL     1     -36.132  19.755   0.509  0.00  0.00    +0.073 C 
ATOM     26  C   UNL     1     -37.151  23.858  -0.184  0.00  0.00    +0.031 C 
ATOM     27  C   UNL     1     -35.820  20.365  -0.707  0.00  0.00    +0.136 C 
BRANCH  23  28
ATOM     28  O   UNL     1     -37.077  19.866   2.686  0.00  0.00    -0.505 OA
ATOM     29  H   UNL     1     -37.118  20.364   3.479  0.00  0.00    +0.292 HD
ENDBRANCH  23  28
BRANCH  27  30
ATOM     30  O   UNL     1     -35.186  19.655  -1.680  0.00  0.00    -0.505 OA
ATOM     31  H   UNL     1     -34.498  19.060  -1.453  0.00  0.00    +0.292 HD
ENDBRANCH  27  30
ENDBRANCH  20  21
ENDBRANCH  18  20
ENDBRANCH   5  18
TORSDOF 7
ENDMDL
MODEL 3
REMARK VINA RESULT:      -6.7      1.492      1.759
REMARK  Name = 57333717
REMARK  7 active torsions:
REMARK  status: ('A' for Active; 'I' for Inactive)
REMARK    1  A    between atoms: C_4  and  O_16
REMARK    2  A    between atoms: C_5  and  O_18
REMARK    3  A    between atoms: C_12  and  C_13
REMARK    4  A    between atoms: O_18  and  C_20
REMARK    5  A    between atoms: C_20  and  C_21
REMARK    6  A    between atoms: C_23  and  O_28
REMARK    7  A    between atoms: C_27  and  O_30
REMARK                            x       y       z     vdW  Elec       q    Type
REMARK                         _______ _______ _______ _____ _____    ______ ____
ROOT
ATOM      1  O   UNL     1     -33.892  27.568   3.502  0.00  0.00    -0.475 OA
ATOM      2  O   UNL     1     -36.137  22.181   5.734  0.00  0.00    -0.288 OA
ATOM      3  C   UNL     1     -35.610  25.902   4.018  0.00  0.00    +0.097 C 
ATOM      4  C   UNL     1     -36.630  24.887   3.470  0.00  0.00    +0.162 C 
ATOM      5  C   UNL     1     -36.229  23.415   3.647  0.00  0.00    +0.215 C 
ATOM      6  C   UNL     1     -34.740  25.366   5.138  0.00  0.00    -0.010 C 
ATOM      7  C   UNL     1     -34.668  26.481   2.959  0.00  0.00    +0.212 C 
ATOM      8  C   UNL     1     -35.795  23.170   5.089  0.00  0.00    +0.211 C 
ATOM      9  C   UNL     1     -34.857  24.153   5.690  0.00  0.00    +0.037 C 
ATOM     10  C   UNL     1     -35.110  22.977   2.701  0.00  0.00    +0.054 C 
ATOM     11  C   UNL     1     -33.701  26.295   5.544  0.00  0.00    +0.033 C 
ATOM     12  C   UNL     1     -33.349  27.325   4.753  0.00  0.00    +0.138 C 
ENDROOT
BRANCH  12  13
ATOM     13  C   UNL     1     -32.344  28.279   5.135  0.00  0.00    +0.032 C 
ATOM     14  C   UNL     1     -31.977  28.495   6.405  0.00  0.00    -0.023 C 
ATOM     15  C   UNL     1     -30.936  29.487   6.807  0.00  0.00    +0.031 C 
ENDBRANCH  12  13
BRANCH   4  16
ATOM     16  O   UNL     1     -37.875  25.106   4.158  0.00  0.00    -0.380 OA
ATOM     17  H   UNL     1     -38.591  24.656   3.684  0.00  0.00    +0.211 HD
ENDBRANCH   4  16
BRANCH   5  18
ATOM     18  O   UNL     1     -37.352  22.579   3.381  0.00  0.00    -0.443 OA
BRANCH  18  20
ATOM     19  O   UNL     1     -36.468  20.878   2.108  0.00  0.00    -0.245 OA
ATOM     20  C   UNL     1     -37.258  21.794   2.276  0.00  0.00    +0.344 C 
BRANCH  20  21
ATOM     21  C   UNL     1     -38.266  22.196   1.262  0.00  0.00    +0.105 C 
ATOM     22  C   UNL     1     -37.894  22.987   0.175  0.00  0.00    -0.010 C 
ATOM     23  C   UNL     1     -39.590  21.781   1.401  0.00  0.00    +0.143 C 
ATOM     24  C   UNL     1     -38.844  23.363  -0.773  0.00  0.00    +0.033 C 
ATOM     25  C   UNL     1     -40.541  22.157   0.453  0.00  0.00    +0.073 C 
ATOM     26  C   UNL     1     -36.482  23.447   0.001  0.00  0.00    +0.031 C 
ATOM     27  C   UNL     1     -40.169  22.949  -0.633  0.00  0.00    +0.136 C 
BRANCH  23  28
ATOM     28  O   UNL     1     -39.976  21.009   2.455  0.00  0.00    -0.505 OA
ATOM     29  H   UNL     1     -39.719  21.241   3.326  0.00  0.00    +0.292 HD
ENDBRANCH  23  28
BRANCH  27  30
ATOM     30  O   UNL     1     -41.098  23.314  -1.559  0.00  0.00    -0.505 OA
ATOM     31  H   UNL     1     -40.829  23.734  -2.352  0.00  0.00    +0.292 HD
ENDBRANCH  27  30
ENDBRANCH  20  21
ENDBRANCH  18  20
ENDBRANCH   5  18
TORSDOF 7
ENDMDL
MODEL 4
REMARK VINA RESULT:      -6.6      1.727      2.576
REMARK  Name = 57333717
REMARK  7 active torsions:
REMARK  status: ('A' for Active; 'I' for Inactive)
REMARK    1  A    between atoms: C_4  and  O_16
REMARK    2  A    between atoms: C_5  and  O_18
REMARK    3  A    between atoms: C_12  and  C_13
REMARK    4  A    between atoms: O_18  and  C_20
REMARK    5  A    between atoms: C_20  and  C_21
REMARK    6  A    between atoms: C_23  and  O_28
REMARK    7  A    between atoms: C_27  and  O_30
REMARK                            x       y       z     vdW  Elec       q    Type
REMARK                         _______ _______ _______ _____ _____    ______ ____
ROOT
ATOM      1  O   UNL     1     -33.409  28.017   4.467  0.00  0.00    -0.475 OA
ATOM      2  O   UNL     1     -36.365  22.572   5.280  0.00  0.00    -0.288 OA
ATOM      3  C   UNL     1     -35.321  26.489   4.479  0.00  0.00    +0.097 C 
ATOM      4  C   UNL     1     -36.381  25.740   3.649  0.00  0.00    +0.162 C 
ATOM      5  C   UNL     1     -36.143  24.228   3.520  0.00  0.00    +0.215 C 
ATOM      6  C   UNL     1     -34.614  25.628   5.507  0.00  0.00    -0.010 C 
ATOM      7  C   UNL     1     -34.234  27.169   3.643  0.00  0.00    +0.212 C 
ATOM      8  C   UNL     1     -35.869  23.630   4.897  0.00  0.00    +0.211 C 
ATOM      9  C   UNL     1     -34.900  24.346   5.765  0.00  0.00    +0.037 C 
ATOM     10  C   UNL     1     -34.990  23.877   2.579  0.00  0.00    +0.054 C 
ATOM     11  C   UNL     1     -33.532  26.322   6.181  0.00  0.00    +0.033 C 
ATOM     12  C   UNL     1     -33.009  27.449   5.666  0.00  0.00    +0.138 C 
ENDROOT
BRANCH  12  13
ATOM     13  C   UNL     1     -31.956  28.177   6.320  0.00  0.00    +0.032 C 
ATOM     14  C   UNL     1     -31.057  28.921   5.664  0.00  0.00    -0.023 C 
ATOM     15  C   UNL     1     -29.960  29.677   6.338  0.00  0.00    +0.031 C 
ENDBRANCH  12  13
BRANCH   4  16
ATOM     16  O   UNL     1     -37.656  25.947   4.282  0.00  0.00    -0.380 OA
ATOM     17  H   UNL     1     -38.175  25.130   4.241  0.00  0.00    +0.211 HD
ENDBRANCH   4  16
BRANCH   5  18
ATOM     18  O   UNL     1     -37.313  23.603   2.998  0.00  0.00    -0.443 OA
BRANCH  18  20
ATOM     19  O   UNL     1     -36.713  23.094   0.835  0.00  0.00    -0.245 OA
ATOM     20  C   UNL     1     -37.449  23.635   1.646  0.00  0.00    +0.344 C 
BRANCH  20  21
ATOM     21  C   UNL     1     -38.640  24.433   1.259  0.00  0.00    +0.105 C 
ATOM     22  C   UNL     1     -38.489  25.632   0.563  0.00  0.00    -0.010 C 
ATOM     23  C   UNL     1     -39.915  23.979   1.596  0.00  0.00    +0.143 C 
ATOM     24  C   UNL     1     -39.611  26.378   0.204  0.00  0.00    +0.033 C 
ATOM     25  C   UNL     1     -41.038  24.724   1.237  0.00  0.00    +0.073 C 
ATOM     26  C   UNL     1     -37.135  26.143   0.189  0.00  0.00    +0.031 C 
ATOM     27  C   UNL     1     -40.886  25.924   0.542  0.00  0.00    +0.136 C 
BRANCH  23  28
ATOM     28  O   UNL     1     -40.087  22.811   2.276  0.00  0.00    -0.505 OA
ATOM     29  H   UNL     1     -39.405  22.167   2.284  0.00  0.00    +0.292 HD
ENDBRANCH  23  28
BRANCH  27  30
ATOM     30  O   UNL     1     -41.983  26.650   0.191  0.00  0.00    -0.505 OA
ATOM     31  H   UNL     1     -42.839  26.281   0.288  0.00  0.00    +0.292 HD
ENDBRANCH  27  30
ENDBRANCH  20  21
ENDBRANCH  18  20
ENDBRANCH   5  18
TORSDOF 7
ENDMDL
MODEL 5
REMARK VINA RESULT:      -6.5      2.429      7.523
REMARK  Name = 57333717
REMARK  7 active torsions:
REMARK  status: ('A' for Active; 'I' for Inactive)
REMARK    1  A    between atoms: C_4  and  O_16
REMARK    2  A    between atoms: C_5  and  O_18
REMARK    3  A    between atoms: C_12  and  C_13
REMARK    4  A    between atoms: O_18  and  C_20
REMARK    5  A    between atoms: C_20  and  C_21
REMARK    6  A    between atoms: C_23  and  O_28
REMARK    7  A    between atoms: C_27  and  O_30
REMARK                            x       y       z     vdW  Elec       q    Type
REMARK                         _______ _______ _______ _____ _____    ______ ____
ROOT
ATOM      1  O   UNL     1     -34.305  20.198   1.012  0.00  0.00    -0.475 OA
ATOM      2  O   UNL     1     -39.683  23.041   2.442  0.00  0.00    -0.288 OA
ATOM      3  C   UNL     1     -35.867  21.457   2.416  0.00  0.00    +0.097 C 
ATOM      4  C   UNL     1     -36.191  22.793   3.108  0.00  0.00    +0.162 C 
ATOM      5  C   UNL     1     -37.321  23.599   2.450  0.00  0.00    +0.215 C 
ATOM      6  C   UNL     1     -37.026  20.859   1.644  0.00  0.00    -0.010 C 
ATOM      7  C   UNL     1     -34.677  21.519   1.455  0.00  0.00    +0.212 C 
ATOM      8  C   UNL     1     -38.527  22.695   2.209  0.00  0.00    +0.211 C 
ATOM      9  C   UNL     1     -38.265  21.366   1.598  0.00  0.00    +0.037 C 
ATOM     10  C   UNL     1     -36.907  24.250   1.129  0.00  0.00    +0.054 C 
ATOM     11  C   UNL     1     -36.658  19.672   0.893  0.00  0.00    +0.033 C 
ATOM     12  C   UNL     1     -35.367  19.392   0.636  0.00  0.00    +0.138 C 
ENDROOT
BRANCH  12  13
ATOM     13  C   UNL     1     -34.964  18.213  -0.080  0.00  0.00    +0.032 C 
ATOM     14  C   UNL     1     -33.874  17.499   0.229  0.00  0.00    -0.023 C 
ATOM     15  C   UNL     1     -33.450  16.275  -0.513  0.00  0.00    +0.031 C 
ENDBRANCH  12  13
BRANCH   4  16
ATOM     16  O   UNL     1     -36.572  22.500   4.464  0.00  0.00    -0.380 OA
ATOM     17  H   UNL     1     -37.355  23.021   4.701  0.00  0.00    +0.211 HD
ENDBRANCH   4  16
BRANCH   5  18
ATOM     18  O   UNL     1     -37.731  24.649   3.323  0.00  0.00    -0.443 OA
BRANCH  18  20
ATOM     19  O   UNL     1     -37.847  26.688   2.263  0.00  0.00    -0.245 OA
ATOM     20  C   UNL     1     -37.289  25.893   3.002  0.00  0.00    +0.344 C 
BRANCH  20  21
ATOM     21  C   UNL     1     -36.000  26.181   3.683  0.00  0.00    +0.105 C 
ATOM     22  C   UNL     1     -34.960  26.798   2.988  0.00  0.00    -0.010 C 
ATOM     23  C   UNL     1     -35.832  25.830   5.022  0.00  0.00    +0.143 C 
ATOM     24  C   UNL     1     -33.752  27.064   3.631  0.00  0.00    +0.033 C 
ATOM     25  C   UNL     1     -34.624  26.097   5.666  0.00  0.00    +0.073 C 
ATOM     26  C   UNL     1     -35.112  27.185   1.552  0.00  0.00    +0.031 C 
ATOM     27  C   UNL     1     -33.584  26.713   4.971  0.00  0.00    +0.136 C 
BRANCH  23  28
ATOM     28  O   UNL     1     -36.834  25.226   5.720  0.00  0.00    -0.505 OA
ATOM     29  H   UNL     1     -36.931  25.388   6.638  0.00  0.00    +0.292 HD
ENDBRANCH  23  28
BRANCH  27  30
ATOM     30  O   UNL     1     -32.405  26.974   5.601  0.00  0.00    -0.505 OA
ATOM     31  H   UNL     1     -31.904  27.729   5.362  0.00  0.00    +0.292 HD
ENDBRANCH  27  30
ENDBRANCH  20  21
ENDBRANCH  18  20
ENDBRANCH   5  18
TORSDOF 7
ENDMDL
MODEL 6
REMARK VINA RESULT:      -6.4      3.530      5.320
REMARK  Name = 57333717
REMARK  7 active torsions:
REMARK  status: ('A' for Active; 'I' for Inactive)
REMARK    1  A    between atoms: C_4  and  O_16
REMARK    2  A    between atoms: C_5  and  O_18
REMARK    3  A    between atoms: C_12  and  C_13
REMARK    4  A    between atoms: O_18  and  C_20
REMARK    5  A    between atoms: C_20  and  C_21
REMARK    6  A    between atoms: C_23  and  O_28
REMARK    7  A    between atoms: C_27  and  O_30
REMARK                            x       y       z     vdW  Elec       q    Type
REMARK                         _______ _______ _______ _____ _____    ______ ____
ROOT
ATOM      1  O   UNL     1     -35.642  31.533   1.703  0.00  0.00    -0.475 OA
ATOM      2  O   UNL     1     -31.658  26.888   2.966  0.00  0.00    -0.288 OA
ATOM      3  C   UNL     1     -34.877  29.470   2.778  0.00  0.00    +0.097 C 
ATOM      4  C   UNL     1     -35.059  27.949   2.928  0.00  0.00    +0.162 C 
ATOM      5  C   UNL     1     -33.968  27.103   2.255  0.00  0.00    +0.215 C 
ATOM      6  C   UNL     1     -33.440  29.908   2.571  0.00  0.00    -0.010 C 
ATOM      7  C   UNL     1     -35.699  30.093   1.647  0.00  0.00    +0.212 C 
ATOM      8  C   UNL     1     -32.591  27.625   2.655  0.00  0.00    +0.211 C 
ATOM      9  C   UNL     1     -32.378  29.093   2.587  0.00  0.00    +0.037 C 
ATOM     10  C   UNL     1     -34.076  27.082   0.729  0.00  0.00    +0.054 C 
ATOM     11  C   UNL     1     -33.312  31.328   2.300  0.00  0.00    +0.033 C 
ATOM     12  C   UNL     1     -34.376  32.055   1.913  0.00  0.00    +0.138 C 
ENDROOT
BRANCH  12  13
ATOM     13  C   UNL     1     -34.292  33.468   1.662  0.00  0.00    +0.032 C 
ATOM     14  C   UNL     1     -33.292  34.238   2.109  0.00  0.00    -0.023 C 
ATOM     15  C   UNL     1     -33.201  35.706   1.853  0.00  0.00    +0.031 C 
ENDBRANCH  12  13
BRANCH   4  16
ATOM     16  O   UNL     1     -35.064  27.648   4.335  0.00  0.00    -0.380 OA
ATOM     17  H   UNL     1     -35.738  28.186   4.779  0.00  0.00    +0.211 HD
ENDBRANCH   4  16
BRANCH   5  18
ATOM     18  O   UNL     1     -34.069  25.752   2.699  0.00  0.00    -0.443 OA
BRANCH  18  20
ATOM     19  O   UNL     1     -36.329  25.723   2.271  0.00  0.00    -0.245 OA
ATOM     20  C   UNL     1     -35.327  25.248   2.781  0.00  0.00    +0.344 C 
BRANCH  20  21
ATOM     21  C   UNL     1     -35.339  24.004   3.593  0.00  0.00    +0.105 C 
ATOM     22  C   UNL     1     -35.346  22.756   2.969  0.00  0.00    -0.010 C 
ATOM     23  C   UNL     1     -35.345  24.087   4.985  0.00  0.00    +0.143 C 
ATOM     24  C   UNL     1     -35.359  21.592   3.737  0.00  0.00    +0.033 C 
ATOM     25  C   UNL     1     -35.358  22.923   5.753  0.00  0.00    +0.073 C 
ATOM     26  C   UNL     1     -35.340  22.637   1.480  0.00  0.00    +0.031 C 
ATOM     27  C   UNL     1     -35.366  21.675   5.129  0.00  0.00    +0.136 C 
BRANCH  23  28
ATOM     28  O   UNL     1     -35.339  25.295   5.616  0.00  0.00    -0.505 OA
ATOM     29  H   UNL     1     -36.147  25.695   5.872  0.00  0.00    +0.292 HD
ENDBRANCH  23  28
BRANCH  27  30
ATOM     30  O   UNL     1     -35.377  20.540   5.880  0.00  0.00    -0.505 OA
ATOM     31  H   UNL     1     -36.151  20.012   5.918  0.00  0.00    +0.292 HD
ENDBRANCH  27  30
ENDBRANCH  20  21
ENDBRANCH  18  20
ENDBRANCH   5  18
TORSDOF 7
ENDMDL
MODEL 7
REMARK VINA RESULT:      -6.4      2.780      7.858
REMARK  Name = 57333717
REMARK  7 active torsions:
REMARK  status: ('A' for Active; 'I' for Inactive)
REMARK    1  A    between atoms: C_4  and  O_16
REMARK    2  A    between atoms: C_5  and  O_18
REMARK    3  A    between atoms: C_12  and  C_13
REMARK    4  A    between atoms: O_18  and  C_20
REMARK    5  A    between atoms: C_20  and  C_21
REMARK    6  A    between atoms: C_23  and  O_28
REMARK    7  A    between atoms: C_27  and  O_30
REMARK                            x       y       z     vdW  Elec       q    Type
REMARK                         _______ _______ _______ _____ _____    ______ ____
ROOT
ATOM      1  O   UNL     1     -33.454  20.067  -0.174  0.00  0.00    -0.475 OA
ATOM      2  O   UNL     1     -39.092  21.444   2.142  0.00  0.00    -0.288 OA
ATOM      3  C   UNL     1     -35.098  20.552   1.574  0.00  0.00    +0.097 C 
ATOM      4  C   UNL     1     -35.569  21.528   2.668  0.00  0.00    +0.162 C 
ATOM      5  C   UNL     1     -36.836  22.322   2.317  0.00  0.00    +0.215 C 
ATOM      6  C   UNL     1     -36.202  20.066   0.657  0.00  0.00    -0.010 C 
ATOM      7  C   UNL     1     -33.984  21.101   0.679  0.00  0.00    +0.212 C 
ATOM      8  C   UNL     1     -37.913  21.371   1.802  0.00  0.00    +0.211 C 
ATOM      9  C   UNL     1     -37.500  20.367   0.788  0.00  0.00    +0.037 C 
ATOM     10  C   UNL     1     -36.593  23.419   1.279  0.00  0.00    +0.054 C 
ATOM     11  C   UNL     1     -35.712  19.256  -0.443  0.00  0.00    +0.033 C 
ATOM     12  C   UNL     1     -34.411  19.273  -0.786  0.00  0.00    +0.138 C 
ENDROOT
BRANCH  12  13
ATOM     13  C   UNL     1     -33.886  18.463  -1.851  0.00  0.00    +0.032 C 
ATOM     14  C   UNL     1     -33.509  17.188  -1.691  0.00  0.00    -0.023 C 
ATOM     15  C   UNL     1     -32.961  16.344  -2.794  0.00  0.00    +0.031 C 
ENDBRANCH  12  13
BRANCH   4  16
ATOM     16  O   UNL     1     -35.828  20.759   3.856  0.00  0.00    -0.380 OA
ATOM     17  H   UNL     1     -36.063  21.355   4.583  0.00  0.00    +0.211 HD
ENDBRANCH   4  16
BRANCH   5  18
ATOM     18  O   UNL     1     -37.341  22.959   3.488  0.00  0.00    -0.443 OA
BRANCH  18  20
ATOM     19  O   UNL     1     -38.408  24.924   2.944  0.00  0.00    -0.245 OA
ATOM     20  C   UNL     1     -37.466  24.310   3.420  0.00  0.00    +0.344 C 
BRANCH  20  21
ATOM     21  C   UNL     1     -36.279  24.974   4.016  0.00  0.00    +0.105 C 
ATOM     22  C   UNL     1     -35.779  26.152   3.460  0.00  0.00    -0.010 C 
ATOM     23  C   UNL     1     -35.663  24.416   5.136  0.00  0.00    +0.143 C 
ATOM     24  C   UNL     1     -34.663  26.771   4.023  0.00  0.00    +0.033 C 
ATOM     25  C   UNL     1     -34.547  25.035   5.699  0.00  0.00    +0.073 C 
ATOM     26  C   UNL     1     -36.419  26.773   2.261  0.00  0.00    +0.031 C 
ATOM     27  C   UNL     1     -34.047  26.211   5.142  0.00  0.00    +0.136 C 
BRANCH  23  28
ATOM     28  O   UNL     1     -36.134  23.266   5.695  0.00  0.00    -0.505 OA
ATOM     29  H   UNL     1     -37.033  23.023   5.582  0.00  0.00    +0.292 HD
ENDBRANCH  23  28
BRANCH  27  30
ATOM     30  O   UNL     1     -32.958  26.815   5.693  0.00  0.00    -0.505 OA
ATOM     31  H   UNL     1     -32.487  26.391   6.384  0.00  0.00    +0.292 HD
ENDBRANCH  27  30
ENDBRANCH  20  21
ENDBRANCH  18  20
ENDBRANCH   5  18
TORSDOF 7
ENDMDL
MODEL 8
REMARK VINA RESULT:      -6.3      3.838      6.556
REMARK  Name = 57333717
REMARK  7 active torsions:
REMARK  status: ('A' for Active; 'I' for Inactive)
REMARK    1  A    between atoms: C_4  and  O_16
REMARK    2  A    between atoms: C_5  and  O_18
REMARK    3  A    between atoms: C_12  and  C_13
REMARK    4  A    between atoms: O_18  and  C_20
REMARK    5  A    between atoms: C_20  and  C_21
REMARK    6  A    between atoms: C_23  and  O_28
REMARK    7  A    between atoms: C_27  and  O_30
REMARK                            x       y       z     vdW  Elec       q    Type
REMARK                         _______ _______ _______ _____ _____    ______ ____
ROOT
ATOM      1  O   UNL     1     -40.476  24.432   1.322  0.00  0.00    -0.475 OA
ATOM      2  O   UNL     1     -34.783  24.007   3.862  0.00  0.00    -0.288 OA
ATOM      3  C   UNL     1     -38.460  23.294   2.118  0.00  0.00    +0.097 C 
ATOM      4  C   UNL     1     -37.209  22.475   1.751  0.00  0.00    +0.162 C 
ATOM      5  C   UNL     1     -35.886  23.249   1.838  0.00  0.00    +0.215 C 
ATOM      6  C   UNL     1     -38.190  24.452   3.059  0.00  0.00    -0.010 C 
ATOM      7  C   UNL     1     -39.214  23.864   0.915  0.00  0.00    +0.212 C 
ATOM      8  C   UNL     1     -35.803  23.978   3.177  0.00  0.00    +0.211 C 
ATOM      9  C   UNL     1     -37.004  24.735   3.611  0.00  0.00    +0.037 C 
ATOM     10  C   UNL     1     -35.702  24.258   0.703  0.00  0.00    +0.054 C 
ATOM     11  C   UNL     1     -39.357  25.286   3.283  0.00  0.00    +0.033 C 
ATOM     12  C   UNL     1     -40.415  25.230   2.453  0.00  0.00    +0.138 C 
ENDROOT
BRANCH  12  13
ATOM     13  C   UNL     1     -41.597  26.020   2.660  0.00  0.00    +0.032 C 
ATOM     14  C   UNL     1     -41.750  26.864   3.688  0.00  0.00    -0.023 C 
ATOM     15  C   UNL     1     -42.977  27.685   3.908  0.00  0.00    +0.031 C 
ENDBRANCH  12  13
BRANCH   4  16
ATOM     16  O   UNL     1     -37.141  21.356   2.652  0.00  0.00    -0.380 OA
ATOM     17  H   UNL     1     -36.531  21.560   3.378  0.00  0.00    +0.211 HD
ENDBRANCH   4  16
BRANCH   5  18
ATOM     18  O   UNL     1     -34.793  22.338   1.768  0.00  0.00    -0.443 OA
BRANCH  18  20
ATOM     19  O   UNL     1     -35.073  22.108  -0.504  0.00  0.00    -0.245 OA
ATOM     20  C   UNL     1     -34.578  21.761   0.557  0.00  0.00    +0.344 C 
BRANCH  20  21
ATOM     21  C   UNL     1     -33.636  20.620   0.681  0.00  0.00    +0.105 C 
ATOM     22  C   UNL     1     -32.370  20.686   0.100  0.00  0.00    -0.010 C 
ATOM     23  C   UNL     1     -34.023  19.477   1.381  0.00  0.00    +0.143 C 
ATOM     24  C   UNL     1     -31.490  19.611   0.218  0.00  0.00    +0.033 C 
ATOM     25  C   UNL     1     -33.143  18.401   1.500  0.00  0.00    +0.073 C 
ATOM     26  C   UNL     1     -31.928  21.898  -0.656  0.00  0.00    +0.031 C 
ATOM     27  C   UNL     1     -31.877  18.468   0.918  0.00  0.00    +0.136 C 
BRANCH  23  28
ATOM     28  O   UNL     1     -35.255  19.390   1.956  0.00  0.00    -0.505 OA
ATOM     29  H   UNL     1     -35.378  18.874   2.729  0.00  0.00    +0.292 HD
ENDBRANCH  23  28
BRANCH  27  30
ATOM     30  O   UNL     1     -31.019  17.417   1.035  0.00  0.00    -0.505 OA
ATOM     31  H   UNL     1     -30.636  17.038   0.269  0.00  0.00    +0.292 HD
ENDBRANCH  27  30
ENDBRANCH  20  21
ENDBRANCH  18  20
ENDBRANCH   5  18
TORSDOF 7
ENDMDL
MODEL 9
REMARK VINA RESULT:      -6.2      2.715      7.953
REMARK  Name = 57333717
REMARK  7 active torsions:
REMARK  status: ('A' for Active; 'I' for Inactive)
REMARK    1  A    between atoms: C_4  and  O_16
REMARK    2  A    between atoms: C_5  and  O_18
REMARK    3  A    between atoms: C_12  and  C_13
REMARK    4  A    between atoms: O_18  and  C_20
REMARK    5  A    between atoms: C_20  and  C_21
REMARK    6  A    between atoms: C_23  and  O_28
REMARK    7  A    between atoms: C_27  and  O_30
REMARK                            x       y       z     vdW  Elec       q    Type
REMARK                         _______ _______ _______ _____ _____    ______ ____
ROOT
ATOM      1  O   UNL     1     -33.583  20.138  -0.483  0.00  0.00    -0.475 OA
ATOM      2  O   UNL     1     -38.959  21.672   2.308  0.00  0.00    -0.288 OA
ATOM      3  C   UNL     1     -35.098  20.514   1.403  0.00  0.00    +0.097 C 
ATOM      4  C   UNL     1     -35.426  21.362   2.646  0.00  0.00    +0.162 C 
ATOM      5  C   UNL     1     -36.624  22.308   2.479  0.00  0.00    +0.215 C 
ATOM      6  C   UNL     1     -36.281  20.267   0.489  0.00  0.00    -0.010 C 
ATOM      7  C   UNL     1     -33.974  21.083   0.533  0.00  0.00    +0.212 C 
ATOM      8  C   UNL     1     -37.808  21.543   1.896  0.00  0.00    +0.211 C 
ATOM      9  C   UNL     1     -37.538  20.662   0.732  0.00  0.00    +0.037 C 
ATOM     10  C   UNL     1     -36.318  23.517   1.592  0.00  0.00    +0.054 C 
ATOM     11  C   UNL     1     -35.918  19.582  -0.738  0.00  0.00    +0.033 C 
ATOM     12  C   UNL     1     -34.637  19.530  -1.147  0.00  0.00    +0.138 C 
ENDROOT
BRANCH  12  13
ATOM     13  C   UNL     1     -34.238  18.838  -2.341  0.00  0.00    +0.032 C 
ATOM     14  C   UNL     1     -33.592  17.666  -2.332  0.00  0.00    -0.023 C 
ATOM     15  C   UNL     1     -33.173  16.944  -3.570  0.00  0.00    +0.031 C 
ENDBRANCH  12  13
BRANCH   4  16
ATOM     16  O   UNL     1     -35.710  20.456   3.728  0.00  0.00    -0.380 OA
ATOM     17  H   UNL     1     -36.655  20.242   3.732  0.00  0.00    +0.211 HD
ENDBRANCH   4  16
BRANCH   5  18
ATOM     18  O   UNL     1     -37.015  22.813   3.753  0.00  0.00    -0.443 OA
BRANCH  18  20
ATOM     19  O   UNL     1     -38.407  24.627   3.489  0.00  0.00    -0.245 OA
ATOM     20  C   UNL     1     -37.333  24.134   3.795  0.00  0.00    +0.344 C 
BRANCH  20  21
ATOM     21  C   UNL     1     -36.177  24.934   4.276  0.00  0.00    +0.105 C 
ATOM     22  C   UNL     1     -35.343  24.433   5.276  0.00  0.00    -0.010 C 
ATOM     23  C   UNL     1     -35.929  26.190   3.725  0.00  0.00    +0.143 C 
ATOM     24  C   UNL     1     -34.261  25.190   5.725  0.00  0.00    +0.033 C 
ATOM     25  C   UNL     1     -34.846  26.947   4.174  0.00  0.00    +0.073 C 
ATOM     26  C   UNL     1     -35.585  23.090   5.885  0.00  0.00    +0.031 C 
ATOM     27  C   UNL     1     -34.013  26.447   5.174  0.00  0.00    +0.136 C 
BRANCH  23  28
ATOM     28  O   UNL     1     -36.731  26.698   2.748  0.00  0.00    -0.505 OA
ATOM     29  H   UNL     1     -36.817  26.248   1.930  0.00  0.00    +0.292 HD
ENDBRANCH  23  28
BRANCH  27  30
ATOM     30  O   UNL     1     -32.956  27.186   5.611  0.00  0.00    -0.505 OA
ATOM     31  H   UNL     1     -32.988  28.122   5.564  0.00  0.00    +0.292 HD
ENDBRANCH  27  30
ENDBRANCH  20  21
ENDBRANCH  18  20
ENDBRANCH   5  18
TORSDOF 7
ENDMDL
