MODEL 1
REMARK VINA RESULT:      -4.4      0.000      0.000
REMARK  Name = 5248269
REMARK  0 active torsions:
REMARK  status: ('A' for Active; 'I' for Inactive)
REMARK                            x       y       z     vdW  Elec       q    Type
REMARK                         _______ _______ _______ _____ _____    ______ ____
ROOT
ATOM      1  S   UNL     1     -39.043  21.045   0.158  0.00  0.00    -0.072 S 
ATOM      2  S   UNL     1     -38.113  23.165   2.135  0.00  0.00    -0.072 S 
ATOM      3  S   UNL     1     -36.576  19.457   0.700  0.00  0.00    -0.072 S 
ATOM      4  S   UNL     1     -35.644  21.576   2.677  0.00  0.00    -0.072 S 
ATOM      5  S   UNL     1     -37.541  17.264  -1.339  0.00  0.00    -0.078 S 
ATOM      6  S   UNL     1     -40.006  18.852  -1.881  0.00  0.00    -0.078 S 
ATOM      7  S   UNL     1     -34.684  23.768   4.719  0.00  0.00    -0.078 S 
ATOM      8  S   UNL     1     -37.150  25.354   4.177  0.00  0.00    -0.078 S 
ATOM      9  C   UNL     1     -37.897  21.667   1.296  0.00  0.00    +0.072 C 
ATOM     10  C   UNL     1     -36.790  20.954   1.539  0.00  0.00    +0.072 C 
ATOM     11  C   UNL     1     -38.086  19.621  -0.156  0.00  0.00    +0.072 C 
ATOM     12  C   UNL     1     -36.603  22.999   2.992  0.00  0.00    +0.072 C 
ATOM     13  C   UNL     1     -38.497  18.688  -1.024  0.00  0.00    +0.071 C 
ATOM     14  C   UNL     1     -36.194  23.931   3.862  0.00  0.00    +0.071 C 
ATOM     15  C   UNL     1     -38.687  16.642  -2.477  0.00  0.00    +0.043 C 
ATOM     16  C   UNL     1     -39.792  17.353  -2.719  0.00  0.00    +0.043 C 
ATOM     17  C   UNL     1     -34.900  25.265   5.559  0.00  0.00    +0.043 C 
ATOM     18  C   UNL     1     -36.006  25.976   5.317  0.00  0.00    +0.043 C 
ENDROOT
TORSDOF 0
ENDMDL
MODEL 2
REMARK VINA RESULT:      -4.3      0.080      2.135
REMARK  Name = 5248269
REMARK  0 active torsions:
REMARK  status: ('A' for Active; 'I' for Inactive)
REMARK                            x       y       z     vdW  Elec       q    Type
REMARK                         _______ _______ _______ _____ _____    ______ ____
ROOT
ATOM      1  S   UNL     1     -36.556  19.385   0.732  0.00  0.00    -0.072 S 
ATOM      2  S   UNL     1     -35.653  21.522   2.703  0.00  0.00    -0.072 S 
ATOM      3  S   UNL     1     -39.015  20.969   0.142  0.00  0.00    -0.072 S 
ATOM      4  S   UNL     1     -38.112  23.107   2.112  0.00  0.00    -0.072 S 
ATOM      5  S   UNL     1     -39.945  18.762  -1.898  0.00  0.00    -0.078 S 
ATOM      6  S   UNL     1     -37.488  17.180  -1.307  0.00  0.00    -0.078 S 
ATOM      7  S   UNL     1     -37.177  25.314   4.149  0.00  0.00    -0.078 S 
ATOM      8  S   UNL     1     -34.720  23.731   4.738  0.00  0.00    -0.078 S 
ATOM      9  C   UNL     1     -36.783  20.890   1.555  0.00  0.00    +0.072 C 
ATOM     10  C   UNL     1     -37.886  21.601   1.290  0.00  0.00    +0.072 C 
ATOM     11  C   UNL     1     -38.053  19.544  -0.148  0.00  0.00    +0.072 C 
ATOM     12  C   UNL     1     -36.614  22.948   2.992  0.00  0.00    +0.072 C 
ATOM     13  C   UNL     1     -38.449  18.605  -1.017  0.00  0.00    +0.071 C 
ATOM     14  C   UNL     1     -36.217  23.888   3.859  0.00  0.00    +0.071 C 
ATOM     15  C   UNL     1     -39.719  17.257  -2.721  0.00  0.00    +0.043 C 
ATOM     16  C   UNL     1     -38.617  16.547  -2.456  0.00  0.00    +0.043 C 
ATOM     17  C   UNL     1     -36.046  25.947   5.296  0.00  0.00    +0.043 C 
ATOM     18  C   UNL     1     -34.944  25.237   5.560  0.00  0.00    +0.043 C 
ENDROOT
TORSDOF 0
ENDMDL
MODEL 3
REMARK VINA RESULT:      -4.3      0.058      8.025
REMARK  Name = 5248269
REMARK  0 active torsions:
REMARK  status: ('A' for Active; 'I' for Inactive)
REMARK                            x       y       z     vdW  Elec       q    Type
REMARK                         _______ _______ _______ _____ _____    ______ ____
ROOT
ATOM      1  S   UNL     1     -38.127  23.109   2.128  0.00  0.00    -0.072 S 
ATOM      2  S   UNL     1     -39.038  20.981   0.152  0.00  0.00    -0.072 S 
ATOM      3  S   UNL     1     -35.626  21.564   2.640  0.00  0.00    -0.072 S 
ATOM      4  S   UNL     1     -36.537  19.435   0.663  0.00  0.00    -0.072 S 
ATOM      5  S   UNL     1     -34.683  23.766   4.679  0.00  0.00    -0.078 S 
ATOM      6  S   UNL     1     -37.183  25.309   4.168  0.00  0.00    -0.078 S 
ATOM      7  S   UNL     1     -37.480  17.237  -1.380  0.00  0.00    -0.078 S 
ATOM      8  S   UNL     1     -39.979  18.782  -1.890  0.00  0.00    -0.078 S 
ATOM      9  C   UNL     1     -37.893  21.619   1.281  0.00  0.00    +0.072 C 
ATOM     10  C   UNL     1     -36.771  20.925   1.511  0.00  0.00    +0.072 C 
ATOM     11  C   UNL     1     -36.606  22.968   2.970  0.00  0.00    +0.072 C 
ATOM     12  C   UNL     1     -38.058  19.577  -0.179  0.00  0.00    +0.072 C 
ATOM     13  C   UNL     1     -36.204  23.906   3.837  0.00  0.00    +0.071 C 
ATOM     14  C   UNL     1     -38.459  18.641  -1.049  0.00  0.00    +0.071 C 
ATOM     15  C   UNL     1     -34.917  25.257   5.526  0.00  0.00    +0.043 C 
ATOM     16  C   UNL     1     -36.038  25.949   5.297  0.00  0.00    +0.043 C 
ATOM     17  C   UNL     1     -38.624  16.600  -2.511  0.00  0.00    +0.043 C 
ATOM     18  C   UNL     1     -39.744  17.293  -2.740  0.00  0.00    +0.043 C 
ENDROOT
TORSDOF 0
ENDMDL
MODEL 4
REMARK VINA RESULT:      -4.3      0.047      8.303
REMARK  Name = 5248269
REMARK  0 active torsions:
REMARK  status: ('A' for Active; 'I' for Inactive)
REMARK                            x       y       z     vdW  Elec       q    Type
REMARK                         _______ _______ _______ _____ _____    ______ ____
ROOT
ATOM      1  S   UNL     1     -35.633  21.556   2.664  0.00  0.00    -0.072 S 
ATOM      2  S   UNL     1     -36.549  19.425   0.694  0.00  0.00    -0.072 S 
ATOM      3  S   UNL     1     -38.114  23.123   2.124  0.00  0.00    -0.072 S 
ATOM      4  S   UNL     1     -39.032  20.993   0.153  0.00  0.00    -0.072 S 
ATOM      5  S   UNL     1     -37.168  25.323   4.165  0.00  0.00    -0.078 S 
ATOM      6  S   UNL     1     -34.688  23.757   4.703  0.00  0.00    -0.078 S 
ATOM      7  S   UNL     1     -39.977  18.789  -1.883  0.00  0.00    -0.078 S 
ATOM      8  S   UNL     1     -37.497  17.224  -1.343  0.00  0.00    -0.078 S 
ATOM      9  C   UNL     1     -36.775  20.923   1.530  0.00  0.00    +0.072 C 
ATOM     10  C   UNL     1     -37.889  21.626   1.287  0.00  0.00    +0.072 C 
ATOM     11  C   UNL     1     -36.602  22.971   2.980  0.00  0.00    +0.072 C 
ATOM     12  C   UNL     1     -38.062  19.577  -0.161  0.00  0.00    +0.072 C 
ATOM     13  C   UNL     1     -36.200  23.908   3.848  0.00  0.00    +0.071 C 
ATOM     14  C   UNL     1     -38.465  18.639  -1.028  0.00  0.00    +0.071 C 
ATOM     15  C   UNL     1     -36.026  25.956   5.300  0.00  0.00    +0.043 C 
ATOM     16  C   UNL     1     -34.914  25.254   5.542  0.00  0.00    +0.043 C 
ATOM     17  C   UNL     1     -39.752  17.290  -2.719  0.00  0.00    +0.043 C 
ATOM     18  C   UNL     1     -38.641  16.588  -2.476  0.00  0.00    +0.043 C 
ENDROOT
TORSDOF 0
ENDMDL
MODEL 5
REMARK VINA RESULT:      -4.2      3.320      7.507
REMARK  Name = 5248269
REMARK  0 active torsions:
REMARK  status: ('A' for Active; 'I' for Inactive)
REMARK                            x       y       z     vdW  Elec       q    Type
REMARK                         _______ _______ _______ _____ _____    ______ ____
ROOT
ATOM      1  S   UNL     1     -37.916  20.732   0.842  0.00  0.00    -0.072 S 
ATOM      2  S   UNL     1     -36.315  18.358  -0.191  0.00  0.00    -0.072 S 
ATOM      3  S   UNL     1     -35.503  21.730   2.287  0.00  0.00    -0.072 S 
ATOM      4  S   UNL     1     -33.901  19.356   1.254  0.00  0.00    -0.072 S 
ATOM      5  S   UNL     1     -37.157  24.186   3.350  0.00  0.00    -0.078 S 
ATOM      6  S   UNL     1     -39.568  23.187   1.907  0.00  0.00    -0.078 S 
ATOM      7  S   UNL     1     -32.249  16.902   0.185  0.00  0.00    -0.078 S 
ATOM      8  S   UNL     1     -34.660  15.905  -1.258  0.00  0.00    -0.078 S 
ATOM      9  C   UNL     1     -36.450  19.820   0.724  0.00  0.00    +0.072 C 
ATOM     10  C   UNL     1     -35.367  20.267   1.373  0.00  0.00    +0.072 C 
ATOM     11  C   UNL     1     -37.184  21.936   1.870  0.00  0.00    +0.072 C 
ATOM     12  C   UNL     1     -34.634  18.152   0.225  0.00  0.00    +0.072 C 
ATOM     13  C   UNL     1     -37.887  22.981   2.322  0.00  0.00    +0.071 C 
ATOM     14  C   UNL     1     -33.930  17.108  -0.230  0.00  0.00    +0.071 C 
ATOM     15  C   UNL     1     -38.623  25.098   3.468  0.00  0.00    +0.043 C 
ATOM     16  C   UNL     1     -39.704  24.651   2.820  0.00  0.00    +0.043 C 
ATOM     17  C   UNL     1     -32.113  15.440  -0.731  0.00  0.00    +0.043 C 
ATOM     18  C   UNL     1     -33.194  14.994  -1.379  0.00  0.00    +0.043 C 
ENDROOT
TORSDOF 0
ENDMDL
MODEL 6
REMARK VINA RESULT:      -4.2      3.316      7.645
REMARK  Name = 5248269
REMARK  0 active torsions:
REMARK  status: ('A' for Active; 'I' for Inactive)
REMARK                            x       y       z     vdW  Elec       q    Type
REMARK                         _______ _______ _______ _____ _____    ______ ____
ROOT
ATOM      1  S   UNL     1     -35.573  21.781   2.285  0.00  0.00    -0.072 S 
ATOM      2  S   UNL     1     -33.948  19.412   1.278  0.00  0.00    -0.072 S 
ATOM      3  S   UNL     1     -37.950  20.792   0.776  0.00  0.00    -0.072 S 
ATOM      4  S   UNL     1     -36.326  18.423  -0.231  0.00  0.00    -0.072 S 
ATOM      5  S   UNL     1     -39.630  23.238   1.822  0.00  0.00    -0.078 S 
ATOM      6  S   UNL     1     -37.253  24.226   3.328  0.00  0.00    -0.078 S 
ATOM      7  S   UNL     1     -34.645  15.975  -1.271  0.00  0.00    -0.078 S 
ATOM      8  S   UNL     1     -32.270  16.964   0.237  0.00  0.00    -0.078 S 
ATOM      9  C   UNL     1     -35.416  20.324   1.365  0.00  0.00    +0.072 C 
ATOM     10  C   UNL     1     -36.482  19.880   0.688  0.00  0.00    +0.072 C 
ATOM     11  C   UNL     1     -37.244  21.988   1.831  0.00  0.00    +0.072 C 
ATOM     12  C   UNL     1     -34.654  18.215   0.224  0.00  0.00    +0.072 C 
ATOM     13  C   UNL     1     -37.959  23.029   2.276  0.00  0.00    +0.071 C 
ATOM     14  C   UNL     1     -33.940  17.173  -0.218  0.00  0.00    +0.071 C 
ATOM     15  C   UNL     1     -39.787  24.694   2.742  0.00  0.00    +0.043 C 
ATOM     16  C   UNL     1     -38.722  25.138   3.418  0.00  0.00    +0.043 C 
ATOM     17  C   UNL     1     -33.177  15.063  -1.358  0.00  0.00    +0.043 C 
ATOM     18  C   UNL     1     -32.112  15.505  -0.681  0.00  0.00    +0.043 C 
ENDROOT
TORSDOF 0
ENDMDL
MODEL 7
REMARK VINA RESULT:      -4.2      3.269      4.451
REMARK  Name = 5248269
REMARK  0 active torsions:
REMARK  status: ('A' for Active; 'I' for Inactive)
REMARK                            x       y       z     vdW  Elec       q    Type
REMARK                         _______ _______ _______ _____ _____    ______ ____
ROOT
ATOM      1  S   UNL     1     -34.051  19.552   1.346  0.00  0.00    -0.072 S 
ATOM      2  S   UNL     1     -35.691  21.922   2.326  0.00  0.00    -0.072 S 
ATOM      3  S   UNL     1     -36.435  18.507  -0.114  0.00  0.00    -0.072 S 
ATOM      4  S   UNL     1     -38.075  20.877   0.866  0.00  0.00    -0.072 S 
ATOM      5  S   UNL     1     -34.738  16.060  -1.130  0.00  0.00    -0.078 S 
ATOM      6  S   UNL     1     -32.357  17.105   0.330  0.00  0.00    -0.078 S 
ATOM      7  S   UNL     1     -39.768  23.327   1.879  0.00  0.00    -0.078 S 
ATOM      8  S   UNL     1     -37.385  24.371   3.338  0.00  0.00    -0.078 S 
ATOM      9  C   UNL     1     -35.529  20.448   1.434  0.00  0.00    +0.072 C 
ATOM     10  C   UNL     1     -36.598  19.979   0.779  0.00  0.00    +0.072 C 
ATOM     11  C   UNL     1     -34.757  18.327   0.325  0.00  0.00    +0.072 C 
ATOM     12  C   UNL     1     -37.369  22.103   1.887  0.00  0.00    +0.072 C 
ATOM     13  C   UNL     1     -34.035  17.285  -0.108  0.00  0.00    +0.071 C 
ATOM     14  C   UNL     1     -38.090  23.146   2.317  0.00  0.00    +0.071 C 
ATOM     15  C   UNL     1     -33.261  15.163  -1.217  0.00  0.00    +0.043 C 
ATOM     16  C   UNL     1     -32.193  15.632  -0.563  0.00  0.00    +0.043 C 
ATOM     17  C   UNL     1     -39.930  24.801   2.771  0.00  0.00    +0.043 C 
ATOM     18  C   UNL     1     -38.862  25.270   3.424  0.00  0.00    +0.043 C 
ENDROOT
TORSDOF 0
ENDMDL
MODEL 8
REMARK VINA RESULT:      -4.2      3.251      4.122
REMARK  Name = 5248269
REMARK  0 active torsions:
REMARK  status: ('A' for Active; 'I' for Inactive)
REMARK                            x       y       z     vdW  Elec       q    Type
REMARK                         _______ _______ _______ _____ _____    ______ ____
ROOT
ATOM      1  S   UNL     1     -36.447  18.531  -0.063  0.00  0.00    -0.072 S 
ATOM      2  S   UNL     1     -38.064  20.916   0.917  0.00  0.00    -0.072 S 
ATOM      3  S   UNL     1     -34.037  19.587   1.344  0.00  0.00    -0.072 S 
ATOM      4  S   UNL     1     -35.653  21.972   2.325  0.00  0.00    -0.072 S 
ATOM      5  S   UNL     1     -32.368  17.118   0.335  0.00  0.00    -0.078 S 
ATOM      6  S   UNL     1     -34.777  16.065  -1.072  0.00  0.00    -0.078 S 
ATOM      7  S   UNL     1     -37.326  24.437   3.338  0.00  0.00    -0.078 S 
ATOM      8  S   UNL     1     -39.734  23.381   1.931  0.00  0.00    -0.078 S 
ATOM      9  C   UNL     1     -36.591  20.015   0.815  0.00  0.00    +0.072 C 
ATOM     10  C   UNL     1     -35.509  20.489   1.447  0.00  0.00    +0.072 C 
ATOM     11  C   UNL     1     -34.763  18.351   0.351  0.00  0.00    +0.072 C 
ATOM     12  C   UNL     1     -37.339  22.152   1.912  0.00  0.00    +0.072 C 
ATOM     13  C   UNL     1     -34.052  17.300  -0.078  0.00  0.00    +0.071 C 
ATOM     14  C   UNL     1     -38.050  23.201   2.344  0.00  0.00    +0.071 C 
ATOM     15  C   UNL     1     -32.224  15.634  -0.543  0.00  0.00    +0.043 C 
ATOM     16  C   UNL     1     -33.304  15.162  -1.174  0.00  0.00    +0.043 C 
ATOM     17  C   UNL     1     -38.800  25.337   3.441  0.00  0.00    +0.043 C 
ATOM     18  C   UNL     1     -39.880  24.864   2.811  0.00  0.00    +0.043 C 
ENDROOT
TORSDOF 0
ENDMDL
MODEL 9
REMARK VINA RESULT:      -4.1      5.986     11.735
REMARK  Name = 5248269
REMARK  0 active torsions:
REMARK  status: ('A' for Active; 'I' for Inactive)
REMARK                            x       y       z     vdW  Elec       q    Type
REMARK                         _______ _______ _______ _____ _____    ______ ____
ROOT
ATOM      1  S   UNL     1     -31.447  29.731   3.815  0.00  0.00    -0.072 S 
ATOM      2  S   UNL     1     -33.952  28.204   3.003  0.00  0.00    -0.072 S 
ATOM      3  S   UNL     1     -31.219  28.050   6.270  0.00  0.00    -0.072 S 
ATOM      4  S   UNL     1     -33.723  26.522   5.458  0.00  0.00    -0.072 S 
ATOM      5  S   UNL     1     -28.627  29.625   7.107  0.00  0.00    -0.078 S 
ATOM      6  S   UNL     1     -28.857  31.305   4.654  0.00  0.00    -0.078 S 
ATOM      7  S   UNL     1     -36.312  24.945   4.617  0.00  0.00    -0.078 S 
ATOM      8  S   UNL     1     -36.539  26.625   2.164  0.00  0.00    -0.078 S 
ATOM      9  C   UNL     1     -32.637  28.504   4.086  0.00  0.00    +0.072 C 
ATOM     10  C   UNL     1     -32.534  27.750   5.188  0.00  0.00    +0.072 C 
ATOM     11  C   UNL     1     -30.589  29.342   5.283  0.00  0.00    +0.072 C 
ATOM     12  C   UNL     1     -34.581  26.910   3.989  0.00  0.00    +0.072 C 
ATOM     13  C   UNL     1     -29.486  30.012   5.640  0.00  0.00    +0.071 C 
ATOM     14  C   UNL     1     -35.682  26.238   3.632  0.00  0.00    +0.071 C 
ATOM     15  C   UNL     1     -27.437  30.852   6.836  0.00  0.00    +0.043 C 
ATOM     16  C   UNL     1     -27.540  31.605   5.736  0.00  0.00    +0.043 C 
ATOM     17  C   UNL     1     -37.627  24.644   3.533  0.00  0.00    +0.043 C 
ATOM     18  C   UNL     1     -37.728  25.397   2.432  0.00  0.00    +0.043 C 
ENDROOT
TORSDOF 0
ENDMDL
