MODEL 1
REMARK VINA RESULT:      -6.2      0.000      0.000
REMARK  Name = 20593234
REMARK  6 active torsions:
REMARK  status: ('A' for Active; 'I' for Inactive)
REMARK    1  A    between atoms: N_2  and  C_5
REMARK    2  A    between atoms: C_3  and  C_17
REMARK    3  A    between atoms: C_5  and  C_10
REMARK    4  A    between atoms: C_17  and  N_19
REMARK    5  A    between atoms: C_17  and  C_24
REMARK    6  A    between atoms: C_20  and  O_22
REMARK                            x       y       z     vdW  Elec       q    Type
REMARK                         _______ _______ _______ _____ _____    ______ ____
ROOT
ATOM      1  O   UNL     1     -35.971  22.904   5.180  0.00  0.00    -0.273 OA
ATOM      2  N   UNL     1     -34.731  24.648   4.283  0.00  0.00    -0.298 N 
ATOM      3  C   UNL     1     -35.364  23.414   4.241  0.00  0.00    +0.241 C 
ATOM      4  H   UNL     1     -34.271  24.968   3.474  0.00  0.00    +0.150 HD
ENDROOT
BRANCH   2   5
ATOM      5  C   UNL     1     -34.714  25.485   5.461  0.00  0.00    +0.131 C 
ATOM      6  C   UNL     1     -36.098  26.056   5.749  0.00  0.00    +0.030 C 
BRANCH   5  10
ATOM      7  S   UNL     1     -33.230  27.080   3.731  0.00  0.00    -0.056 S 
ATOM      8  F   UNL     1     -29.583  30.764   3.963  0.00  0.00    -0.204 F 
ATOM      9  N   UNL     1     -33.037  27.140   6.303  0.00  0.00    -0.402 NA
ATOM     10  C   UNL     1     -33.661  26.560   5.304  0.00  0.00    +0.156 C 
ATOM     11  C   UNL     1     -32.101  28.188   4.418  0.00  0.00    +0.059 C 
ATOM     12  C   UNL     1     -32.140  28.075   5.812  0.00  0.00    +0.120 C 
ATOM     13  C   UNL     1     -31.243  29.092   3.771  0.00  0.00    +0.038 C 
ATOM     14  C   UNL     1     -31.288  28.899   6.581  0.00  0.00    +0.088 C 
ATOM     15  C   UNL     1     -30.411  29.895   4.555  0.00  0.00    +0.137 C 
ATOM     16  C   UNL     1     -30.432  29.800   5.943  0.00  0.00    +0.011 C 
ENDBRANCH   5  10
ENDBRANCH   2   5
BRANCH   3  17
ATOM     17  C   UNL     1     -35.189  22.722   2.891  0.00  0.00    +0.151 C 
BRANCH  17  19
ATOM     18  O   UNL     1     -34.724  19.963   2.051  0.00  0.00    -0.227 OA
ATOM     19  N   UNL     1     -36.144  21.645   2.815  0.00  0.00    -0.264 N 
ATOM     20  C   UNL     1     -35.825  20.369   2.404  0.00  0.00    +0.399 C 
ATOM     21  H   UNL     1     -37.076  21.831   3.072  0.00  0.00    +0.153 HD
BRANCH  20  22
ATOM     22  O   UNL     1     -36.922  19.566   2.433  0.00  0.00    -0.466 OA
ATOM     23  H   UNL     1     -37.540  19.643   3.133  0.00  0.00    +0.297 HD
ENDBRANCH  20  22
ENDBRANCH  17  19
BRANCH  17  24
ATOM     24  C   UNL     1     -35.297  23.710   1.710  0.00  0.00    +0.027 C 
ATOM     25  C   UNL     1     -36.745  23.838   1.230  0.00  0.00    +0.002 C 
ATOM     26  C   UNL     1     -34.389  23.340   0.531  0.00  0.00    +0.002 C 
ENDBRANCH  17  24
ENDBRANCH   3  17
TORSDOF 6
ENDMDL
MODEL 2
REMARK VINA RESULT:      -6.1      2.300      2.968
REMARK  Name = 20593234
REMARK  6 active torsions:
REMARK  status: ('A' for Active; 'I' for Inactive)
REMARK    1  A    between atoms: N_2  and  C_5
REMARK    2  A    between atoms: C_3  and  C_17
REMARK    3  A    between atoms: C_5  and  C_10
REMARK    4  A    between atoms: C_17  and  N_19
REMARK    5  A    between atoms: C_17  and  C_24
REMARK    6  A    between atoms: C_20  and  O_22
REMARK                            x       y       z     vdW  Elec       q    Type
REMARK                         _______ _______ _______ _____ _____    ______ ____
ROOT
ATOM      1  O   UNL     1     -36.102  22.536   2.140  0.00  0.00    -0.273 OA
ATOM      2  N   UNL     1     -36.470  23.807   4.046  0.00  0.00    -0.298 N 
ATOM      3  C   UNL     1     -36.817  23.276   2.812  0.00  0.00    +0.241 C 
ATOM      4  H   UNL     1     -37.117  24.390   4.505  0.00  0.00    +0.150 HD
ENDROOT
BRANCH   2   5
ATOM      5  C   UNL     1     -35.203  23.542   4.689  0.00  0.00    +0.131 C 
ATOM      6  C   UNL     1     -35.400  22.807   6.010  0.00  0.00    +0.030 C 
BRANCH   5  10
ATOM      7  S   UNL     1     -34.175  25.827   3.479  0.00  0.00    -0.056 S 
ATOM      8  F   UNL     1     -31.499  30.078   4.781  0.00  0.00    -0.204 F 
ATOM      9  N   UNL     1     -33.949  25.273   5.989  0.00  0.00    -0.402 NA
ATOM     10  C   UNL     1     -34.438  24.838   4.851  0.00  0.00    +0.156 C 
ATOM     11  C   UNL     1     -33.326  26.956   4.469  0.00  0.00    +0.059 C 
ATOM     12  C   UNL     1     -33.308  26.486   5.786  0.00  0.00    +0.120 C 
ATOM     13  C   UNL     1     -32.720  28.170   4.106  0.00  0.00    +0.038 C 
ATOM     14  C   UNL     1     -32.660  27.262   6.772  0.00  0.00    +0.088 C 
ATOM     15  C   UNL     1     -32.086  28.918   5.101  0.00  0.00    +0.137 C 
ATOM     16  C   UNL     1     -32.055  28.471   6.417  0.00  0.00    +0.011 C 
ENDBRANCH   5  10
ENDBRANCH   2   5
BRANCH   3  17
ATOM     17  C   UNL     1     -38.191  23.751   2.346  0.00  0.00    +0.151 C 
BRANCH  17  19
ATOM     18  O   UNL     1     -39.091  21.533   0.670  0.00  0.00    -0.227 OA
ATOM     19  N   UNL     1     -39.151  22.726   2.670  0.00  0.00    -0.264 N 
ATOM     20  C   UNL     1     -39.511  21.714   1.806  0.00  0.00    +0.399 C 
ATOM     21  H   UNL     1     -39.573  22.748   3.560  0.00  0.00    +0.153 HD
BRANCH  20  22
ATOM     22  O   UNL     1     -40.433  20.897   2.381  0.00  0.00    -0.466 OA
ATOM     23  H   UNL     1     -40.317  20.608   3.264  0.00  0.00    +0.297 HD
ENDBRANCH  20  22
ENDBRANCH  17  19
BRANCH  17  24
ATOM     24  C   UNL     1     -38.561  25.132   2.929  0.00  0.00    +0.027 C 
ATOM     25  C   UNL     1     -40.041  25.188   3.314  0.00  0.00    +0.002 C 
ATOM     26  C   UNL     1     -38.224  26.292   1.986  0.00  0.00    +0.002 C 
ENDBRANCH  17  24
ENDBRANCH   3  17
TORSDOF 6
ENDMDL
MODEL 3
REMARK VINA RESULT:      -6.0      4.643      7.674
REMARK  Name = 20593234
REMARK  6 active torsions:
REMARK  status: ('A' for Active; 'I' for Inactive)
REMARK    1  A    between atoms: N_2  and  C_5
REMARK    2  A    between atoms: C_3  and  C_17
REMARK    3  A    between atoms: C_5  and  C_10
REMARK    4  A    between atoms: C_17  and  N_19
REMARK    5  A    between atoms: C_17  and  C_24
REMARK    6  A    between atoms: C_20  and  O_22
REMARK                            x       y       z     vdW  Elec       q    Type
REMARK                         _______ _______ _______ _____ _____    ______ ____
ROOT
ATOM      1  O   UNL     1     -35.339  24.925   1.199  0.00  0.00    -0.273 OA
ATOM      2  N   UNL     1     -36.383  22.972   1.891  0.00  0.00    -0.298 N 
ATOM      3  C   UNL     1     -35.890  24.256   2.071  0.00  0.00    +0.241 C 
ATOM      4  H   UNL     1     -36.809  22.521   2.656  0.00  0.00    +0.150 HD
ENDROOT
BRANCH   2   5
ATOM      5  C   UNL     1     -36.301  22.265   0.634  0.00  0.00    +0.131 C 
ATOM      6  C   UNL     1     -37.566  21.455   0.374  0.00  0.00    +0.030 C 
BRANCH   5  10
ATOM      7  S   UNL     1     -33.660  21.996  -0.200  0.00  0.00    -0.056 S 
ATOM      8  F   UNL     1     -29.776  18.572   0.142  0.00  0.00    -0.204 F 
ATOM      9  N   UNL     1     -34.943  20.237   1.183  0.00  0.00    -0.402 NA
ATOM     10  C   UNL     1     -35.049  21.414   0.613  0.00  0.00    +0.156 C 
ATOM     11  C   UNL     1     -32.815  20.557   0.234  0.00  0.00    +0.059 C 
ATOM     12  C   UNL     1     -33.668  19.732   0.975  0.00  0.00    +0.120 C 
ATOM     13  C   UNL     1     -31.493  20.184  -0.059  0.00  0.00    +0.038 C 
ATOM     14  C   UNL     1     -33.177  18.491   1.437  0.00  0.00    +0.088 C 
ATOM     15  C   UNL     1     -31.032  18.952   0.410  0.00  0.00    +0.137 C 
ATOM     16  C   UNL     1     -31.862  18.115   1.148  0.00  0.00    +0.011 C 
ENDBRANCH   5  10
ENDBRANCH   2   5
BRANCH   3  17
ATOM     17  C   UNL     1     -36.068  24.747   3.506  0.00  0.00    +0.151 C 
BRANCH  17  19
ATOM     18  O   UNL     1     -38.452  26.295   2.829  0.00  0.00    -0.227 OA
ATOM     19  N   UNL     1     -37.432  24.493   3.898  0.00  0.00    -0.264 N 
ATOM     20  C   UNL     1     -38.495  25.287   3.525  0.00  0.00    +0.399 C 
ATOM     21  H   UNL     1     -37.615  23.708   4.463  0.00  0.00    +0.153 HD
BRANCH  20  22
ATOM     22  O   UNL     1     -39.658  24.807   4.039  0.00  0.00    -0.466 OA
ATOM     23  H   UNL     1     -39.649  24.048   4.589  0.00  0.00    +0.297 HD
ENDBRANCH  20  22
ENDBRANCH  17  19
BRANCH  17  24
ATOM     24  C   UNL     1     -35.036  24.122   4.469  0.00  0.00    +0.027 C 
ATOM     25  C   UNL     1     -35.728  23.299   5.559  0.00  0.00    +0.002 C 
ATOM     26  C   UNL     1     -34.109  25.160   5.111  0.00  0.00    +0.002 C 
ENDBRANCH  17  24
ENDBRANCH   3  17
TORSDOF 6
ENDMDL
MODEL 4
REMARK VINA RESULT:      -6.0      1.721      2.818
REMARK  Name = 20593234
REMARK  6 active torsions:
REMARK  status: ('A' for Active; 'I' for Inactive)
REMARK    1  A    between atoms: N_2  and  C_5
REMARK    2  A    between atoms: C_3  and  C_17
REMARK    3  A    between atoms: C_5  and  C_10
REMARK    4  A    between atoms: C_17  and  N_19
REMARK    5  A    between atoms: C_17  and  C_24
REMARK    6  A    between atoms: C_20  and  O_22
REMARK                            x       y       z     vdW  Elec       q    Type
REMARK                         _______ _______ _______ _____ _____    ______ ____
ROOT
ATOM      1  O   UNL     1     -36.652  24.497   2.358  0.00  0.00    -0.273 OA
ATOM      2  N   UNL     1     -34.404  24.447   2.930  0.00  0.00    -0.298 N 
ATOM      3  C   UNL     1     -35.720  24.011   2.994  0.00  0.00    +0.241 C 
ATOM      4  H   UNL     1     -33.730  23.987   3.482  0.00  0.00    +0.150 HD
ENDROOT
BRANCH   2   5
ATOM      5  C   UNL     1     -33.978  25.544   2.093  0.00  0.00    +0.131 C 
ATOM      6  C   UNL     1     -32.966  25.080   1.051  0.00  0.00    +0.030 C 
BRANCH   5  10
ATOM      7  S   UNL     1     -33.302  28.236   2.292  0.00  0.00    -0.056 S 
ATOM      8  F   UNL     1     -31.438  31.552   5.821  0.00  0.00    -0.204 F 
ATOM      9  N   UNL     1     -33.087  26.528   4.214  0.00  0.00    -0.402 NA
ATOM     10  C   UNL     1     -33.449  26.667   2.960  0.00  0.00    +0.156 C 
ATOM     11  C   UNL     1     -32.697  28.810   3.802  0.00  0.00    +0.059 C 
ATOM     12  C   UNL     1     -32.653  27.748   4.711  0.00  0.00    +0.120 C 
ATOM     13  C   UNL     1     -32.291  30.107   4.156  0.00  0.00    +0.038 C 
ATOM     14  C   UNL     1     -32.185  27.996   6.020  0.00  0.00    +0.088 C 
ATOM     15  C   UNL     1     -31.833  30.325   5.458  0.00  0.00    +0.137 C 
ATOM     16  C   UNL     1     -31.780  29.285   6.379  0.00  0.00    +0.011 C 
ENDBRANCH   5  10
ENDBRANCH   2   5
BRANCH   3  17
ATOM     17  C   UNL     1     -35.901  22.867   3.989  0.00  0.00    +0.151 C 
BRANCH  17  19
ATOM     18  O   UNL     1     -37.345  21.098   2.166  0.00  0.00    -0.227 OA
ATOM     19  N   UNL     1     -35.428  21.656   3.367  0.00  0.00    -0.264 N 
ATOM     20  C   UNL     1     -36.190  20.885   2.516  0.00  0.00    +0.399 C 
ATOM     21  H   UNL     1     -34.508  21.362   3.561  0.00  0.00    +0.153 HD
BRANCH  20  22
ATOM     22  O   UNL     1     -35.485  19.807   2.083  0.00  0.00    -0.466 OA
ATOM     23  H   UNL     1     -35.928  19.091   1.672  0.00  0.00    +0.297 HD
ENDBRANCH  20  22
ENDBRANCH  17  19
BRANCH  17  24
ATOM     24  C   UNL     1     -35.219  23.158   5.343  0.00  0.00    +0.027 C 
ATOM     25  C   UNL     1     -35.562  22.080   6.375  0.00  0.00    +0.002 C 
ATOM     26  C   UNL     1     -35.562  24.542   5.904  0.00  0.00    +0.002 C 
ENDBRANCH  17  24
ENDBRANCH   3  17
TORSDOF 6
ENDMDL
MODEL 5
REMARK VINA RESULT:      -5.9      4.370      7.795
REMARK  Name = 20593234
REMARK  6 active torsions:
REMARK  status: ('A' for Active; 'I' for Inactive)
REMARK    1  A    between atoms: N_2  and  C_5
REMARK    2  A    between atoms: C_3  and  C_17
REMARK    3  A    between atoms: C_5  and  C_10
REMARK    4  A    between atoms: C_17  and  N_19
REMARK    5  A    between atoms: C_17  and  C_24
REMARK    6  A    between atoms: C_20  and  O_22
REMARK                            x       y       z     vdW  Elec       q    Type
REMARK                         _______ _______ _______ _____ _____    ______ ____
ROOT
ATOM      1  O   UNL     1     -31.842  28.521   2.122  0.00  0.00    -0.273 OA
ATOM      2  N   UNL     1     -33.793  28.446   3.375  0.00  0.00    -0.298 N 
ATOM      3  C   UNL     1     -32.487  28.839   3.118  0.00  0.00    +0.241 C 
ATOM      4  H   UNL     1     -34.222  28.756   4.204  0.00  0.00    +0.150 HD
ENDROOT
BRANCH   2   5
ATOM      5  C   UNL     1     -34.551  27.601   2.481  0.00  0.00    +0.131 C 
ATOM      6  C   UNL     1     -35.863  28.266   2.077  0.00  0.00    +0.030 C 
BRANCH   5  10
ATOM      7  S   UNL     1     -34.686  26.106   4.823  0.00  0.00    -0.056 S 
ATOM      8  F   UNL     1     -35.484  21.193   6.290  0.00  0.00    -0.204 F 
ATOM      9  N   UNL     1     -34.994  25.139   2.451  0.00  0.00    -0.402 NA
ATOM     10  C   UNL     1     -34.758  26.244   3.119  0.00  0.00    +0.156 C 
ATOM     11  C   UNL     1     -34.997  24.415   4.688  0.00  0.00    +0.059 C 
ATOM     12  C   UNL     1     -35.134  24.082   3.337  0.00  0.00    +0.120 C 
ATOM     13  C   UNL     1     -35.112  23.454   5.705  0.00  0.00    +0.038 C 
ATOM     14  C   UNL     1     -35.395  22.736   2.995  0.00  0.00    +0.088 C 
ATOM     15  C   UNL     1     -35.371  22.130   5.340  0.00  0.00    +0.137 C 
ATOM     16  C   UNL     1     -35.510  21.774   4.003  0.00  0.00    +0.011 C 
ENDBRANCH   5  10
ENDBRANCH   2   5
BRANCH   3  17
ATOM     17  C   UNL     1     -31.909  29.690   4.246  0.00  0.00    +0.151 C 
BRANCH  17  19
ATOM     18  O   UNL     1     -32.478  28.308   6.756  0.00  0.00    -0.227 OA
ATOM     19  N   UNL     1     -31.023  28.860   5.022  0.00  0.00    -0.264 N 
ATOM     20  C   UNL     1     -31.387  28.247   6.201  0.00  0.00    +0.399 C 
ATOM     21  H   UNL     1     -30.106  28.722   4.691  0.00  0.00    +0.153 HD
BRANCH  20  22
ATOM     22  O   UNL     1     -30.351  27.529   6.710  0.00  0.00    -0.466 OA
ATOM     23  H   UNL     1     -29.470  27.748   6.477  0.00  0.00    +0.297 HD
ENDBRANCH  20  22
ENDBRANCH  17  19
BRANCH  17  24
ATOM     24  C   UNL     1     -31.230  30.973   3.720  0.00  0.00    +0.027 C 
ATOM     25  C   UNL     1     -30.348  31.610   4.797  0.00  0.00    +0.002 C 
ATOM     26  C   UNL     1     -32.228  32.007   3.187  0.00  0.00    +0.002 C 
ENDBRANCH  17  24
ENDBRANCH   3  17
TORSDOF 6
ENDMDL
MODEL 6
REMARK VINA RESULT:      -5.9      4.941      7.225
REMARK  Name = 20593234
REMARK  6 active torsions:
REMARK  status: ('A' for Active; 'I' for Inactive)
REMARK    1  A    between atoms: N_2  and  C_5
REMARK    2  A    between atoms: C_3  and  C_17
REMARK    3  A    between atoms: C_5  and  C_10
REMARK    4  A    between atoms: C_17  and  N_19
REMARK    5  A    between atoms: C_17  and  C_24
REMARK    6  A    between atoms: C_20  and  O_22
REMARK                            x       y       z     vdW  Elec       q    Type
REMARK                         _______ _______ _______ _____ _____    ______ ____
ROOT
ATOM      1  O   UNL     1     -35.881  18.729  -1.556  0.00  0.00    -0.273 OA
ATOM      2  N   UNL     1     -36.083  19.007   0.739  0.00  0.00    -0.298 N 
ATOM      3  C   UNL     1     -36.496  18.555  -0.506  0.00  0.00    +0.241 C 
ATOM      4  H   UNL     1     -36.649  18.813   1.521  0.00  0.00    +0.150 HD
ENDROOT
BRANCH   2   5
ATOM      5  C   UNL     1     -34.860  19.748   0.942  0.00  0.00    +0.131 C 
ATOM      6  C   UNL     1     -33.684  18.811   1.193  0.00  0.00    +0.030 C 
BRANCH   5  10
ATOM      7  S   UNL     1     -35.319  22.396   1.663  0.00  0.00    -0.056 S 
ATOM      8  F   UNL     1     -35.902  25.235   5.967  0.00  0.00    -0.204 F 
ATOM      9  N   UNL     1     -35.038  20.452   3.336  0.00  0.00    -0.402 NA
ATOM     10  C   UNL     1     -35.055  20.752   2.058  0.00  0.00    +0.156 C 
ATOM     11  C   UNL     1     -35.425  22.771   3.343  0.00  0.00    +0.059 C 
ATOM     12  C   UNL     1     -35.248  21.600   4.085  0.00  0.00    +0.120 C 
ATOM     13  C   UNL     1     -35.648  24.014   3.959  0.00  0.00    +0.038 C 
ATOM     14  C   UNL     1     -35.298  21.678   5.495  0.00  0.00    +0.088 C 
ATOM     15  C   UNL     1     -35.692  24.063   5.354  0.00  0.00    +0.137 C 
ATOM     16  C   UNL     1     -35.520  22.911   6.114  0.00  0.00    +0.011 C 
ENDBRANCH   5  10
ENDBRANCH   2   5
BRANCH   3  17
ATOM     17  C   UNL     1     -37.843  17.840  -0.442  0.00  0.00    +0.151 C 
BRANCH  17  19
ATOM     18  O   UNL     1     -39.142  20.342   0.325  0.00  0.00    -0.227 OA
ATOM     19  N   UNL     1     -38.795  18.614  -1.198  0.00  0.00    -0.264 N 
ATOM     20  C   UNL     1     -39.355  19.789  -0.747  0.00  0.00    +0.399 C 
ATOM     21  H   UNL     1     -39.061  18.285  -2.088  0.00  0.00    +0.153 HD
BRANCH  20  22
ATOM     22  O   UNL     1     -40.215  20.297  -1.670  0.00  0.00    -0.466 OA
ATOM     23  H   UNL     1     -39.945  21.003  -2.224  0.00  0.00    +0.297 HD
ENDBRANCH  20  22
ENDBRANCH  17  19
BRANCH  17  24
ATOM     24  C   UNL     1     -37.748  16.372  -0.911  0.00  0.00    +0.027 C 
ATOM     25  C   UNL     1     -39.061  15.626  -0.655  0.00  0.00    +0.002 C 
ATOM     26  C   UNL     1     -36.584  15.610  -0.269  0.00  0.00    +0.002 C 
ENDBRANCH  17  24
ENDBRANCH   3  17
TORSDOF 6
ENDMDL
MODEL 7
REMARK VINA RESULT:      -5.9      4.166      6.067
REMARK  Name = 20593234
REMARK  6 active torsions:
REMARK  status: ('A' for Active; 'I' for Inactive)
REMARK    1  A    between atoms: N_2  and  C_5
REMARK    2  A    between atoms: C_3  and  C_17
REMARK    3  A    between atoms: C_5  and  C_10
REMARK    4  A    between atoms: C_17  and  N_19
REMARK    5  A    between atoms: C_17  and  C_24
REMARK    6  A    between atoms: C_20  and  O_22
REMARK                            x       y       z     vdW  Elec       q    Type
REMARK                         _______ _______ _______ _____ _____    ______ ____
ROOT
ATOM      1  O   UNL     1     -40.960  20.959   0.804  0.00  0.00    -0.273 OA
ATOM      2  N   UNL     1     -39.190  22.459   0.840  0.00  0.00    -0.298 N 
ATOM      3  C   UNL     1     -39.878  21.348   0.372  0.00  0.00    +0.241 C 
ATOM      4  H   UNL     1     -38.328  22.687   0.424  0.00  0.00    +0.150 HD
ENDROOT
BRANCH   2   5
ATOM      5  C   UNL     1     -39.681  23.295   1.911  0.00  0.00    +0.131 C 
ATOM      6  C   UNL     1     -40.482  24.473   1.366  0.00  0.00    +0.030 C 
BRANCH   5  10
ATOM      7  S   UNL     1     -38.425  25.365   3.281  0.00  0.00    -0.056 S 
ATOM      8  F   UNL     1     -34.228  26.123   6.236  0.00  0.00    -0.204 F 
ATOM      9  N   UNL     1     -37.569  22.933   3.202  0.00  0.00    -0.402 NA
ATOM     10  C   UNL     1     -38.524  23.731   2.785  0.00  0.00    +0.156 C 
ATOM     11  C   UNL     1     -36.973  25.005   4.139  0.00  0.00    +0.059 C 
ATOM     12  C   UNL     1     -36.672  23.649   3.980  0.00  0.00    +0.120 C 
ATOM     13  C   UNL     1     -36.160  25.862   4.899  0.00  0.00    +0.038 C 
ATOM     14  C   UNL     1     -35.514  23.135   4.604  0.00  0.00    +0.088 C 
ATOM     15  C   UNL     1     -35.021  25.328   5.507  0.00  0.00    +0.137 C 
ATOM     16  C   UNL     1     -34.701  23.982   5.362  0.00  0.00    +0.011 C 
ENDBRANCH   5  10
ENDBRANCH   2   5
BRANCH   3  17
ATOM     17  C   UNL     1     -39.114  20.620  -0.732  0.00  0.00    +0.151 C 
BRANCH  17  19
ATOM     18  O   UNL     1     -36.493  20.695   0.556  0.00  0.00    -0.227 OA
ATOM     19  N   UNL     1     -38.390  19.530  -0.128  0.00  0.00    -0.264 N 
ATOM     20  C   UNL     1     -37.151  19.667   0.459  0.00  0.00    +0.399 C 
ATOM     21  H   UNL     1     -38.805  18.636  -0.135  0.00  0.00    +0.153 HD
BRANCH  20  22
ATOM     22  O   UNL     1     -36.714  18.474   0.943  0.00  0.00    -0.466 OA
ATOM     23  H   UNL     1     -35.883  18.134   0.673  0.00  0.00    +0.297 HD
ENDBRANCH  20  22
ENDBRANCH  17  19
BRANCH  17  24
ATOM     24  C   UNL     1     -40.039  20.169  -1.882  0.00  0.00    +0.027 C 
ATOM     25  C   UNL     1     -40.247  18.652  -1.859  0.00  0.00    +0.002 C 
ATOM     26  C   UNL     1     -39.536  20.603  -3.264  0.00  0.00    +0.002 C 
ENDBRANCH  17  24
ENDBRANCH   3  17
TORSDOF 6
ENDMDL
MODEL 8
REMARK VINA RESULT:      -5.8      2.930      4.659
REMARK  Name = 20593234
REMARK  6 active torsions:
REMARK  status: ('A' for Active; 'I' for Inactive)
REMARK    1  A    between atoms: N_2  and  C_5
REMARK    2  A    between atoms: C_3  and  C_17
REMARK    3  A    between atoms: C_5  and  C_10
REMARK    4  A    between atoms: C_17  and  N_19
REMARK    5  A    between atoms: C_17  and  C_24
REMARK    6  A    between atoms: C_20  and  O_22
REMARK                            x       y       z     vdW  Elec       q    Type
REMARK                         _______ _______ _______ _____ _____    ______ ____
ROOT
ATOM      1  O   UNL     1     -35.448  20.210   3.026  0.00  0.00    -0.273 OA
ATOM      2  N   UNL     1     -36.686  21.434   1.493  0.00  0.00    -0.298 N 
ATOM      3  C   UNL     1     -35.739  20.492   1.866  0.00  0.00    +0.241 C 
ATOM      4  H   UNL     1     -36.846  21.585   0.533  0.00  0.00    +0.150 HD
ENDROOT
BRANCH   2   5
ATOM      5  C   UNL     1     -37.450  22.204   2.448  0.00  0.00    +0.131 C 
ATOM      6  C   UNL     1     -38.706  22.784   1.807  0.00  0.00    +0.030 C 
BRANCH   5  10
ATOM      7  S   UNL     1     -35.661  24.295   2.039  0.00  0.00    -0.056 S 
ATOM      8  F   UNL     1     -32.880  27.670   4.833  0.00  0.00    -0.204 F 
ATOM      9  N   UNL     1     -36.436  23.465   4.356  0.00  0.00    -0.402 NA
ATOM     10  C   UNL     1     -36.566  23.266   3.065  0.00  0.00    +0.156 C 
ATOM     11  C   UNL     1     -35.022  25.097   3.425  0.00  0.00    +0.059 C 
ATOM     12  C   UNL     1     -35.554  24.512   4.578  0.00  0.00    +0.120 C 
ATOM     13  C   UNL     1     -34.115  26.168   3.488  0.00  0.00    +0.038 C 
ATOM     14  C   UNL     1     -35.163  25.019   5.837  0.00  0.00    +0.088 C 
ATOM     15  C   UNL     1     -33.745  26.650   4.745  0.00  0.00    +0.137 C 
ATOM     16  C   UNL     1     -34.260  26.084   5.906  0.00  0.00    +0.011 C 
ENDBRANCH   5  10
ENDBRANCH   2   5
BRANCH   3  17
ATOM     17  C   UNL     1     -35.050  19.858   0.660  0.00  0.00    +0.151 C 
BRANCH  17  19
ATOM     18  O   UNL     1     -32.130  19.753   0.665  0.00  0.00    -0.227 OA
ATOM     19  N   UNL     1     -34.200  18.796   1.138  0.00  0.00    -0.264 N 
ATOM     20  C   UNL     1     -32.824  18.841   1.098  0.00  0.00    +0.399 C 
ATOM     21  H   UNL     1     -34.628  17.993   1.516  0.00  0.00    +0.153 HD
BRANCH  20  22
ATOM     22  O   UNL     1     -32.290  17.703   1.616  0.00  0.00    -0.466 OA
ATOM     23  H   UNL     1     -31.580  17.754   2.225  0.00  0.00    +0.297 HD
ENDBRANCH  20  22
ENDBRANCH  17  19
BRANCH  17  24
ATOM     24  C   UNL     1     -36.059  19.390  -0.410  0.00  0.00    +0.027 C 
ATOM     25  C   UNL     1     -36.818  18.145   0.057  0.00  0.00    +0.002 C 
ATOM     26  C   UNL     1     -35.410  19.122  -1.773  0.00  0.00    +0.002 C 
ENDBRANCH  17  24
ENDBRANCH   3  17
TORSDOF 6
ENDMDL
MODEL 9
REMARK VINA RESULT:      -5.7      5.559      8.038
REMARK  Name = 20593234
REMARK  6 active torsions:
REMARK  status: ('A' for Active; 'I' for Inactive)
REMARK    1  A    between atoms: N_2  and  C_5
REMARK    2  A    between atoms: C_3  and  C_17
REMARK    3  A    between atoms: C_5  and  C_10
REMARK    4  A    between atoms: C_17  and  N_19
REMARK    5  A    between atoms: C_17  and  C_24
REMARK    6  A    between atoms: C_20  and  O_22
REMARK                            x       y       z     vdW  Elec       q    Type
REMARK                         _______ _______ _______ _____ _____    ______ ____
ROOT
ATOM      1  O   UNL     1     -35.480  23.907   2.002  0.00  0.00    -0.273 OA
ATOM      2  N   UNL     1     -37.580  24.316   2.901  0.00  0.00    -0.298 N 
ATOM      3  C   UNL     1     -36.355  23.667   2.831  0.00  0.00    +0.241 C 
ATOM      4  H   UNL     1     -38.213  24.048   3.606  0.00  0.00    +0.150 HD
ENDROOT
BRANCH   2   5
ATOM      5  C   UNL     1     -37.969  25.365   1.988  0.00  0.00    +0.131 C 
ATOM      6  C   UNL     1     -37.135  26.623   2.208  0.00  0.00    +0.030 C 
BRANCH   5  10
ATOM      7  S   UNL     1     -40.523  24.897   0.990  0.00  0.00    -0.056 S 
ATOM      8  F   UNL     1     -45.434  26.209   2.034  0.00  0.00    -0.204 F 
ATOM      9  N   UNL     1     -40.002  26.373   3.041  0.00  0.00    -0.402 NA
ATOM     10  C   UNL     1     -39.456  25.621   2.114  0.00  0.00    +0.156 C 
ATOM     11  C   UNL     1     -41.856  25.641   1.793  0.00  0.00    +0.059 C 
ATOM     12  C   UNL     1     -41.378  26.394   2.870  0.00  0.00    +0.120 C 
ATOM     13  C   UNL     1     -43.225  25.563   1.491  0.00  0.00    +0.038 C 
ATOM     14  C   UNL     1     -42.307  27.094   3.672  0.00  0.00    +0.088 C 
ATOM     15  C   UNL     1     -44.123  26.264   2.300  0.00  0.00    +0.137 C 
ATOM     16  C   UNL     1     -43.672  27.020   3.376  0.00  0.00    +0.011 C 
ENDBRANCH   5  10
ENDBRANCH   2   5
BRANCH   3  17
ATOM     17  C   UNL     1     -36.221  22.572   3.887  0.00  0.00    +0.151 C 
BRANCH  17  19
ATOM     18  O   UNL     1     -38.020  21.244   2.007  0.00  0.00    -0.227 OA
ATOM     19  N   UNL     1     -36.024  21.318   3.205  0.00  0.00    -0.264 N 
ATOM     20  C   UNL     1     -36.938  20.771   2.331  0.00  0.00    +0.399 C 
ATOM     21  H   UNL     1     -35.189  20.824   3.373  0.00  0.00    +0.153 HD
BRANCH  20  22
ATOM     22  O   UNL     1     -36.485  19.586   1.841  0.00  0.00    -0.466 OA
ATOM     23  H   UNL     1     -36.756  18.781   2.236  0.00  0.00    +0.297 HD
ENDBRANCH  20  22
ENDBRANCH  17  19
BRANCH  17  24
ATOM     24  C   UNL     1     -35.111  22.884   4.914  0.00  0.00    +0.027 C 
ATOM     25  C   UNL     1     -35.117  21.865   6.056  0.00  0.00    +0.002 C 
ATOM     26  C   UNL     1     -35.200  24.304   5.484  0.00  0.00    +0.002 C 
ENDBRANCH  17  24
ENDBRANCH   3  17
TORSDOF 6
ENDMDL
