MODEL 1
REMARK VINA RESULT:      -7.3      0.000      0.000
REMARK  Name = 5486998
REMARK  6 active torsions:
REMARK  status: ('A' for Active; 'I' for Inactive)
REMARK    1  A    between atoms: C_5  and  O_26
REMARK    2  A    between atoms: C_12  and  O_24
REMARK    3  A    between atoms: O_26  and  C_32
REMARK    4  A    between atoms: C_28  and  O_35
REMARK    5  A    between atoms: C_29  and  O_37
REMARK    6  A    between atoms: C_30  and  O_39
REMARK                            x       y       z     vdW  Elec       q    Type
REMARK                         _______ _______ _______ _____ _____    ______ ____
ROOT
ATOM      1  O   UNL     1     -36.755  26.235   2.375  0.00  0.00    -0.421 OA
ATOM      2  O   UNL     1     -39.258  22.825  -0.349  0.00  0.00    -0.421 OA
ATOM      3  O   UNL     1     -38.752  20.828   0.618  0.00  0.00    -0.244 OA
ATOM      4  O   UNL     1     -37.256  28.234   1.410  0.00  0.00    -0.244 OA
ATOM      5  C   UNL     1     -35.352  24.793   4.426  0.00  0.00    +0.144 C 
ATOM      6  C   UNL     1     -36.162  24.141   3.474  0.00  0.00    +0.072 A 
ATOM      7  C   UNL     1     -37.656  24.155   1.527  0.00  0.00    +0.047 A 
ATOM      8  C   UNL     1     -36.861  24.820   2.457  0.00  0.00    +0.152 A 
ATOM      9  C   UNL     1     -36.284  22.731   3.533  0.00  0.00    +0.040 A 
ATOM     10  C   UNL     1     -38.346  24.902   0.514  0.00  0.00    +0.044 A 
ATOM     11  C   UNL     1     -37.769  22.769   1.595  0.00  0.00    +0.113 A 
ATOM     12  C   UNL     1     -37.088  22.060   2.592  0.00  0.00    +0.140 A 
ATOM     13  C   UNL     1     -34.679  24.071   5.413  0.00  0.00    +0.037 C 
ATOM     14  C   UNL     1     -38.238  26.289   0.436  0.00  0.00    +0.075 A 
ATOM     15  C   UNL     1     -39.138  24.231  -0.413  0.00  0.00    +0.149 A 
ATOM     16  C   UNL     1     -35.599  22.023   4.533  0.00  0.00    +0.003 C 
ATOM     17  C   UNL     1     -34.803  22.687   5.466  0.00  0.00    +0.003 C 
ATOM     18  C   UNL     1     -38.923  26.990  -0.564  0.00  0.00    -0.015 C 
ATOM     19  C   UNL     1     -38.611  22.043   0.611  0.00  0.00    +0.349 A 
ATOM     20  C   UNL     1     -37.398  27.019   1.414  0.00  0.00    +0.345 A 
ATOM     21  C   UNL     1     -39.826  24.908  -1.413  0.00  0.00    +0.037 C 
ATOM     22  C   UNL     1     -39.715  26.296  -1.485  0.00  0.00    -0.001 C 
ATOM     23  C   UNL     1     -38.864  28.475  -0.719  0.00  0.00    +0.031 C 
ENDROOT
BRANCH  12  24
ATOM     24  O   UNL     1     -37.193  20.697   2.667  0.00  0.00    -0.505 OA
ATOM     25  H   UNL     1     -37.989  20.274   2.412  0.00  0.00    +0.292 HD
ENDBRANCH  12  24
BRANCH   5  26
ATOM     26  O   UNL     1     -35.181  26.149   4.437  0.00  0.00    -0.450 OA
BRANCH  26  32
ATOM     27  O   UNL     1     -33.520  27.377   5.519  0.00  0.00    -0.319 OA
ATOM     28  C   UNL     1     -32.376  28.215   2.991  0.00  0.00    +0.146 C 
ATOM     29  C   UNL     1     -32.043  28.903   4.331  0.00  0.00    +0.164 C 
ATOM     30  C   UNL     1     -33.748  27.516   3.096  0.00  0.00    +0.208 C 
ATOM     31  C   UNL     1     -32.196  27.922   5.503  0.00  0.00    +0.148 C 
ATOM     32  C   UNL     1     -33.841  26.632   4.344  0.00  0.00    +0.318 C 
ATOM     33  C   UNL     1     -31.254  27.252   2.574  0.00  0.00    +0.035 C 
ATOM     34  C   UNL     1     -31.968  28.595   6.854  0.00  0.00    +0.035 C 
BRANCH  28  35
ATOM     35  O   UNL     1     -32.433  29.204   1.957  0.00  0.00    -0.382 OA
ATOM     36  H   UNL     1     -32.902  28.843   1.189  0.00  0.00    +0.210 HD
ENDBRANCH  28  35
BRANCH  29  37
ATOM     37  O   UNL     1     -32.944  29.995   4.543  0.00  0.00    -0.380 OA
ATOM     38  H   UNL     1     -33.024  30.168   5.494  0.00  0.00    +0.211 HD
ENDBRANCH  29  37
BRANCH  30  39
ATOM     39  O   UNL     1     -33.989  26.708   1.943  0.00  0.00    -0.377 OA
ATOM     40  H   UNL     1     -33.543  25.854   2.048  0.00  0.00    +0.211 HD
ENDBRANCH  30  39
ENDBRANCH  26  32
ENDBRANCH   5  26
TORSDOF 6
ENDMDL
MODEL 2
REMARK VINA RESULT:      -7.3      2.390      5.689
REMARK  Name = 5486998
REMARK  6 active torsions:
REMARK  status: ('A' for Active; 'I' for Inactive)
REMARK    1  A    between atoms: C_5  and  O_26
REMARK    2  A    between atoms: C_12  and  O_24
REMARK    3  A    between atoms: O_26  and  C_32
REMARK    4  A    between atoms: C_28  and  O_35
REMARK    5  A    between atoms: C_29  and  O_37
REMARK    6  A    between atoms: C_30  and  O_39
REMARK                            x       y       z     vdW  Elec       q    Type
REMARK                         _______ _______ _______ _____ _____    ______ ____
ROOT
ATOM      1  O   UNL     1     -33.992  26.307   4.119  0.00  0.00    -0.421 OA
ATOM      2  O   UNL     1     -38.164  25.762   1.358  0.00  0.00    -0.421 OA
ATOM      3  O   UNL     1     -38.501  27.803   0.411  0.00  0.00    -0.244 OA
ATOM      4  O   UNL     1     -33.652  24.268   5.071  0.00  0.00    -0.244 OA
ATOM      5  C   UNL     1     -33.125  29.025   3.787  0.00  0.00    +0.144 C 
ATOM      6  C   UNL     1     -34.276  28.524   3.146  0.00  0.00    +0.072 A 
ATOM      7  C   UNL     1     -35.868  26.724   2.648  0.00  0.00    +0.047 A 
ATOM      8  C   UNL     1     -34.727  27.197   3.290  0.00  0.00    +0.152 A 
ATOM      9  C   UNL     1     -35.027  29.391   2.315  0.00  0.00    +0.040 A 
ATOM     10  C   UNL     1     -36.277  25.360   2.832  0.00  0.00    +0.044 A 
ATOM     11  C   UNL     1     -36.597  27.585   1.833  0.00  0.00    +0.113 A 
ATOM     12  C   UNL     1     -36.181  28.911   1.666  0.00  0.00    +0.140 A 
ATOM     13  C   UNL     1     -32.723  30.350   3.610  0.00  0.00    +0.037 C 
ATOM     14  C   UNL     1     -35.555  24.490   3.647  0.00  0.00    +0.075 A 
ATOM     15  C   UNL     1     -37.419  24.894   2.188  0.00  0.00    +0.149 A 
ATOM     16  C   UNL     1     -34.607  30.721   2.150  0.00  0.00    +0.003 C 
ATOM     17  C   UNL     1     -33.464  31.196   2.793  0.00  0.00    +0.003 C 
ATOM     18  C   UNL     1     -35.979  23.166   3.807  0.00  0.00    -0.015 C 
ATOM     19  C   UNL     1     -37.817  27.098   1.140  0.00  0.00    +0.349 A 
ATOM     20  C   UNL     1     -34.338  24.971   4.341  0.00  0.00    +0.345 A 
ATOM     21  C   UNL     1     -37.857  23.582   2.333  0.00  0.00    +0.037 C 
ATOM     22  C   UNL     1     -37.129  22.717   3.150  0.00  0.00    -0.001 C 
ATOM     23  C   UNL     1     -35.264  22.168   4.660  0.00  0.00    +0.031 C 
ENDROOT
BRANCH  12  24
ATOM     24  O   UNL     1     -36.891  29.765   0.866  0.00  0.00    -0.505 OA
ATOM     25  H   UNL     1     -36.846  30.690   1.011  0.00  0.00    +0.292 HD
ENDBRANCH  12  24
BRANCH   5  26
ATOM     26  O   UNL     1     -32.348  28.254   4.604  0.00  0.00    -0.450 OA
BRANCH  26  32
ATOM     27  O   UNL     1     -30.152  27.638   4.117  0.00  0.00    -0.319 OA
ATOM     28  C   UNL     1     -29.158  28.996   6.476  0.00  0.00    +0.146 C 
ATOM     29  C   UNL     1     -28.326  27.961   5.693  0.00  0.00    +0.164 C 
ATOM     30  C   UNL     1     -30.661  28.748   6.227  0.00  0.00    +0.208 C 
ATOM     31  C   UNL     1     -28.751  27.920   4.217  0.00  0.00    +0.148 C 
ATOM     32  C   UNL     1     -30.975  28.629   4.732  0.00  0.00    +0.318 C 
ATOM     33  C   UNL     1     -28.730  30.428   6.121  0.00  0.00    +0.035 C 
ATOM     34  C   UNL     1     -28.016  26.838   3.433  0.00  0.00    +0.035 C 
BRANCH  28  35
ATOM     35  O   UNL     1     -28.887  28.854   7.875  0.00  0.00    -0.382 OA
ATOM     36  H   UNL     1     -28.079  28.330   7.996  0.00  0.00    +0.210 HD
ENDBRANCH  28  35
BRANCH  29  37
ATOM     37  O   UNL     1     -28.533  26.660   6.253  0.00  0.00    -0.380 OA
ATOM     38  H   UNL     1     -27.828  26.466   6.890  0.00  0.00    +0.211 HD
ENDBRANCH  29  37
BRANCH  30  39
ATOM     39  O   UNL     1     -31.443  29.808   6.777  0.00  0.00    -0.377 OA
ATOM     40  H   UNL     1     -31.540  30.514   6.119  0.00  0.00    +0.211 HD
ENDBRANCH  30  39
ENDBRANCH  26  32
ENDBRANCH   5  26
TORSDOF 6
ENDMDL
MODEL 3
REMARK VINA RESULT:      -7.3      3.481      8.873
REMARK  Name = 5486998
REMARK  6 active torsions:
REMARK  status: ('A' for Active; 'I' for Inactive)
REMARK    1  A    between atoms: C_5  and  O_26
REMARK    2  A    between atoms: C_12  and  O_24
REMARK    3  A    between atoms: O_26  and  C_32
REMARK    4  A    between atoms: C_28  and  O_35
REMARK    5  A    between atoms: C_29  and  O_37
REMARK    6  A    between atoms: C_30  and  O_39
REMARK                            x       y       z     vdW  Elec       q    Type
REMARK                         _______ _______ _______ _____ _____    ______ ____
ROOT
ATOM      1  O   UNL     1     -36.545  21.310   2.158  0.00  0.00    -0.421 OA
ATOM      2  O   UNL     1     -37.545  26.138   3.163  0.00  0.00    -0.421 OA
ATOM      3  O   UNL     1     -38.749  26.864   1.373  0.00  0.00    -0.244 OA
ATOM      4  O   UNL     1     -35.338  20.581   3.944  0.00  0.00    -0.244 OA
ATOM      5  C   UNL     1     -37.743  20.726  -0.387  0.00  0.00    +0.144 C 
ATOM      6  C   UNL     1     -37.830  22.002   0.205  0.00  0.00    +0.072 A 
ATOM      7  C   UNL     1     -37.351  23.588   2.016  0.00  0.00    +0.047 A 
ATOM      8  C   UNL     1     -37.253  22.320   1.450  0.00  0.00    +0.152 A 
ATOM      9  C   UNL     1     -38.529  23.026  -0.480  0.00  0.00    +0.040 A 
ATOM     10  C   UNL     1     -36.743  23.851   3.290  0.00  0.00    +0.044 A 
ATOM     11  C   UNL     1     -38.042  24.586   1.333  0.00  0.00    +0.113 A 
ATOM     12  C   UNL     1     -38.628  24.308   0.093  0.00  0.00    +0.140 A 
ATOM     13  C   UNL     1     -38.332  20.465  -1.625  0.00  0.00    +0.037 C 
ATOM     14  C   UNL     1     -36.049  22.859   3.980  0.00  0.00    +0.075 A 
ATOM     15  C   UNL     1     -36.845  25.120   3.848  0.00  0.00    +0.149 A 
ATOM     16  C   UNL     1     -39.115  22.744  -1.724  0.00  0.00    +0.003 C 
ATOM     17  C   UNL     1     -39.018  21.474  -2.292  0.00  0.00    +0.003 C 
ATOM     18  C   UNL     1     -35.466  23.146   5.220  0.00  0.00    -0.015 C 
ATOM     19  C   UNL     1     -38.156  25.944   1.922  0.00  0.00    +0.349 A 
ATOM     20  C   UNL     1     -35.930  21.502   3.398  0.00  0.00    +0.345 A 
ATOM     21  C   UNL     1     -36.274  25.426   5.079  0.00  0.00    +0.037 C 
ATOM     22  C   UNL     1     -35.581  24.429   5.765  0.00  0.00    -0.001 C 
ATOM     23  C   UNL     1     -34.706  22.143   6.026  0.00  0.00    +0.031 C 
ENDROOT
BRANCH  12  24
ATOM     24  O   UNL     1     -39.309  25.283  -0.585  0.00  0.00    -0.505 OA
ATOM     25  H   UNL     1     -38.892  25.747  -1.284  0.00  0.00    +0.292 HD
ENDBRANCH  12  24
BRANCH   5  26
ATOM     26  O   UNL     1     -37.086  19.685   0.208  0.00  0.00    -0.450 OA
BRANCH  26  32
ATOM     27  O   UNL     1     -37.858  17.526  -0.212  0.00  0.00    -0.319 OA
ATOM     28  C   UNL     1     -35.213  16.643  -1.000  0.00  0.00    +0.146 C 
ATOM     29  C   UNL     1     -36.353  15.665  -0.653  0.00  0.00    +0.164 C 
ATOM     30  C   UNL     1     -35.470  18.002  -0.316  0.00  0.00    +0.208 C 
ATOM     31  C   UNL     1     -37.724  16.298  -0.938  0.00  0.00    +0.148 C 
ATOM     32  C   UNL     1     -36.891  18.510  -0.579  0.00  0.00    +0.318 C 
ATOM     33  C   UNL     1     -35.044  16.773  -2.521  0.00  0.00    +0.035 C 
ATOM     34  C   UNL     1     -38.878  15.394  -0.514  0.00  0.00    +0.035 C 
BRANCH  28  35
ATOM     35  O   UNL     1     -33.973  16.106  -0.524  0.00  0.00    -0.382 OA
ATOM     36  H   UNL     1     -33.251  16.711  -0.752  0.00  0.00    +0.210 HD
ENDBRANCH  28  35
BRANCH  29  37
ATOM     37  O   UNL     1     -36.294  15.338   0.740  0.00  0.00    -0.380 OA
ATOM     38  H   UNL     1     -37.193  15.217   1.082  0.00  0.00    +0.211 HD
ENDBRANCH  29  37
BRANCH  30  39
ATOM     39  O   UNL     1     -34.540  18.981  -0.778  0.00  0.00    -0.377 OA
ATOM     40  H   UNL     1     -34.491  18.949  -1.746  0.00  0.00    +0.211 HD
ENDBRANCH  30  39
ENDBRANCH  26  32
ENDBRANCH   5  26
TORSDOF 6
ENDMDL
MODEL 4
REMARK VINA RESULT:      -7.2      3.494      8.294
REMARK  Name = 5486998
REMARK  6 active torsions:
REMARK  status: ('A' for Active; 'I' for Inactive)
REMARK    1  A    between atoms: C_5  and  O_26
REMARK    2  A    between atoms: C_12  and  O_24
REMARK    3  A    between atoms: O_26  and  C_32
REMARK    4  A    between atoms: C_28  and  O_35
REMARK    5  A    between atoms: C_29  and  O_37
REMARK    6  A    between atoms: C_30  and  O_39
REMARK                            x       y       z     vdW  Elec       q    Type
REMARK                         _______ _______ _______ _____ _____    ______ ____
ROOT
ATOM      1  O   UNL     1     -36.228  21.392   2.265  0.00  0.00    -0.421 OA
ATOM      2  O   UNL     1     -37.143  26.275   3.065  0.00  0.00    -0.421 OA
ATOM      3  O   UNL     1     -38.086  27.011   1.129  0.00  0.00    -0.244 OA
ATOM      4  O   UNL     1     -35.282  20.652   4.198  0.00  0.00    -0.244 OA
ATOM      5  C   UNL     1     -37.124  20.804  -0.401  0.00  0.00    +0.144 C 
ATOM      6  C   UNL     1     -37.231  22.095   0.157  0.00  0.00    +0.072 A 
ATOM      7  C   UNL     1     -36.915  23.696   1.989  0.00  0.00    +0.047 A 
ATOM      8  C   UNL     1     -36.800  22.414   1.459  0.00  0.00    +0.152 A 
ATOM      9  C   UNL     1     -37.797  23.131  -0.625  0.00  0.00    +0.040 A 
ATOM     10  C   UNL     1     -36.459  23.960   3.325  0.00  0.00    +0.044 A 
ATOM     11  C   UNL     1     -37.474  24.707   1.211  0.00  0.00    +0.113 A 
ATOM     12  C   UNL     1     -37.913  24.428  -0.088  0.00  0.00    +0.140 A 
ATOM     13  C   UNL     1     -37.566  20.543  -1.698  0.00  0.00    +0.037 C 
ATOM     14  C   UNL     1     -35.897  22.956   4.111  0.00  0.00    +0.075 A 
ATOM     15  C   UNL     1     -36.577  25.244   3.848  0.00  0.00    +0.149 A 
ATOM     16  C   UNL     1     -38.236  22.848  -1.929  0.00  0.00    +0.003 C 
ATOM     17  C   UNL     1     -38.121  21.564  -2.461  0.00  0.00    +0.003 C 
ATOM     18  C   UNL     1     -35.461  23.245   5.409  0.00  0.00    -0.015 C 
ATOM     19  C   UNL     1     -37.604  26.080   1.760  0.00  0.00    +0.349 A 
ATOM     20  C   UNL     1     -35.763  21.584   3.569  0.00  0.00    +0.345 A 
ATOM     21  C   UNL     1     -36.150  25.552   5.135  0.00  0.00    +0.037 C 
ATOM     22  C   UNL     1     -35.589  24.542   5.917  0.00  0.00    -0.001 C 
ATOM     23  C   UNL     1     -34.849  22.229   6.319  0.00  0.00    +0.031 C 
ENDROOT
BRANCH  12  24
ATOM     24  O   UNL     1     -38.464  25.415  -0.860  0.00  0.00    -0.505 OA
ATOM     25  H   UNL     1     -39.098  25.198  -1.515  0.00  0.00    +0.292 HD
ENDBRANCH  12  24
BRANCH   5  26
ATOM     26  O   UNL     1     -36.590  19.751   0.287  0.00  0.00    -0.450 OA
BRANCH  26  32
ATOM     27  O   UNL     1     -35.927  17.846  -0.883  0.00  0.00    -0.319 OA
ATOM     28  C   UNL     1     -33.265  17.971   0.254  0.00  0.00    +0.146 C 
ATOM     29  C   UNL     1     -33.819  16.713  -0.445  0.00  0.00    +0.164 C 
ATOM     30  C   UNL     1     -34.435  18.833   0.772  0.00  0.00    +0.208 C 
ATOM     31  C   UNL     1     -34.876  17.090  -1.495  0.00  0.00    +0.148 C 
ATOM     32  C   UNL     1     -35.484  19.079  -0.317  0.00  0.00    +0.318 C 
ATOM     33  C   UNL     1     -32.327  18.751  -0.680  0.00  0.00    +0.035 C 
ATOM     34  C   UNL     1     -35.516  15.863  -2.137  0.00  0.00    +0.035 C 
BRANCH  28  35
ATOM     35  O   UNL     1     -32.451  17.571   1.363  0.00  0.00    -0.382 OA
ATOM     36  H   UNL     1     -31.534  17.841   1.204  0.00  0.00    +0.210 HD
ENDBRANCH  28  35
BRANCH  29  37
ATOM     37  O   UNL     1     -34.439  15.862   0.526  0.00  0.00    -0.380 OA
ATOM     38  H   UNL     1     -33.754  15.394   1.029  0.00  0.00    +0.211 HD
ENDBRANCH  29  37
BRANCH  30  39
ATOM     39  O   UNL     1     -33.960  20.094   1.244  0.00  0.00    -0.377 OA
ATOM     40  H   UNL     1     -33.315  20.453   0.615  0.00  0.00    +0.211 HD
ENDBRANCH  30  39
ENDBRANCH  26  32
ENDBRANCH   5  26
TORSDOF 6
ENDMDL
MODEL 5
REMARK VINA RESULT:      -7.2      2.394      3.387
REMARK  Name = 5486998
REMARK  6 active torsions:
REMARK  status: ('A' for Active; 'I' for Inactive)
REMARK    1  A    between atoms: C_5  and  O_26
REMARK    2  A    between atoms: C_12  and  O_24
REMARK    3  A    between atoms: O_26  and  C_32
REMARK    4  A    between atoms: C_28  and  O_35
REMARK    5  A    between atoms: C_29  and  O_37
REMARK    6  A    between atoms: C_30  and  O_39
REMARK                            x       y       z     vdW  Elec       q    Type
REMARK                         _______ _______ _______ _____ _____    ______ ____
ROOT
ATOM      1  O   UNL     1     -38.845  24.661   2.692  0.00  0.00    -0.421 OA
ATOM      2  O   UNL     1     -41.902  22.201  -0.460  0.00  0.00    -0.421 OA
ATOM      3  O   UNL     1     -40.873  20.204  -0.822  0.00  0.00    -0.244 OA
ATOM      4  O   UNL     1     -39.869  26.661   3.055  0.00  0.00    -0.244 OA
ATOM      5  C   UNL     1     -36.618  22.924   3.213  0.00  0.00    +0.144 C 
ATOM      6  C   UNL     1     -37.676  22.547   2.362  0.00  0.00    +0.072 A 
ATOM      7  C   UNL     1     -39.815  22.984   1.240  0.00  0.00    +0.047 A 
ATOM      8  C   UNL     1     -38.781  23.376   2.086  0.00  0.00    +0.152 A 
ATOM      9  C   UNL     1     -37.635  21.273   1.745  0.00  0.00    +0.040 A 
ATOM     10  C   UNL     1     -40.916  23.873   0.999  0.00  0.00    +0.044 A 
ATOM     11  C   UNL     1     -39.764  21.729   0.640  0.00  0.00    +0.113 A 
ATOM     12  C   UNL     1     -38.682  20.877   0.890  0.00  0.00    +0.140 A 
ATOM     13  C   UNL     1     -35.545  22.063   3.451  0.00  0.00    +0.037 C 
ATOM     14  C   UNL     1     -40.975  25.132   1.593  0.00  0.00    +0.075 A 
ATOM     15  C   UNL     1     -41.945  23.474   0.152  0.00  0.00    +0.149 A 
ATOM     16  C   UNL     1     -36.547  20.421   1.997  0.00  0.00    +0.003 C 
ATOM     17  C   UNL     1     -35.511  20.813   2.843  0.00  0.00    +0.003 C 
ATOM     18  C   UNL     1     -42.062  25.976   1.338  0.00  0.00    -0.015 C 
ATOM     19  C   UNL     1     -40.858  21.293  -0.264  0.00  0.00    +0.349 A 
ATOM     20  C   UNL     1     -39.886  25.572   2.496  0.00  0.00    +0.345 A 
ATOM     21  C   UNL     1     -43.034  24.298  -0.114  0.00  0.00    +0.037 C 
ATOM     22  C   UNL     1     -43.088  25.556   0.484  0.00  0.00    -0.001 C 
ATOM     23  C   UNL     1     -42.205  27.339   1.934  0.00  0.00    +0.031 C 
ENDROOT
BRANCH  12  24
ATOM     24  O   UNL     1     -38.623  19.641   0.305  0.00  0.00    -0.505 OA
ATOM     25  H   UNL     1     -37.816  19.165   0.294  0.00  0.00    +0.292 HD
ENDBRANCH  12  24
BRANCH   5  26
ATOM     26  O   UNL     1     -36.581  24.135   3.845  0.00  0.00    -0.450 OA
BRANCH  26  32
ATOM     27  O   UNL     1     -34.852  24.632   2.362  0.00  0.00    -0.319 OA
ATOM     28  C   UNL     1     -34.365  27.180   3.653  0.00  0.00    +0.146 C 
ATOM     29  C   UNL     1     -33.356  26.523   2.689  0.00  0.00    +0.164 C 
ATOM     30  C   UNL     1     -35.279  26.097   4.263  0.00  0.00    +0.208 C 
ATOM     31  C   UNL     1     -34.076  25.620   1.675  0.00  0.00    +0.148 C 
ATOM     32  C   UNL     1     -35.878  25.187   3.185  0.00  0.00    +0.318 C 
ATOM     33  C   UNL     1     -35.157  28.290   2.947  0.00  0.00    +0.035 C 
ATOM     34  C   UNL     1     -33.100  24.878   0.768  0.00  0.00    +0.035 C 
BRANCH  28  35
ATOM     35  O   UNL     1     -33.648  27.835   4.706  0.00  0.00    -0.382 OA
ATOM     36  H   UNL     1     -34.249  28.427   5.186  0.00  0.00    +0.210 HD
ENDBRANCH  28  35
BRANCH  29  37
ATOM     37  O   UNL     1     -32.441  25.714   3.436  0.00  0.00    -0.380 OA
ATOM     38  H   UNL     1     -31.665  25.515   2.888  0.00  0.00    +0.211 HD
ENDBRANCH  29  37
BRANCH  30  39
ATOM     39  O   UNL     1     -36.344  26.696   5.001  0.00  0.00    -0.377 OA
ATOM     40  H   UNL     1     -36.411  27.635   4.768  0.00  0.00    +0.211 HD
ENDBRANCH  30  39
ENDBRANCH  26  32
ENDBRANCH   5  26
TORSDOF 6
ENDMDL
MODEL 6
REMARK VINA RESULT:      -7.2      7.613      9.857
REMARK  Name = 5486998
REMARK  6 active torsions:
REMARK  status: ('A' for Active; 'I' for Inactive)
REMARK    1  A    between atoms: C_5  and  O_26
REMARK    2  A    between atoms: C_12  and  O_24
REMARK    3  A    between atoms: O_26  and  C_32
REMARK    4  A    between atoms: C_28  and  O_35
REMARK    5  A    between atoms: C_29  and  O_37
REMARK    6  A    between atoms: C_30  and  O_39
REMARK                            x       y       z     vdW  Elec       q    Type
REMARK                         _______ _______ _______ _____ _____    ______ ____
ROOT
ATOM      1  O   UNL     1     -43.932  27.905   4.239  0.00  0.00    -0.421 OA
ATOM      2  O   UNL     1     -47.543  26.473   7.438  0.00  0.00    -0.421 OA
ATOM      3  O   UNL     1     -48.527  24.682   6.435  0.00  0.00    -0.244 OA
ATOM      4  O   UNL     1     -42.947  29.698   5.236  0.00  0.00    -0.244 OA
ATOM      5  C   UNL     1     -44.045  26.109   2.000  0.00  0.00    +0.144 C 
ATOM      6  C   UNL     1     -44.926  25.995   3.095  0.00  0.00    +0.072 A 
ATOM      7  C   UNL     1     -45.776  26.729   5.277  0.00  0.00    +0.047 A 
ATOM      8  C   UNL     1     -44.896  26.860   4.206  0.00  0.00    +0.152 A 
ATOM      9  C   UNL     1     -45.896  24.963   3.087  0.00  0.00    +0.040 A 
ATOM     10  C   UNL     1     -45.695  27.641   6.383  0.00  0.00    +0.044 A 
ATOM     11  C   UNL     1     -46.724  25.710   5.258  0.00  0.00    +0.113 A 
ATOM     12  C   UNL     1     -46.785  24.831   4.170  0.00  0.00    +0.140 A 
ATOM     13  C   UNL     1     -44.120  25.224   0.923  0.00  0.00    +0.037 C 
ATOM     14  C   UNL     1     -44.750  28.665   6.411  0.00  0.00    +0.075 A 
ATOM     15  C   UNL     1     -46.578  27.505   7.449  0.00  0.00    +0.149 A 
ATOM     16  C   UNL     1     -45.954  24.083   1.994  0.00  0.00    +0.003 C 
ATOM     17  C   UNL     1     -45.074  24.213   0.921  0.00  0.00    +0.003 C 
ATOM     18  C   UNL     1     -44.697  29.539   7.503  0.00  0.00    -0.015 C 
ATOM     19  C   UNL     1     -47.671  25.556   6.391  0.00  0.00    +0.349 A 
ATOM     20  C   UNL     1     -43.803  28.825   5.282  0.00  0.00    +0.345 A 
ATOM     21  C   UNL     1     -46.541  28.362   8.544  0.00  0.00    +0.037 C 
ATOM     22  C   UNL     1     -45.593  29.384   8.566  0.00  0.00    -0.001 C 
ATOM     23  C   UNL     1     -43.716  30.661   7.614  0.00  0.00    +0.031 C 
ENDROOT
BRANCH  12  24
ATOM     24  O   UNL     1     -47.714  23.826   4.143  0.00  0.00    -0.505 OA
ATOM     25  H   UNL     1     -47.699  23.156   4.798  0.00  0.00    +0.292 HD
ENDBRANCH  12  24
BRANCH   5  26
ATOM     26  O   UNL     1     -43.083  27.076   1.931  0.00  0.00    -0.450 OA
BRANCH  26  32
ATOM     27  O   UNL     1     -41.773  25.689   0.591  0.00  0.00    -0.319 OA
ATOM     28  C   UNL     1     -39.800  25.383   2.692  0.00  0.00    +0.146 C 
ATOM     29  C   UNL     1     -39.868  24.452   1.465  0.00  0.00    +0.164 C 
ATOM     30  C   UNL     1     -41.183  26.024   2.932  0.00  0.00    +0.208 C 
ATOM     31  C   UNL     1     -40.476  25.180   0.256  0.00  0.00    +0.148 C 
ATOM     32  C   UNL     1     -41.751  26.644   1.651  0.00  0.00    +0.318 C 
ATOM     33  C   UNL     1     -38.687  26.428   2.527  0.00  0.00    +0.035 C 
ATOM     34  C   UNL     1     -40.649  24.259  -0.948  0.00  0.00    +0.035 C 
BRANCH  28  35
ATOM     35  O   UNL     1     -39.434  24.615   3.844  0.00  0.00    -0.382 OA
ATOM     36  H   UNL     1     -39.728  25.075   4.645  0.00  0.00    +0.210 HD
ENDBRANCH  28  35
BRANCH  29  37
ATOM     37  O   UNL     1     -40.696  23.323   1.768  0.00  0.00    -0.380 OA
ATOM     38  H   UNL     1     -40.144  22.530   1.849  0.00  0.00    +0.211 HD
ENDBRANCH  29  37
BRANCH  30  39
ATOM     39  O   UNL     1     -41.099  27.038   3.934  0.00  0.00    -0.377 OA
ATOM     40  H   UNL     1     -40.580  26.708   4.684  0.00  0.00    +0.211 HD
ENDBRANCH  30  39
ENDBRANCH  26  32
ENDBRANCH   5  26
TORSDOF 6
ENDMDL
MODEL 7
REMARK VINA RESULT:      -7.1      7.963     10.308
REMARK  Name = 5486998
REMARK  6 active torsions:
REMARK  status: ('A' for Active; 'I' for Inactive)
REMARK    1  A    between atoms: C_5  and  O_26
REMARK    2  A    between atoms: C_12  and  O_24
REMARK    3  A    between atoms: O_26  and  C_32
REMARK    4  A    between atoms: C_28  and  O_35
REMARK    5  A    between atoms: C_29  and  O_37
REMARK    6  A    between atoms: C_30  and  O_39
REMARK                            x       y       z     vdW  Elec       q    Type
REMARK                         _______ _______ _______ _____ _____    ______ ____
ROOT
ATOM      1  O   UNL     1     -43.849  28.260   4.666  0.00  0.00    -0.421 OA
ATOM      2  O   UNL     1     -47.612  26.417   7.454  0.00  0.00    -0.421 OA
ATOM      3  O   UNL     1     -48.422  24.666   6.247  0.00  0.00    -0.244 OA
ATOM      4  O   UNL     1     -43.038  30.013   5.869  0.00  0.00    -0.244 OA
ATOM      5  C   UNL     1     -43.699  26.640   2.299  0.00  0.00    +0.144 C 
ATOM      6  C   UNL     1     -44.652  26.400   3.309  0.00  0.00    +0.072 A 
ATOM      7  C   UNL     1     -45.702  26.922   5.465  0.00  0.00    +0.047 A 
ATOM      8  C   UNL     1     -44.751  27.177   4.480  0.00  0.00    +0.152 A 
ATOM      9  C   UNL     1     -45.563  25.328   3.148  0.00  0.00    +0.040 A 
ATOM     10  C   UNL     1     -45.753  27.749   6.638  0.00  0.00    +0.044 A 
ATOM     11  C   UNL     1     -46.592  25.865   5.296  0.00  0.00    +0.113 A 
ATOM     12  C   UNL     1     -46.524  25.071   4.145  0.00  0.00    +0.140 A 
ATOM     13  C   UNL     1     -43.645  25.839   1.157  0.00  0.00    +0.037 C 
ATOM     14  C   UNL     1     -44.868  28.810   6.817  0.00  0.00    +0.075 A 
ATOM     15  C   UNL     1     -46.706  27.488   7.618  0.00  0.00    +0.149 A 
ATOM     16  C   UNL     1     -45.493  24.534   1.992  0.00  0.00    +0.003 C 
ATOM     17  C   UNL     1     -44.542  24.788   1.004  0.00  0.00    +0.003 C 
ATOM     18  C   UNL     1     -44.943  29.598   7.971  0.00  0.00    -0.015 C 
ATOM     19  C   UNL     1     -47.612  25.579   6.336  0.00  0.00    +0.349 A 
ATOM     20  C   UNL     1     -43.848  29.101   5.782  0.00  0.00    +0.345 A 
ATOM     21  C   UNL     1     -46.797  28.259   8.772  0.00  0.00    +0.037 C 
ATOM     22  C   UNL     1     -45.908  29.319   8.945  0.00  0.00    -0.001 C 
ATOM     23  C   UNL     1     -44.034  30.752   8.243  0.00  0.00    +0.031 C 
ENDROOT
BRANCH  12  24
ATOM     24  O   UNL     1     -47.394  24.030   3.969  0.00  0.00    -0.505 OA
ATOM     25  H   UNL     1     -47.755  23.590   4.714  0.00  0.00    +0.292 HD
ENDBRANCH  12  24
BRANCH   5  26
ATOM     26  O   UNL     1     -42.786  27.653   2.378  0.00  0.00    -0.450 OA
BRANCH  26  32
ATOM     27  O   UNL     1     -41.371  28.520   0.740  0.00  0.00    -0.319 OA
ATOM     28  C   UNL     1     -42.870  30.998   0.637  0.00  0.00    +0.146 C 
ATOM     29  C   UNL     1     -41.455  30.850   0.044  0.00  0.00    +0.164 C 
ATOM     30  C   UNL     1     -43.083  29.939   1.739  0.00  0.00    +0.208 C 
ATOM     31  C   UNL     1     -41.186  29.397  -0.377  0.00  0.00    +0.148 C 
ATOM     32  C   UNL     1     -42.701  28.535   1.259  0.00  0.00    +0.318 C 
ATOM     33  C   UNL     1     -43.939  30.924  -0.464  0.00  0.00    +0.035 C 
ATOM     34  C   UNL     1     -39.759  29.195  -0.879  0.00  0.00    +0.035 C 
BRANCH  28  35
ATOM     35  O   UNL     1     -43.005  32.304   1.211  0.00  0.00    -0.382 OA
ATOM     36  H   UNL     1     -42.875  32.974   0.522  0.00  0.00    +0.210 HD
ENDBRANCH  28  35
BRANCH  29  37
ATOM     37  O   UNL     1     -40.484  31.216   1.030  0.00  0.00    -0.380 OA
ATOM     38  H   UNL     1     -39.635  31.396   0.597  0.00  0.00    +0.211 HD
ENDBRANCH  29  37
BRANCH  30  39
ATOM     39  O   UNL     1     -44.445  29.923   2.165  0.00  0.00    -0.377 OA
ATOM     40  H   UNL     1     -45.016  30.201   1.432  0.00  0.00    +0.211 HD
ENDBRANCH  30  39
ENDBRANCH  26  32
ENDBRANCH   5  26
TORSDOF 6
ENDMDL
MODEL 8
REMARK VINA RESULT:      -6.9      3.661      8.193
REMARK  Name = 5486998
REMARK  6 active torsions:
REMARK  status: ('A' for Active; 'I' for Inactive)
REMARK    1  A    between atoms: C_5  and  O_26
REMARK    2  A    between atoms: C_12  and  O_24
REMARK    3  A    between atoms: O_26  and  C_32
REMARK    4  A    between atoms: C_28  and  O_35
REMARK    5  A    between atoms: C_29  and  O_37
REMARK    6  A    between atoms: C_30  and  O_39
REMARK                            x       y       z     vdW  Elec       q    Type
REMARK                         _______ _______ _______ _____ _____    ______ ____
ROOT
ATOM      1  O   UNL     1     -35.118  30.306   2.473  0.00  0.00    -0.421 OA
ATOM      2  O   UNL     1     -32.776  34.738   2.028  0.00  0.00    -0.421 OA
ATOM      3  O   UNL     1     -30.800  34.459   3.122  0.00  0.00    -0.244 OA
ATOM      4  O   UNL     1     -37.097  30.581   1.383  0.00  0.00    -0.244 OA
ATOM      5  C   UNL     1     -33.372  28.590   3.974  0.00  0.00    +0.144 C 
ATOM      6  C   UNL     1     -33.025  29.920   3.662  0.00  0.00    +0.072 A 
ATOM      7  C   UNL     1     -33.498  32.097   2.631  0.00  0.00    +0.047 A 
ATOM      8  C   UNL     1     -33.860  30.786   2.928  0.00  0.00    +0.152 A 
ATOM      9  C   UNL     1     -31.778  30.423   4.105  0.00  0.00    +0.040 A 
ATOM     10  C   UNL     1     -34.391  32.932   1.878  0.00  0.00    +0.044 A 
ATOM     11  C   UNL     1     -32.268  32.580   3.072  0.00  0.00    +0.113 A 
ATOM     12  C   UNL     1     -31.412  31.749   3.804  0.00  0.00    +0.140 A 
ATOM     13  C   UNL     1     -32.507  27.775   4.706  0.00  0.00    +0.037 C 
ATOM     14  C   UNL     1     -35.624  32.458   1.434  0.00  0.00    +0.075 A 
ATOM     15  C   UNL     1     -34.022  34.241   1.586  0.00  0.00    +0.149 A 
ATOM     16  C   UNL     1     -30.921  29.587   4.840  0.00  0.00    +0.003 C 
ATOM     17  C   UNL     1     -31.283  28.274   5.138  0.00  0.00    +0.003 C 
ATOM     18  C   UNL     1     -36.474  33.297   0.703  0.00  0.00    -0.015 C 
ATOM     19  C   UNL     1     -31.865  33.975   2.764  0.00  0.00    +0.349 A 
ATOM     20  C   UNL     1     -36.033  31.067   1.739  0.00  0.00    +0.345 A 
ATOM     21  C   UNL     1     -34.851  35.089   0.860  0.00  0.00    +0.037 C 
ATOM     22  C   UNL     1     -36.084  34.609   0.418  0.00  0.00    -0.001 C 
ATOM     23  C   UNL     1     -37.811  32.870   0.188  0.00  0.00    +0.031 C 
ENDROOT
BRANCH  12  24
ATOM     24  O   UNL     1     -30.201  32.214   4.240  0.00  0.00    -0.505 OA
ATOM     25  H   UNL     1     -29.564  32.515   3.623  0.00  0.00    +0.292 HD
ENDBRANCH  12  24
BRANCH   5  26
ATOM     26  O   UNL     1     -34.556  28.030   3.585  0.00  0.00    -0.450 OA
BRANCH  26  32
ATOM     27  O   UNL     1     -34.344  26.059   2.357  0.00  0.00    -0.319 OA
ATOM     28  C   UNL     1     -36.321  24.723   4.002  0.00  0.00    +0.146 C 
ATOM     29  C   UNL     1     -35.867  24.181   2.632  0.00  0.00    +0.164 C 
ATOM     30  C   UNL     1     -36.074  26.245   4.064  0.00  0.00    +0.208 C 
ATOM     31  C   UNL     1     -34.433  24.630   2.312  0.00  0.00    +0.148 C 
ATOM     32  C   UNL     1     -34.647  26.606   3.640  0.00  0.00    +0.318 C 
ATOM     33  C   UNL     1     -35.632  23.967   5.147  0.00  0.00    +0.035 C 
ATOM     34  C   UNL     1     -33.986  24.194   0.920  0.00  0.00    +0.035 C 
BRANCH  28  35
ATOM     35  O   UNL     1     -37.721  24.469   4.166  0.00  0.00    -0.382 OA
ATOM     36  H   UNL     1     -37.884  23.514   4.118  0.00  0.00    +0.210 HD
ENDBRANCH  28  35
BRANCH  29  37
ATOM     37  O   UNL     1     -36.731  24.688   1.608  0.00  0.00    -0.380 OA
ATOM     38  H   UNL     1     -37.422  24.035   1.416  0.00  0.00    +0.211 HD
ENDBRANCH  29  37
BRANCH  30  39
ATOM     39  O   UNL     1     -36.299  26.737   5.386  0.00  0.00    -0.377 OA
ATOM     40  H   UNL     1     -36.902  27.495   5.350  0.00  0.00    +0.211 HD
ENDBRANCH  30  39
ENDBRANCH  26  32
ENDBRANCH   5  26
TORSDOF 6
ENDMDL
MODEL 9
REMARK VINA RESULT:      -6.9      3.756      7.015
REMARK  Name = 5486998
REMARK  6 active torsions:
REMARK  status: ('A' for Active; 'I' for Inactive)
REMARK    1  A    between atoms: C_5  and  O_26
REMARK    2  A    between atoms: C_12  and  O_24
REMARK    3  A    between atoms: O_26  and  C_32
REMARK    4  A    between atoms: C_28  and  O_35
REMARK    5  A    between atoms: C_29  and  O_37
REMARK    6  A    between atoms: C_30  and  O_39
REMARK                            x       y       z     vdW  Elec       q    Type
REMARK                         _______ _______ _______ _____ _____    ______ ____
ROOT
ATOM      1  O   UNL     1     -35.601  20.230   1.018  0.00  0.00    -0.421 OA
ATOM      2  O   UNL     1     -37.721  16.539  -1.666  0.00  0.00    -0.421 OA
ATOM      3  O   UNL     1     -39.862  17.231  -2.010  0.00  0.00    -0.244 OA
ATOM      4  O   UNL     1     -33.460  19.542   1.367  0.00  0.00    -0.244 OA
ATOM      5  C   UNL     1     -37.621  22.234   1.416  0.00  0.00    +0.144 C 
ATOM      6  C   UNL     1     -37.875  21.049   0.696  0.00  0.00    +0.072 A 
ATOM      7  C   UNL     1     -37.180  18.885  -0.229  0.00  0.00    +0.047 A 
ATOM      8  C   UNL     1     -36.906  20.048   0.485  0.00  0.00    +0.152 A 
ATOM      9  C   UNL     1     -39.167  20.842   0.155  0.00  0.00    +0.040 A 
ATOM     10  C   UNL     1     -36.150  17.901  -0.412  0.00  0.00    +0.044 A 
ATOM     11  C   UNL     1     -38.454  18.693  -0.757  0.00  0.00    +0.113 A 
ATOM     12  C   UNL     1     -39.443  19.666  -0.567  0.00  0.00    +0.140 A 
ATOM     13  C   UNL     1     -38.618  23.193   1.596  0.00  0.00    +0.037 C 
ATOM     14  C   UNL     1     -34.872  18.082   0.113  0.00  0.00    +0.075 A 
ATOM     15  C   UNL     1     -36.431  16.741  -1.126  0.00  0.00    +0.149 A 
ATOM     16  C   UNL     1     -40.157  21.820   0.347  0.00  0.00    +0.003 C 
ATOM     17  C   UNL     1     -39.885  22.986   1.062  0.00  0.00    +0.003 C 
ATOM     18  C   UNL     1     -33.890  17.104  -0.081  0.00  0.00    -0.015 C 
ATOM     19  C   UNL     1     -38.763  17.458  -1.521  0.00  0.00    +0.349 A 
ATOM     20  C   UNL     1     -34.558  19.312   0.878  0.00  0.00    +0.345 A 
ATOM     21  C   UNL     1     -35.469  15.757  -1.332  0.00  0.00    +0.037 C 
ATOM     22  C   UNL     1     -34.192  15.945  -0.804  0.00  0.00    -0.001 C 
ATOM     23  C   UNL     1     -32.496  17.219   0.446  0.00  0.00    +0.031 C 
ENDROOT
BRANCH  12  24
ATOM     24  O   UNL     1     -40.698  19.487  -1.083  0.00  0.00    -0.505 OA
ATOM     25  H   UNL     1     -41.424  19.341  -0.509  0.00  0.00    +0.292 HD
ENDBRANCH  12  24
BRANCH   5  26
ATOM     26  O   UNL     1     -36.402  22.508   1.970  0.00  0.00    -0.450 OA
BRANCH  26  32
ATOM     27  O   UNL     1     -36.148  24.238   3.513  0.00  0.00    -0.319 OA
ATOM     28  C   UNL     1     -35.060  22.424   5.493  0.00  0.00    +0.146 C 
ATOM     29  C   UNL     1     -34.927  23.957   5.598  0.00  0.00    +0.164 C 
ATOM     30  C   UNL     1     -35.267  22.022   4.018  0.00  0.00    +0.208 C 
ATOM     31  C   UNL     1     -36.090  24.658   4.880  0.00  0.00    +0.148 C 
ATOM     32  C   UNL     1     -36.383  22.838   3.359  0.00  0.00    +0.318 C 
ATOM     33  C   UNL     1     -36.180  21.906   6.407  0.00  0.00    +0.035 C 
ATOM     34  C   UNL     1     -35.939  26.176   4.880  0.00  0.00    +0.035 C 
BRANCH  28  35
ATOM     35  O   UNL     1     -33.859  21.815   5.981  0.00  0.00    -0.382 OA
ATOM     36  H   UNL     1     -33.279  22.496   6.354  0.00  0.00    +0.210 HD
ENDBRANCH  28  35
BRANCH  29  37
ATOM     37  O   UNL     1     -33.705  24.373   4.979  0.00  0.00    -0.380 OA
ATOM     38  H   UNL     1     -33.583  25.326   5.112  0.00  0.00    +0.211 HD
ENDBRANCH  29  37
BRANCH  30  39
ATOM     39  O   UNL     1     -35.590  20.636   3.916  0.00  0.00    -0.377 OA
ATOM     40  H   UNL     1     -36.205  20.394   4.626  0.00  0.00    +0.211 HD
ENDBRANCH  30  39
ENDBRANCH  26  32
ENDBRANCH   5  26
TORSDOF 6
ENDMDL
