MODEL 1
REMARK VINA RESULT:      -7.7      0.000      0.000
REMARK  Name = 5083
REMARK  7 active torsions:
REMARK  status: ('A' for Active; 'I' for Inactive)
REMARK    1  A    between atoms: N_1  and  C_28
REMARK    2  A    between atoms: C_2  and  C_13
REMARK    3  A    between atoms: C_14  and  C_19
REMARK    4  A    between atoms: C_28  and  C_29
REMARK    5  A    between atoms: C_29  and  C_30
REMARK    6  A    between atoms: C_30  and  S_31
REMARK    7  A    between atoms: S_31  and  C_34
REMARK                            x       y       z     vdW  Elec       q    Type
REMARK                         _______ _______ _______ _____ _____    ______ ____
ROOT
ATOM      1  N   UNL     1     -35.061  24.419   2.532  0.00  0.00    -0.286 N 
ATOM      2  C   UNL     1     -35.677  22.345   2.025  0.00  0.00    +0.021 C 
ATOM      3  C   UNL     1     -35.430  22.409   3.428  0.00  0.00    +0.015 C 
ATOM      4  C   UNL     1     -35.046  23.720   3.718  0.00  0.00    +0.052 C 
ATOM      5  C   UNL     1     -35.440  23.598   1.504  0.00  0.00    +0.066 C 
ATOM      6  C   UNL     1     -35.498  21.473   4.478  0.00  0.00    +0.001 C 
ATOM      7  C   UNL     1     -34.725  24.144   5.013  0.00  0.00    +0.015 C 
ATOM      8  C   UNL     1     -35.180  21.883   5.779  0.00  0.00    +0.000 C 
ATOM      9  C   UNL     1     -34.800  23.198   6.039  0.00  0.00    +0.001 C 
ENDROOT
BRANCH   2  13
ATOM     10  O   UNL     1     -38.414  21.189   1.898  0.00  0.00    -0.270 OA
ATOM     11  O   UNL     1     -35.965  18.490  -0.873  0.00  0.00    -0.270 OA
ATOM     12  N   UNL     1     -37.512  19.626   0.436  0.00  0.00    -0.248 N 
ATOM     13  C   UNL     1     -36.093  21.214   1.255  0.00  0.00    +0.059 C 
ATOM     14  C   UNL     1     -35.370  20.414   0.449  0.00  0.00    +0.059 C 
ATOM     15  C   UNL     1     -37.490  20.711   1.260  0.00  0.00    +0.252 C 
ATOM     16  C   UNL     1     -36.281  19.375  -0.095  0.00  0.00    +0.252 C 
ATOM     17  H   UNL     1     -38.316  19.090   0.247  0.00  0.00    +0.158 HD
BRANCH  14  19
ATOM     18  N   UNL     1     -32.088  21.215  -0.787  0.00  0.00    -0.284 N 
ATOM     19  C   UNL     1     -33.985  20.483   0.102  0.00  0.00    +0.021 C 
ATOM     20  C   UNL     1     -32.946  19.578   0.462  0.00  0.00    +0.015 C 
ATOM     21  C   UNL     1     -31.767  20.061  -0.109  0.00  0.00    +0.052 C 
ATOM     22  C   UNL     1     -33.426  21.478  -0.665  0.00  0.00    +0.066 C 
ATOM     23  C   UNL     1     -32.898  18.391   1.219  0.00  0.00    +0.001 C 
ATOM     24  C   UNL     1     -30.535  19.414   0.041  0.00  0.00    +0.015 C 
ATOM     25  C   UNL     1     -31.158  22.043  -1.525  0.00  0.00    +0.117 C 
ATOM     26  C   UNL     1     -31.673  17.733   1.379  0.00  0.00    +0.000 C 
ATOM     27  C   UNL     1     -30.511  18.238   0.798  0.00  0.00    +0.001 C 
ENDBRANCH  14  19
ENDBRANCH   2  13
BRANCH   1  28
ATOM     28  C   UNL     1     -34.729  25.819   2.377  0.00  0.00    +0.096 C 
BRANCH  28  29
ATOM     29  C   UNL     1     -35.734  26.554   1.489  0.00  0.00    +0.034 C 
BRANCH  29  30
ATOM     30  C   UNL     1     -37.008  26.875   2.264  0.00  0.00    +0.067 C 
BRANCH  30  31
ATOM     31  S   UNL     1     -38.396  25.870   1.663  0.00  0.00    -0.081 S 
BRANCH  31  34
ATOM     32  N   UNL     1     -38.113  25.221   4.202  0.00  0.00    -0.338 N 
ATOM     33  N   UNL     1     -39.374  23.716   2.889  0.00  0.00    -0.280 NA
ATOM     34  C   UNL     1     -38.678  24.799   3.032  0.00  0.00    +0.144 C 
ATOM     35  H   UNL     1     -37.598  26.059   4.226  0.00  0.00    +0.144 HD
ATOM     36  H   UNL     1     -38.220  24.686   5.021  0.00  0.00    +0.144 HD
ATOM     37  H   UNL     1     -39.747  23.484   2.008  0.00  0.00    +0.189 HD
ENDBRANCH  31  34
ENDBRANCH  30  31
ENDBRANCH  29  30
ENDBRANCH  28  29
ENDBRANCH   1  28
TORSDOF 7
ENDMDL
MODEL 2
REMARK VINA RESULT:      -7.7      2.437      3.092
REMARK  Name = 5083
REMARK  7 active torsions:
REMARK  status: ('A' for Active; 'I' for Inactive)
REMARK    1  A    between atoms: N_1  and  C_28
REMARK    2  A    between atoms: C_2  and  C_13
REMARK    3  A    between atoms: C_14  and  C_19
REMARK    4  A    between atoms: C_28  and  C_29
REMARK    5  A    between atoms: C_29  and  C_30
REMARK    6  A    between atoms: C_30  and  S_31
REMARK    7  A    between atoms: S_31  and  C_34
REMARK                            x       y       z     vdW  Elec       q    Type
REMARK                         _______ _______ _______ _____ _____    ______ ____
ROOT
ATOM      1  N   UNL     1     -35.957  24.669   3.310  0.00  0.00    -0.286 N 
ATOM      2  C   UNL     1     -36.420  22.680   2.432  0.00  0.00    +0.021 C 
ATOM      3  C   UNL     1     -35.907  22.481   3.747  0.00  0.00    +0.015 C 
ATOM      4  C   UNL     1     -35.625  23.743   4.274  0.00  0.00    +0.052 C 
ATOM      5  C   UNL     1     -36.438  24.037   2.195  0.00  0.00    +0.066 C 
ATOM      6  C   UNL     1     -35.655  21.344   4.539  0.00  0.00    +0.001 C 
ATOM      7  C   UNL     1     -35.102  23.926   5.559  0.00  0.00    +0.015 C 
ATOM      8  C   UNL     1     -35.132  21.511   5.827  0.00  0.00    +0.000 C 
ATOM      9  C   UNL     1     -34.861  22.783   6.327  0.00  0.00    +0.001 C 
ENDROOT
BRANCH   2  13
ATOM     10  O   UNL     1     -39.187  21.652   2.073  0.00  0.00    -0.270 OA
ATOM     11  O   UNL     1     -36.747  19.302  -1.006  0.00  0.00    -0.270 OA
ATOM     12  N   UNL     1     -38.293  20.288   0.419  0.00  0.00    -0.248 N 
ATOM     13  C   UNL     1     -36.849  21.689   1.495  0.00  0.00    +0.059 C 
ATOM     14  C   UNL     1     -36.130  20.990   0.597  0.00  0.00    +0.059 C 
ATOM     15  C   UNL     1     -38.261  21.240   1.394  0.00  0.00    +0.252 C 
ATOM     16  C   UNL     1     -37.057  20.075  -0.114  0.00  0.00    +0.252 C 
ATOM     17  H   UNL     1     -39.108  19.814   0.136  0.00  0.00    +0.158 HD
BRANCH  14  19
ATOM     18  N   UNL     1     -32.791  21.846  -0.435  0.00  0.00    -0.284 N 
ATOM     19  C   UNL     1     -34.734  21.061   0.297  0.00  0.00    +0.021 C 
ATOM     20  C   UNL     1     -33.733  20.080   0.550  0.00  0.00    +0.015 C 
ATOM     21  C   UNL     1     -32.524  20.599   0.081  0.00  0.00    +0.052 C 
ATOM     22  C   UNL     1     -34.124  22.135  -0.310  0.00  0.00    +0.066 C 
ATOM     23  C   UNL     1     -33.741  18.798   1.134  0.00  0.00    +0.001 C 
ATOM     24  C   UNL     1     -31.317  19.896   0.168  0.00  0.00    +0.015 C 
ATOM     25  C   UNL     1     -31.817  22.738  -1.027  0.00  0.00    +0.117 C 
ATOM     26  C   UNL     1     -32.542  18.084   1.228  0.00  0.00    +0.000 C 
ATOM     27  C   UNL     1     -31.350  18.626   0.752  0.00  0.00    +0.001 C 
ENDBRANCH  14  19
ENDBRANCH   2  13
BRANCH   1  28
ATOM     28  C   UNL     1     -35.826  26.104   3.441  0.00  0.00    +0.096 C 
BRANCH  28  29
ATOM     29  C   UNL     1     -34.410  26.585   3.123  0.00  0.00    +0.034 C 
BRANCH  29  30
ATOM     30  C   UNL     1     -33.643  26.896   4.404  0.00  0.00    +0.067 C 
BRANCH  30  31
ATOM     31  S   UNL     1     -32.324  28.103   4.086  0.00  0.00    -0.081 S 
BRANCH  31  34
ATOM     32  N   UNL     1     -32.138  29.847   6.054  0.00  0.00    -0.338 N 
ATOM     33  N   UNL     1     -31.287  27.691   6.506  0.00  0.00    -0.280 NA
ATOM     34  C   UNL     1     -31.852  28.553   5.721  0.00  0.00    +0.144 C 
ATOM     35  H   UNL     1     -32.570  30.440   5.397  0.00  0.00    +0.144 HD
ATOM     36  H   UNL     1     -31.911  30.188   6.949  0.00  0.00    +0.144 HD
ATOM     37  H   UNL     1     -31.116  26.775   6.187  0.00  0.00    +0.189 HD
ENDBRANCH  31  34
ENDBRANCH  30  31
ENDBRANCH  29  30
ENDBRANCH  28  29
ENDBRANCH   1  28
TORSDOF 7
ENDMDL
MODEL 3
REMARK VINA RESULT:      -7.5      2.046      2.544
REMARK  Name = 5083
REMARK  7 active torsions:
REMARK  status: ('A' for Active; 'I' for Inactive)
REMARK    1  A    between atoms: N_1  and  C_28
REMARK    2  A    between atoms: C_2  and  C_13
REMARK    3  A    between atoms: C_14  and  C_19
REMARK    4  A    between atoms: C_28  and  C_29
REMARK    5  A    between atoms: C_29  and  C_30
REMARK    6  A    between atoms: C_30  and  S_31
REMARK    7  A    between atoms: S_31  and  C_34
REMARK                            x       y       z     vdW  Elec       q    Type
REMARK                         _______ _______ _______ _____ _____    ______ ____
ROOT
ATOM      1  N   UNL     1     -36.430  24.674   3.262  0.00  0.00    -0.286 N 
ATOM      2  C   UNL     1     -36.730  22.664   2.363  0.00  0.00    +0.021 C 
ATOM      3  C   UNL     1     -36.101  22.497   3.631  0.00  0.00    +0.015 C 
ATOM      4  C   UNL     1     -35.925  23.772   4.173  0.00  0.00    +0.052 C 
ATOM      5  C   UNL     1     -36.919  24.014   2.167  0.00  0.00    +0.066 C 
ATOM      6  C   UNL     1     -35.664  21.380   4.369  0.00  0.00    +0.001 C 
ATOM      7  C   UNL     1     -35.330  23.987   5.422  0.00  0.00    +0.015 C 
ATOM      8  C   UNL     1     -35.069  21.579   5.620  0.00  0.00    +0.000 C 
ATOM      9  C   UNL     1     -34.905  22.863   6.136  0.00  0.00    +0.001 C 
ENDROOT
BRANCH   2  13
ATOM     10  O   UNL     1     -39.458  21.543   1.977  0.00  0.00    -0.270 OA
ATOM     11  O   UNL     1     -36.901  19.241  -1.043  0.00  0.00    -0.270 OA
ATOM     12  N   UNL     1     -38.498  20.191   0.351  0.00  0.00    -0.248 N 
ATOM     13  C   UNL     1     -37.115  21.649   1.431  0.00  0.00    +0.059 C 
ATOM     14  C   UNL     1     -36.360  20.965   0.551  0.00  0.00    +0.059 C 
ATOM     15  C   UNL     1     -38.510  21.154   1.316  0.00  0.00    +0.252 C 
ATOM     16  C   UNL     1     -37.248  20.013  -0.164  0.00  0.00    +0.252 C 
ATOM     17  H   UNL     1     -39.293  19.688   0.061  0.00  0.00    +0.158 HD
BRANCH  14  19
ATOM     18  N   UNL     1     -33.037  21.920  -0.441  0.00  0.00    -0.284 N 
ATOM     19  C   UNL     1     -34.964  21.078   0.268  0.00  0.00    +0.021 C 
ATOM     20  C   UNL     1     -33.937  20.129   0.538  0.00  0.00    +0.015 C 
ATOM     21  C   UNL     1     -32.738  20.682   0.083  0.00  0.00    +0.052 C 
ATOM     22  C   UNL     1     -34.379  22.168  -0.334  0.00  0.00    +0.066 C 
ATOM     23  C   UNL     1     -33.913  18.849   1.126  0.00  0.00    +0.001 C 
ATOM     24  C   UNL     1     -31.511  20.017   0.188  0.00  0.00    +0.015 C 
ATOM     25  C   UNL     1     -32.083  22.839  -1.023  0.00  0.00    +0.117 C 
ATOM     26  C   UNL     1     -32.694  18.172   1.239  0.00  0.00    +0.000 C 
ATOM     27  C   UNL     1     -31.513  18.749   0.776  0.00  0.00    +0.001 C 
ENDBRANCH  14  19
ENDBRANCH   2  13
BRANCH   1  28
ATOM     28  C   UNL     1     -36.451  26.111   3.425  0.00  0.00    +0.096 C 
BRANCH  28  29
ATOM     29  C   UNL     1     -35.398  26.805   2.561  0.00  0.00    +0.034 C 
BRANCH  29  30
ATOM     30  C   UNL     1     -36.030  27.909   1.718  0.00  0.00    +0.067 C 
BRANCH  30  31
ATOM     31  S   UNL     1     -34.823  29.220   1.368  0.00  0.00    -0.081 S 
BRANCH  31  34
ATOM     32  N   UNL     1     -35.488  30.643   3.485  0.00  0.00    -0.338 N 
ATOM     33  N   UNL     1     -33.403  29.541   3.601  0.00  0.00    -0.280 NA
ATOM     34  C   UNL     1     -34.500  29.845   2.983  0.00  0.00    +0.144 C 
ATOM     35  H   UNL     1     -36.294  30.826   2.949  0.00  0.00    +0.144 HD
ATOM     36  H   UNL     1     -35.396  31.037   4.382  0.00  0.00    +0.144 HD
ATOM     37  H   UNL     1     -32.740  28.957   3.167  0.00  0.00    +0.189 HD
ENDBRANCH  31  34
ENDBRANCH  30  31
ENDBRANCH  29  30
ENDBRANCH  28  29
ENDBRANCH   1  28
TORSDOF 7
ENDMDL
MODEL 4
REMARK VINA RESULT:      -7.4      1.789      5.580
REMARK  Name = 5083
REMARK  7 active torsions:
REMARK  status: ('A' for Active; 'I' for Inactive)
REMARK    1  A    between atoms: N_1  and  C_28
REMARK    2  A    between atoms: C_2  and  C_13
REMARK    3  A    between atoms: C_14  and  C_19
REMARK    4  A    between atoms: C_28  and  C_29
REMARK    5  A    between atoms: C_29  and  C_30
REMARK    6  A    between atoms: C_30  and  S_31
REMARK    7  A    between atoms: S_31  and  C_34
REMARK                            x       y       z     vdW  Elec       q    Type
REMARK                         _______ _______ _______ _____ _____    ______ ____
ROOT
ATOM      1  N   UNL     1     -32.931  21.789  -0.540  0.00  0.00    -0.286 N 
ATOM      2  C   UNL     1     -34.852  20.976   0.228  0.00  0.00    +0.021 C 
ATOM      3  C   UNL     1     -33.817  20.042   0.529  0.00  0.00    +0.015 C 
ATOM      4  C   UNL     1     -32.624  20.577   0.037  0.00  0.00    +0.052 C 
ATOM      5  C   UNL     1     -34.273  22.039  -0.429  0.00  0.00    +0.066 C 
ATOM      6  C   UNL     1     -33.784  18.791   1.175  0.00  0.00    +0.001 C 
ATOM      7  C   UNL     1     -31.395  19.920   0.158  0.00  0.00    +0.015 C 
ATOM      8  C   UNL     1     -32.561  18.122   1.304  0.00  0.00    +0.000 C 
ATOM      9  C   UNL     1     -31.386  18.679   0.802  0.00  0.00    +0.001 C 
ENDROOT
BRANCH   2  13
ATOM     10  O   UNL     1     -36.802  19.089  -0.989  0.00  0.00    -0.270 OA
ATOM     11  O   UNL     1     -39.329  21.510   1.963  0.00  0.00    -0.270 OA
ATOM     12  N   UNL     1     -38.384  20.093   0.384  0.00  0.00    -0.248 N 
ATOM     13  C   UNL     1     -36.246  20.873   0.531  0.00  0.00    +0.059 C 
ATOM     14  C   UNL     1     -36.990  21.592   1.391  0.00  0.00    +0.059 C 
ATOM     15  C   UNL     1     -37.140  19.894  -0.136  0.00  0.00    +0.252 C 
ATOM     16  C   UNL     1     -38.387  21.094   1.309  0.00  0.00    +0.252 C 
ATOM     17  H   UNL     1     -39.182  19.577   0.124  0.00  0.00    +0.158 HD
BRANCH  14  19
ATOM     18  N   UNL     1     -36.252  24.689   3.068  0.00  0.00    -0.284 N 
ATOM     19  C   UNL     1     -36.598  22.645   2.276  0.00  0.00    +0.021 C 
ATOM     20  C   UNL     1     -36.013  22.528   3.568  0.00  0.00    +0.015 C 
ATOM     21  C   UNL     1     -35.806  23.825   4.043  0.00  0.00    +0.052 C 
ATOM     22  C   UNL     1     -36.732  23.985   1.996  0.00  0.00    +0.066 C 
ATOM     23  C   UNL     1     -35.638  21.440   4.381  0.00  0.00    +0.001 C 
ATOM     24  C   UNL     1     -35.242  24.090   5.296  0.00  0.00    +0.015 C 
ATOM     25  C   UNL     1     -36.227  26.133   3.148  0.00  0.00    +0.117 C 
ATOM     26  C   UNL     1     -35.073  21.690   5.637  0.00  0.00    +0.000 C 
ATOM     27  C   UNL     1     -34.879  22.995   6.085  0.00  0.00    +0.001 C 
ENDBRANCH  14  19
ENDBRANCH   2  13
BRANCH   1  28
ATOM     28  C   UNL     1     -31.985  22.683  -1.173  0.00  0.00    +0.096 C 
BRANCH  28  29
ATOM     29  C   UNL     1     -32.549  24.094  -1.340  0.00  0.00    +0.034 C 
BRANCH  29  30
ATOM     30  C   UNL     1     -31.938  25.047  -0.318  0.00  0.00    +0.067 C 
BRANCH  30  31
ATOM     31  S   UNL     1     -33.170  25.530   0.926  0.00  0.00    -0.081 S 
BRANCH  31  34
ATOM     32  N   UNL     1     -30.827  26.158   1.959  0.00  0.00    -0.338 N 
ATOM     33  N   UNL     1     -32.646  26.144   3.466  0.00  0.00    -0.280 NA
ATOM     34  C   UNL     1     -32.144  25.989   2.282  0.00  0.00    +0.144 C 
ATOM     35  H   UNL     1     -30.526  26.021   1.032  0.00  0.00    +0.144 HD
ATOM     36  H   UNL     1     -30.179  26.417   2.653  0.00  0.00    +0.144 HD
ATOM     37  H   UNL     1     -33.608  26.002   3.614  0.00  0.00    +0.189 HD
ENDBRANCH  31  34
ENDBRANCH  30  31
ENDBRANCH  29  30
ENDBRANCH  28  29
ENDBRANCH   1  28
TORSDOF 7
ENDMDL
MODEL 5
REMARK VINA RESULT:      -7.3      3.153      7.792
REMARK  Name = 5083
REMARK  7 active torsions:
REMARK  status: ('A' for Active; 'I' for Inactive)
REMARK    1  A    between atoms: N_1  and  C_28
REMARK    2  A    between atoms: C_2  and  C_13
REMARK    3  A    between atoms: C_14  and  C_19
REMARK    4  A    between atoms: C_28  and  C_29
REMARK    5  A    between atoms: C_29  and  C_30
REMARK    6  A    between atoms: C_30  and  S_31
REMARK    7  A    between atoms: S_31  and  C_34
REMARK                            x       y       z     vdW  Elec       q    Type
REMARK                         _______ _______ _______ _____ _____    ______ ____
ROOT
ATOM      1  N   UNL     1     -35.461  20.041   1.095  0.00  0.00    -0.286 N 
ATOM      2  C   UNL     1     -36.034  21.532   2.641  0.00  0.00    +0.021 C 
ATOM      3  C   UNL     1     -37.184  21.244   1.848  0.00  0.00    +0.015 C 
ATOM      4  C   UNL     1     -36.797  20.307   0.888  0.00  0.00    +0.052 C 
ATOM      5  C   UNL     1     -34.992  20.776   2.151  0.00  0.00    +0.066 C 
ATOM      6  C   UNL     1     -38.518  21.693   1.858  0.00  0.00    +0.001 C 
ATOM      7  C   UNL     1     -37.681  19.794  -0.067  0.00  0.00    +0.015 C 
ATOM      8  C   UNL     1     -39.415  21.189   0.908  0.00  0.00    +0.000 C 
ATOM      9  C   UNL     1     -39.001  20.255  -0.038  0.00  0.00    +0.001 C 
ENDROOT
BRANCH   2  13
ATOM     10  O   UNL     1     -35.155  20.862   5.401  0.00  0.00    -0.270 OA
ATOM     11  O   UNL     1     -36.093  25.338   5.616  0.00  0.00    -0.270 OA
ATOM     12  N   UNL     1     -35.523  23.102   5.890  0.00  0.00    -0.248 N 
ATOM     13  C   UNL     1     -35.931  22.432   3.747  0.00  0.00    +0.059 C 
ATOM     14  C   UNL     1     -36.218  23.745   3.813  0.00  0.00    +0.059 C 
ATOM     15  C   UNL     1     -35.481  21.997   5.094  0.00  0.00    +0.252 C 
ATOM     16  C   UNL     1     -35.954  24.198   5.202  0.00  0.00    +0.252 C 
ATOM     17  H   UNL     1     -35.273  23.109   6.842  0.00  0.00    +0.158 HD
BRANCH  14  19
ATOM     18  N   UNL     1     -36.647  25.967   1.017  0.00  0.00    -0.284 N 
ATOM     19  C   UNL     1     -36.675  24.630   2.787  0.00  0.00    +0.021 C 
ATOM     20  C   UNL     1     -37.999  25.104   2.567  0.00  0.00    +0.015 C 
ATOM     21  C   UNL     1     -37.953  25.941   1.450  0.00  0.00    +0.052 C 
ATOM     22  C   UNL     1     -35.867  25.178   1.818  0.00  0.00    +0.066 C 
ATOM     23  C   UNL     1     -39.234  24.901   3.213  0.00  0.00    +0.001 C 
ATOM     24  C   UNL     1     -39.087  26.588   0.944  0.00  0.00    +0.015 C 
ATOM     25  C   UNL     1     -36.153  26.714  -0.120  0.00  0.00    +0.117 C 
ATOM     26  C   UNL     1     -40.376  25.540   2.719  0.00  0.00    +0.000 C 
ATOM     27  C   UNL     1     -40.302  26.371   1.602  0.00  0.00    +0.001 C 
ENDBRANCH  14  19
ENDBRANCH   2  13
BRANCH   1  28
ATOM     28  C   UNL     1     -34.656  19.120   0.321  0.00  0.00    +0.096 C 
BRANCH  28  29
ATOM     29  C   UNL     1     -33.458  18.596   1.114  0.00  0.00    +0.034 C 
BRANCH  29  30
ATOM     30  C   UNL     1     -33.030  17.224   0.604  0.00  0.00    +0.067 C 
BRANCH  30  31
ATOM     31  S   UNL     1     -33.930  16.792  -0.912  0.00  0.00    -0.081 S 
BRANCH  31  34
ATOM     32  N   UNL     1     -35.684  15.396   0.474  0.00  0.00    -0.338 N 
ATOM     33  N   UNL     1     -34.302  14.154  -0.983  0.00  0.00    -0.280 NA
ATOM     34  C   UNL     1     -34.689  15.271  -0.454  0.00  0.00    +0.144 C 
ATOM     35  H   UNL     1     -35.918  16.284   0.829  0.00  0.00    +0.144 HD
ATOM     36  H   UNL     1     -36.166  14.598   0.790  0.00  0.00    +0.144 HD
ATOM     37  H   UNL     1     -33.575  14.151  -1.648  0.00  0.00    +0.189 HD
ENDBRANCH  31  34
ENDBRANCH  30  31
ENDBRANCH  29  30
ENDBRANCH  28  29
ENDBRANCH   1  28
TORSDOF 7
ENDMDL
MODEL 6
REMARK VINA RESULT:      -7.1      0.892      1.986
REMARK  Name = 5083
REMARK  7 active torsions:
REMARK  status: ('A' for Active; 'I' for Inactive)
REMARK    1  A    between atoms: N_1  and  C_28
REMARK    2  A    between atoms: C_2  and  C_13
REMARK    3  A    between atoms: C_14  and  C_19
REMARK    4  A    between atoms: C_28  and  C_29
REMARK    5  A    between atoms: C_29  and  C_30
REMARK    6  A    between atoms: C_30  and  S_31
REMARK    7  A    between atoms: S_31  and  C_34
REMARK                            x       y       z     vdW  Elec       q    Type
REMARK                         _______ _______ _______ _____ _____    ______ ____
ROOT
ATOM      1  N   UNL     1     -34.757  24.479   2.333  0.00  0.00    -0.286 N 
ATOM      2  C   UNL     1     -35.651  22.459   2.094  0.00  0.00    +0.021 C 
ATOM      3  C   UNL     1     -35.378  22.666   3.477  0.00  0.00    +0.015 C 
ATOM      4  C   UNL     1     -34.818  23.940   3.599  0.00  0.00    +0.052 C 
ATOM      5  C   UNL     1     -35.258  23.593   1.418  0.00  0.00    +0.066 C 
ATOM      6  C   UNL     1     -35.554  21.889   4.639  0.00  0.00    +0.001 C 
ATOM      7  C   UNL     1     -34.424  24.477   4.830  0.00  0.00    +0.015 C 
ATOM      8  C   UNL     1     -35.165  22.414   5.877  0.00  0.00    +0.000 C 
ATOM      9  C   UNL     1     -34.609  23.688   5.968  0.00  0.00    +0.001 C 
ENDROOT
BRANCH   2  13
ATOM     10  O   UNL     1     -38.549  21.855   1.800  0.00  0.00    -0.270 OA
ATOM     11  O   UNL     1     -36.486  18.257  -0.139  0.00  0.00    -0.270 OA
ATOM     12  N   UNL     1     -37.869  19.898   0.749  0.00  0.00    -0.248 N 
ATOM     13  C   UNL     1     -36.226  21.305   1.473  0.00  0.00    +0.059 C 
ATOM     14  C   UNL     1     -35.620  20.242   0.913  0.00  0.00    +0.059 C 
ATOM     15  C   UNL     1     -37.693  21.094   1.378  0.00  0.00    +0.252 C 
ATOM     16  C   UNL     1     -36.677  19.317   0.433  0.00  0.00    +0.252 C 
ATOM     17  H   UNL     1     -38.748  19.503   0.547  0.00  0.00    +0.158 HD
BRANCH  14  19
ATOM     18  N   UNL     1     -32.259  18.959   0.909  0.00  0.00    -0.284 N 
ATOM     19  C   UNL     1     -34.225  19.974   0.745  0.00  0.00    +0.021 C 
ATOM     20  C   UNL     1     -33.266  20.745   0.029  0.00  0.00    +0.015 C 
ATOM     21  C   UNL     1     -32.041  20.086   0.148  0.00  0.00    +0.052 C 
ATOM     22  C   UNL     1     -33.576  18.883   1.274  0.00  0.00    +0.066 C 
ATOM     23  C   UNL     1     -33.324  21.943  -0.709  0.00  0.00    +0.001 C 
ATOM     24  C   UNL     1     -30.865  20.567  -0.438  0.00  0.00    +0.015 C 
ATOM     25  C   UNL     1     -31.253  17.985   1.276  0.00  0.00    +0.117 C 
ATOM     26  C   UNL     1     -32.156  22.436  -1.302  0.00  0.00    +0.000 C 
ATOM     27  C   UNL     1     -30.946  21.757  -1.167  0.00  0.00    +0.001 C 
ENDBRANCH  14  19
ENDBRANCH   2  13
BRANCH   1  28
ATOM     28  C   UNL     1     -34.243  25.791   2.002  0.00  0.00    +0.096 C 
BRANCH  28  29
ATOM     29  C   UNL     1     -35.196  26.570   1.094  0.00  0.00    +0.034 C 
BRANCH  29  30
ATOM     30  C   UNL     1     -36.337  27.180   1.903  0.00  0.00    +0.067 C 
BRANCH  30  31
ATOM     31  S   UNL     1     -37.906  26.346   1.529  0.00  0.00    -0.081 S 
BRANCH  31  34
ATOM     32  N   UNL     1     -39.834  25.737   3.220  0.00  0.00    -0.338 N 
ATOM     33  N   UNL     1     -37.662  25.858   4.138  0.00  0.00    -0.280 NA
ATOM     34  C   UNL     1     -38.486  25.943   3.142  0.00  0.00    +0.144 C 
ATOM     35  H   UNL     1     -40.393  25.821   2.414  0.00  0.00    +0.144 HD
ATOM     36  H   UNL     1     -40.249  25.505   4.082  0.00  0.00    +0.144 HD
ATOM     37  H   UNL     1     -36.702  26.023   3.997  0.00  0.00    +0.189 HD
ENDBRANCH  31  34
ENDBRANCH  30  31
ENDBRANCH  29  30
ENDBRANCH  28  29
ENDBRANCH   1  28
TORSDOF 7
ENDMDL
MODEL 7
REMARK VINA RESULT:      -7.1      2.688      6.996
REMARK  Name = 5083
REMARK  7 active torsions:
REMARK  status: ('A' for Active; 'I' for Inactive)
REMARK    1  A    between atoms: N_1  and  C_28
REMARK    2  A    between atoms: C_2  and  C_13
REMARK    3  A    between atoms: C_14  and  C_19
REMARK    4  A    between atoms: C_28  and  C_29
REMARK    5  A    between atoms: C_29  and  C_30
REMARK    6  A    between atoms: C_30  and  S_31
REMARK    7  A    between atoms: S_31  and  C_34
REMARK                            x       y       z     vdW  Elec       q    Type
REMARK                         _______ _______ _______ _____ _____    ______ ____
ROOT
ATOM      1  N   UNL     1     -32.447  18.960   0.828  0.00  0.00    -0.286 N 
ATOM      2  C   UNL     1     -34.423  19.964   0.669  0.00  0.00    +0.021 C 
ATOM      3  C   UNL     1     -33.450  20.787   0.031  0.00  0.00    +0.015 C 
ATOM      4  C   UNL     1     -32.221  20.134   0.145  0.00  0.00    +0.052 C 
ATOM      5  C   UNL     1     -33.773  18.848   1.148  0.00  0.00    +0.066 C 
ATOM      6  C   UNL     1     -33.500  22.028  -0.633  0.00  0.00    +0.001 C 
ATOM      7  C   UNL     1     -31.034  20.663  -0.374  0.00  0.00    +0.015 C 
ATOM      8  C   UNL     1     -32.320  22.569  -1.158  0.00  0.00    +0.000 C 
ATOM      9  C   UNL     1     -31.108  21.896  -1.029  0.00  0.00    +0.001 C 
ENDROOT
BRANCH   2  13
ATOM     10  O   UNL     1     -36.637  18.289  -0.399  0.00  0.00    -0.270 OA
ATOM     11  O   UNL     1     -38.797  21.734   1.706  0.00  0.00    -0.270 OA
ATOM     12  N   UNL     1     -38.065  19.855   0.553  0.00  0.00    -0.248 N 
ATOM     13  C   UNL     1     -35.825  20.207   0.812  0.00  0.00    +0.059 C 
ATOM     14  C   UNL     1     -36.460  21.226   1.421  0.00  0.00    +0.059 C 
ATOM     15  C   UNL     1     -36.857  19.307   0.237  0.00  0.00    +0.252 C 
ATOM     16  C   UNL     1     -37.920  21.010   1.264  0.00  0.00    +0.252 C 
ATOM     17  H   UNL     1     -38.933  19.466   0.299  0.00  0.00    +0.158 HD
BRANCH  14  19
ATOM     18  N   UNL     1     -35.147  24.381   2.546  0.00  0.00    -0.284 N 
ATOM     19  C   UNL     1     -35.918  22.341   2.132  0.00  0.00    +0.021 C 
ATOM     20  C   UNL     1     -35.551  22.409   3.506  0.00  0.00    +0.015 C 
ATOM     21  C   UNL     1     -35.070  23.699   3.739  0.00  0.00    +0.052 C 
ATOM     22  C   UNL     1     -35.658  23.569   1.569  0.00  0.00    +0.066 C 
ATOM     23  C   UNL     1     -35.580  21.493   4.576  0.00  0.00    +0.001 C 
ATOM     24  C   UNL     1     -34.617  24.122   4.994  0.00  0.00    +0.015 C 
ATOM     25  C   UNL     1     -34.752  25.757   2.336  0.00  0.00    +0.117 C 
ATOM     26  C   UNL     1     -35.131  21.900   5.837  0.00  0.00    +0.000 C 
ATOM     27  C   UNL     1     -34.657  23.195   6.040  0.00  0.00    +0.001 C 
ENDBRANCH  14  19
ENDBRANCH   2  13
BRANCH   1  28
ATOM     28  C   UNL     1     -31.441  17.975   1.164  0.00  0.00    +0.096 C 
BRANCH  28  29
ATOM     29  C   UNL     1     -31.162  17.018   0.004  0.00  0.00    +0.034 C 
BRANCH  29  30
ATOM     30  C   UNL     1     -32.128  15.838   0.031  0.00  0.00    +0.067 C 
BRANCH  30  31
ATOM     31  S   UNL     1     -33.459  16.070  -1.183  0.00  0.00    -0.081 S 
BRANCH  31  34
ATOM     32  N   UNL     1     -34.675  13.732  -1.101  0.00  0.00    -0.338 N 
ATOM     33  N   UNL     1     -35.540  15.393   0.338  0.00  0.00    -0.280 NA
ATOM     34  C   UNL     1     -34.700  14.986  -0.560  0.00  0.00    +0.144 C 
ATOM     35  H   UNL     1     -34.001  13.502  -1.781  0.00  0.00    +0.144 HD
ATOM     36  H   UNL     1     -35.330  13.058  -0.812  0.00  0.00    +0.144 HD
ATOM     37  H   UNL     1     -35.490  16.316   0.676  0.00  0.00    +0.189 HD
ENDBRANCH  31  34
ENDBRANCH  30  31
ENDBRANCH  29  30
ENDBRANCH  28  29
ENDBRANCH   1  28
TORSDOF 7
ENDMDL
MODEL 8
REMARK VINA RESULT:      -7.1      3.510      7.061
REMARK  Name = 5083
REMARK  7 active torsions:
REMARK  status: ('A' for Active; 'I' for Inactive)
REMARK    1  A    between atoms: N_1  and  C_28
REMARK    2  A    between atoms: C_2  and  C_13
REMARK    3  A    between atoms: C_14  and  C_19
REMARK    4  A    between atoms: C_28  and  C_29
REMARK    5  A    between atoms: C_29  and  C_30
REMARK    6  A    between atoms: C_30  and  S_31
REMARK    7  A    between atoms: S_31  and  C_34
REMARK                            x       y       z     vdW  Elec       q    Type
REMARK                         _______ _______ _______ _____ _____    ______ ____
ROOT
ATOM      1  N   UNL     1     -34.854  22.776   2.059  0.00  0.00    -0.286 N 
ATOM      2  C   UNL     1     -34.855  24.838   2.890  0.00  0.00    +0.021 C 
ATOM      3  C   UNL     1     -35.068  23.923   3.962  0.00  0.00    +0.015 C 
ATOM      4  C   UNL     1     -35.062  22.638   3.414  0.00  0.00    +0.052 C 
ATOM      5  C   UNL     1     -34.728  24.100   1.734  0.00  0.00    +0.066 C 
ATOM      6  C   UNL     1     -35.265  24.068   5.349  0.00  0.00    +0.001 C 
ATOM      7  C   UNL     1     -35.245  21.487   4.187  0.00  0.00    +0.015 C 
ATOM      8  C   UNL     1     -35.448  22.924   6.135  0.00  0.00    +0.000 C 
ATOM      9  C   UNL     1     -35.438  21.655   5.561  0.00  0.00    +0.001 C 
ENDROOT
BRANCH   2  13
ATOM     10  O   UNL     1     -32.738  26.453   4.213  0.00  0.00    -0.270 OA
ATOM     11  O   UNL     1     -35.605  29.596   2.523  0.00  0.00    -0.270 OA
ATOM     12  N   UNL     1     -33.943  28.311   3.513  0.00  0.00    -0.248 N 
ATOM     13  C   UNL     1     -34.781  26.265   2.951  0.00  0.00    +0.059 C 
ATOM     14  C   UNL     1     -35.630  27.189   2.464  0.00  0.00    +0.059 C 
ATOM     15  C   UNL     1     -33.678  26.980   3.641  0.00  0.00    +0.252 C 
ATOM     16  C   UNL     1     -35.096  28.528   2.819  0.00  0.00    +0.252 C 
ATOM     17  H   UNL     1     -33.372  29.027   3.876  0.00  0.00    +0.158 HD
BRANCH  14  19
ATOM     18  N   UNL     1     -38.317  27.186   0.072  0.00  0.00    -0.284 N 
ATOM     19  C   UNL     1     -36.834  27.012   1.714  0.00  0.00    +0.021 C 
ATOM     20  C   UNL     1     -37.987  26.258   2.074  0.00  0.00    +0.015 C 
ATOM     21  C   UNL     1     -38.902  26.385   1.026  0.00  0.00    +0.052 C 
ATOM     22  C   UNL     1     -37.068  27.571   0.478  0.00  0.00    +0.066 C 
ATOM     23  C   UNL     1     -38.340  25.480   3.193  0.00  0.00    +0.001 C 
ATOM     24  C   UNL     1     -40.158  25.767   1.042  0.00  0.00    +0.015 C 
ATOM     25  C   UNL     1     -38.921  27.575  -1.184  0.00  0.00    +0.117 C 
ATOM     26  C   UNL     1     -39.592  24.856   3.224  0.00  0.00    +0.000 C 
ATOM     27  C   UNL     1     -40.486  24.999   2.163  0.00  0.00    +0.001 C 
ENDBRANCH  14  19
ENDBRANCH   2  13
BRANCH   1  28
ATOM     28  C   UNL     1     -34.775  21.691   1.106  0.00  0.00    +0.096 C 
BRANCH  28  29
ATOM     29  C   UNL     1     -35.808  21.831  -0.013  0.00  0.00    +0.034 C 
BRANCH  29  30
ATOM     30  C   UNL     1     -36.816  20.686   0.033  0.00  0.00    +0.067 C 
BRANCH  30  31
ATOM     31  S   UNL     1     -38.467  21.265  -0.452  0.00  0.00    -0.081 S 
BRANCH  31  34
ATOM     32  N   UNL     1     -38.517  21.129   2.180  0.00  0.00    -0.338 N 
ATOM     33  N   UNL     1     -40.622  21.245   1.116  0.00  0.00    -0.280 NA
ATOM     34  C   UNL     1     -39.327  21.209   1.084  0.00  0.00    +0.144 C 
ATOM     35  H   UNL     1     -37.539  21.106   2.069  0.00  0.00    +0.144 HD
ATOM     36  H   UNL     1     -38.910  21.094   3.082  0.00  0.00    +0.144 HD
ATOM     37  H   UNL     1     -41.133  21.302   0.277  0.00  0.00    +0.189 HD
ENDBRANCH  31  34
ENDBRANCH  30  31
ENDBRANCH  29  30
ENDBRANCH  28  29
ENDBRANCH   1  28
TORSDOF 7
ENDMDL
MODEL 9
REMARK VINA RESULT:      -7.1      3.423      6.259
REMARK  Name = 5083
REMARK  7 active torsions:
REMARK  status: ('A' for Active; 'I' for Inactive)
REMARK    1  A    between atoms: N_1  and  C_28
REMARK    2  A    between atoms: C_2  and  C_13
REMARK    3  A    between atoms: C_14  and  C_19
REMARK    4  A    between atoms: C_28  and  C_29
REMARK    5  A    between atoms: C_29  and  C_30
REMARK    6  A    between atoms: C_30  and  S_31
REMARK    7  A    between atoms: S_31  and  C_34
REMARK                            x       y       z     vdW  Elec       q    Type
REMARK                         _______ _______ _______ _____ _____    ______ ____
ROOT
ATOM      1  N   UNL     1     -34.111  24.908   2.025  0.00  0.00    -0.286 N 
ATOM      2  C   UNL     1     -35.843  23.596   2.496  0.00  0.00    +0.021 C 
ATOM      3  C   UNL     1     -35.510  24.338   3.668  0.00  0.00    +0.015 C 
ATOM      4  C   UNL     1     -34.422  25.152   3.344  0.00  0.00    +0.052 C 
ATOM      5  C   UNL     1     -34.963  23.971   1.504  0.00  0.00    +0.066 C 
ATOM      6  C   UNL     1     -36.034  24.393   4.974  0.00  0.00    +0.001 C 
ATOM      7  C   UNL     1     -33.829  26.021   4.266  0.00  0.00    +0.015 C 
ATOM      8  C   UNL     1     -35.450  25.259   5.907  0.00  0.00    +0.000 C 
ATOM      9  C   UNL     1     -34.365  26.059   5.556  0.00  0.00    +0.001 C 
ENDROOT
BRANCH   2  13
ATOM     10  O   UNL     1     -35.541  20.638   2.471  0.00  0.00    -0.270 OA
ATOM     11  O   UNL     1     -40.029  21.278   1.833  0.00  0.00    -0.270 OA
ATOM     12  N   UNL     1     -37.838  20.568   2.136  0.00  0.00    -0.248 N 
ATOM     13  C   UNL     1     -36.886  22.632   2.332  0.00  0.00    +0.059 C 
ATOM     14  C   UNL     1     -38.203  22.820   2.133  0.00  0.00    +0.059 C 
ATOM     15  C   UNL     1     -36.631  21.169   2.332  0.00  0.00    +0.252 C 
ATOM     16  C   UNL     1     -38.839  21.485   2.006  0.00  0.00    +0.252 C 
ATOM     17  H   UNL     1     -37.971  19.593   2.093  0.00  0.00    +0.158 HD
BRANCH  14  19
ATOM     18  N   UNL     1     -40.326  25.681   2.637  0.00  0.00    -0.284 N 
ATOM     19  C   UNL     1     -38.948  24.039   2.063  0.00  0.00    +0.021 C 
ATOM     20  C   UNL     1     -38.970  24.991   1.005  0.00  0.00    +0.015 C 
ATOM     21  C   UNL     1     -39.843  26.011   1.392  0.00  0.00    +0.052 C 
ATOM     22  C   UNL     1     -39.791  24.491   3.052  0.00  0.00    +0.066 C 
ATOM     23  C   UNL     1     -38.331  25.083  -0.246  0.00  0.00    +0.001 C 
ATOM     24  C   UNL     1     -40.108  27.124   0.585  0.00  0.00    +0.015 C 
ATOM     25  C   UNL     1     -41.263  26.467   3.411  0.00  0.00    +0.117 C 
ATOM     26  C   UNL     1     -38.585  26.189  -1.064  0.00  0.00    +0.000 C 
ATOM     27  C   UNL     1     -39.461  27.193  -0.653  0.00  0.00    +0.001 C 
ENDBRANCH  14  19
ENDBRANCH   2  13
BRANCH   1  28
ATOM     28  C   UNL     1     -33.045  25.542   1.281  0.00  0.00    +0.096 C 
BRANCH  28  29
ATOM     29  C   UNL     1     -33.578  26.466   0.184  0.00  0.00    +0.034 C 
BRANCH  29  30
ATOM     30  C   UNL     1     -33.379  27.930   0.565  0.00  0.00    +0.067 C 
BRANCH  30  31
ATOM     31  S   UNL     1     -34.951  28.834   0.481  0.00  0.00    -0.081 S 
BRANCH  31  34
ATOM     32  N   UNL     1     -36.641  27.562   2.054  0.00  0.00    -0.338 N 
ATOM     33  N   UNL     1     -35.199  29.098   3.122  0.00  0.00    -0.280 NA
ATOM     34  C   UNL     1     -35.641  28.492   2.065  0.00  0.00    +0.144 C 
ATOM     35  H   UNL     1     -36.919  27.148   1.206  0.00  0.00    +0.144 HD
ATOM     36  H   UNL     1     -37.085  27.306   2.894  0.00  0.00    +0.144 HD
ATOM     37  H   UNL     1     -34.473  29.758   3.043  0.00  0.00    +0.189 HD
ENDBRANCH  31  34
ENDBRANCH  30  31
ENDBRANCH  29  30
ENDBRANCH  28  29
ENDBRANCH   1  28
TORSDOF 7
ENDMDL
