MODEL 1
REMARK VINA RESULT:      -7.0      0.000      0.000
REMARK  Name = 5486995
REMARK  8 active torsions:
REMARK  status: ('A' for Active; 'I' for Inactive)
REMARK    1  A    between atoms: C_3  and  O_18
REMARK    2  A    between atoms: C_12  and  O_16
REMARK    3  A    between atoms: O_18  and  C_24
REMARK    4  A    between atoms: C_20  and  O_25
REMARK    5  A    between atoms: C_21  and  O_27
REMARK    6  A    between atoms: C_22  and  O_29
REMARK    7  A    between atoms: C_23  and  C_31
REMARK    8  A    between atoms: C_31  and  O_32
REMARK                            x       y       z     vdW  Elec       q    Type
REMARK                         _______ _______ _______ _____ _____    ______ ____
ROOT
ATOM      1  O   UNL     1     -33.652  25.855   6.128  0.00  0.00    -0.453 OA
ATOM      2  O   UNL     1     -33.303  26.720   2.145  0.00  0.00    -0.286 OA
ATOM      3  C   UNL     1     -35.306  23.228   3.353  0.00  0.00    +0.142 C 
ATOM      4  C   UNL     1     -34.653  24.368   2.887  0.00  0.00    +0.043 C 
ATOM      5  C   UNL     1     -34.091  25.263   3.800  0.00  0.00    +0.077 A 
ATOM      6  C   UNL     1     -35.394  22.982   4.723  0.00  0.00    +0.040 C 
ATOM      7  C   UNL     1     -34.178  25.023   5.172  0.00  0.00    +0.148 A 
ATOM      8  C   UNL     1     -34.832  23.879   5.633  0.00  0.00    +0.041 C 
ATOM      9  C   UNL     1     -33.398  26.476   3.338  0.00  0.00    +0.204 A 
ATOM     10  C   UNL     1     -32.841  27.353   4.378  0.00  0.00    +0.107 A 
ATOM     11  C   UNL     1     -33.000  26.992   5.716  0.00  0.00    +0.151 A 
ATOM     12  C   UNL     1     -32.164  28.526   4.036  0.00  0.00    +0.140 C 
ATOM     13  C   UNL     1     -32.480  27.811   6.720  0.00  0.00    +0.038 C 
ATOM     14  C   UNL     1     -31.646  29.341   5.043  0.00  0.00    +0.037 C 
ATOM     15  C   UNL     1     -31.803  28.984   6.383  0.00  0.00    +0.006 C 
ENDROOT
BRANCH  12  16
ATOM     16  O   UNL     1     -31.985  28.921   2.745  0.00  0.00    -0.505 OA
ATOM     17  H   UNL     1     -31.463  29.676   2.554  0.00  0.00    +0.292 HD
ENDBRANCH  12  16
BRANCH   3  18
ATOM     18  O   UNL     1     -35.856  22.351   2.469  0.00  0.00    -0.451 OA
BRANCH  18  24
ATOM     19  O   UNL     1     -37.588  23.913   2.484  0.00  0.00    -0.316 OA
ATOM     20  C   UNL     1     -39.481  21.952   1.582  0.00  0.00    +0.173 C 
ATOM     21  C   UNL     1     -39.910  23.310   2.138  0.00  0.00    +0.169 C 
ATOM     22  C   UNL     1     -38.081  21.574   2.064  0.00  0.00    +0.210 C 
ATOM     23  C   UNL     1     -38.819  24.358   1.910  0.00  0.00    +0.177 C 
ATOM     24  C   UNL     1     -37.096  22.726   1.869  0.00  0.00    +0.318 C 
BRANCH  20  25
ATOM     25  O   UNL     1     -40.420  20.973   2.034  0.00  0.00    -0.379 OA
ATOM     26  H   UNL     1     -40.349  20.179   1.481  0.00  0.00    +0.211 HD
ENDBRANCH  20  25
BRANCH  21  27
ATOM     27  O   UNL     1     -41.108  23.728   1.489  0.00  0.00    -0.379 OA
ATOM     28  H   UNL     1     -41.875  23.441   2.009  0.00  0.00    +0.211 HD
ENDBRANCH  21  27
BRANCH  22  29
ATOM     29  O   UNL     1     -37.610  20.451   1.318  0.00  0.00    -0.377 OA
ATOM     30  H   UNL     1     -38.351  20.047   0.840  0.00  0.00    +0.211 HD
ENDBRANCH  22  29
BRANCH  23  31
ATOM     31  C   UNL     1     -39.173  25.692   2.559  0.00  0.00    +0.169 C 
BRANCH  31  32
ATOM     32  O   UNL     1     -39.984  25.441   3.693  0.00  0.00    -0.379 OA
ATOM     33  H   UNL     1     -40.567  26.201   3.848  0.00  0.00    +0.211 HD
ENDBRANCH  31  32
ENDBRANCH  23  31
ENDBRANCH  18  24
ENDBRANCH   3  18
TORSDOF 8
ENDMDL
MODEL 2
REMARK VINA RESULT:      -6.9      2.122      8.100
REMARK  Name = 5486995
REMARK  8 active torsions:
REMARK  status: ('A' for Active; 'I' for Inactive)
REMARK    1  A    between atoms: C_3  and  O_18
REMARK    2  A    between atoms: C_12  and  O_16
REMARK    3  A    between atoms: O_18  and  C_24
REMARK    4  A    between atoms: C_20  and  O_25
REMARK    5  A    between atoms: C_21  and  O_27
REMARK    6  A    between atoms: C_22  and  O_29
REMARK    7  A    between atoms: C_23  and  C_31
REMARK    8  A    between atoms: C_31  and  O_32
REMARK                            x       y       z     vdW  Elec       q    Type
REMARK                         _______ _______ _______ _____ _____    ______ ____
ROOT
ATOM      1  O   UNL     1     -37.967  24.100   3.746  0.00  0.00    -0.453 OA
ATOM      2  O   UNL     1     -36.831  27.565   1.891  0.00  0.00    -0.286 OA
ATOM      3  C   UNL     1     -34.219  25.700   4.604  0.00  0.00    +0.142 C 
ATOM      4  C   UNL     1     -35.039  26.368   3.696  0.00  0.00    +0.043 C 
ATOM      5  C   UNL     1     -36.300  25.849   3.393  0.00  0.00    +0.077 A 
ATOM      6  C   UNL     1     -34.658  24.521   5.208  0.00  0.00    +0.040 C 
ATOM      7  C   UNL     1     -36.743  24.670   3.994  0.00  0.00    +0.148 A 
ATOM      8  C   UNL     1     -35.919  24.006   4.903  0.00  0.00    +0.041 C 
ATOM      9  C   UNL     1     -37.186  26.532   2.437  0.00  0.00    +0.204 A 
ATOM     10  C   UNL     1     -38.492  25.905   2.187  0.00  0.00    +0.107 A 
ATOM     11  C   UNL     1     -38.809  24.723   2.858  0.00  0.00    +0.151 A 
ATOM     12  C   UNL     1     -39.402  26.480   1.297  0.00  0.00    +0.140 C 
ATOM     13  C   UNL     1     -40.043  24.111   2.635  0.00  0.00    +0.038 C 
ATOM     14  C   UNL     1     -40.635  25.865   1.078  0.00  0.00    +0.037 C 
ATOM     15  C   UNL     1     -40.955  24.682   1.745  0.00  0.00    +0.006 C 
ENDROOT
BRANCH  12  16
ATOM     16  O   UNL     1     -39.138  27.632   0.619  0.00  0.00    -0.505 OA
ATOM     17  H   UNL     1     -39.713  27.915  -0.066  0.00  0.00    +0.292 HD
ENDBRANCH  12  16
BRANCH   3  18
ATOM     18  O   UNL     1     -32.989  26.199   4.905  0.00  0.00    -0.451 OA
BRANCH  18  24
ATOM     19  O   UNL     1     -32.324  28.235   3.980  0.00  0.00    -0.316 OA
ATOM     20  C   UNL     1     -31.741  29.321   6.574  0.00  0.00    +0.173 C 
ATOM     21  C   UNL     1     -31.282  29.995   5.282  0.00  0.00    +0.169 C 
ATOM     22  C   UNL     1     -32.017  27.834   6.355  0.00  0.00    +0.210 C 
ATOM     23  C   UNL     1     -32.225  29.654   4.126  0.00  0.00    +0.177 C 
ATOM     24  C   UNL     1     -32.896  27.607   5.125  0.00  0.00    +0.318 C 
BRANCH  20  25
ATOM     25  O   UNL     1     -30.704  29.474   7.546  0.00  0.00    -0.379 OA
ATOM     26  H   UNL     1     -30.476  30.413   7.629  0.00  0.00    +0.211 HD
ENDBRANCH  20  25
BRANCH  21  27
ATOM     27  O   UNL     1     -31.258  31.407   5.469  0.00  0.00    -0.379 OA
ATOM     28  H   UNL     1     -30.344  31.700   5.613  0.00  0.00    +0.211 HD
ENDBRANCH  21  27
BRANCH  22  29
ATOM     29  O   UNL     1     -32.697  27.305   7.493  0.00  0.00    -0.377 OA
ATOM     30  H   UNL     1     -33.515  27.805   7.643  0.00  0.00    +0.211 HD
ENDBRANCH  22  29
BRANCH  23  31
ATOM     31  C   UNL     1     -31.723  30.219   2.801  0.00  0.00    +0.169 C 
BRANCH  31  32
ATOM     32  O   UNL     1     -32.175  31.556   2.681  0.00  0.00    -0.379 OA
ATOM     33  H   UNL     1     -33.102  31.559   2.393  0.00  0.00    +0.211 HD
ENDBRANCH  31  32
ENDBRANCH  23  31
ENDBRANCH  18  24
ENDBRANCH   3  18
TORSDOF 8
ENDMDL
MODEL 3
REMARK VINA RESULT:      -6.9      3.049      8.634
REMARK  Name = 5486995
REMARK  8 active torsions:
REMARK  status: ('A' for Active; 'I' for Inactive)
REMARK    1  A    between atoms: C_3  and  O_18
REMARK    2  A    between atoms: C_12  and  O_16
REMARK    3  A    between atoms: O_18  and  C_24
REMARK    4  A    between atoms: C_20  and  O_25
REMARK    5  A    between atoms: C_21  and  O_27
REMARK    6  A    between atoms: C_22  and  O_29
REMARK    7  A    between atoms: C_23  and  C_31
REMARK    8  A    between atoms: C_31  and  O_32
REMARK                            x       y       z     vdW  Elec       q    Type
REMARK                         _______ _______ _______ _____ _____    ______ ____
ROOT
ATOM      1  O   UNL     1     -39.275  19.596  -0.530  0.00  0.00    -0.453 OA
ATOM      2  O   UNL     1     -35.703  19.763   1.456  0.00  0.00    -0.286 OA
ATOM      3  C   UNL     1     -38.618  22.709   2.157  0.00  0.00    +0.142 C 
ATOM      4  C   UNL     1     -37.610  21.765   1.969  0.00  0.00    +0.043 C 
ATOM      5  C   UNL     1     -37.809  20.712   1.072  0.00  0.00    +0.077 A 
ATOM      6  C   UNL     1     -39.817  22.603   1.451  0.00  0.00    +0.040 C 
ATOM      7  C   UNL     1     -39.007  20.601   0.365  0.00  0.00    +0.148 A 
ATOM      8  C   UNL     1     -40.012  21.550   0.557  0.00  0.00    +0.041 C 
ATOM      9  C   UNL     1     -36.764  19.700   0.855  0.00  0.00    +0.204 A 
ATOM     10  C   UNL     1     -37.071  18.632  -0.110  0.00  0.00    +0.107 A 
ATOM     11  C   UNL     1     -38.312  18.642  -0.748  0.00  0.00    +0.151 A 
ATOM     12  C   UNL     1     -36.141  17.627  -0.383  0.00  0.00    +0.140 C 
ATOM     13  C   UNL     1     -38.624  17.638  -1.666  0.00  0.00    +0.038 C 
ATOM     14  C   UNL     1     -36.458  16.627  -1.302  0.00  0.00    +0.037 C 
ATOM     15  C   UNL     1     -37.697  16.631  -1.942  0.00  0.00    +0.006 C 
ENDROOT
BRANCH  12  16
ATOM     16  O   UNL     1     -34.918  17.576   0.215  0.00  0.00    -0.505 OA
ATOM     17  H   UNL     1     -34.643  16.793   0.652  0.00  0.00    +0.292 HD
ENDBRANCH  12  16
BRANCH   3  18
ATOM     18  O   UNL     1     -38.431  23.738   3.028  0.00  0.00    -0.451 OA
BRANCH  18  24
ATOM     19  O   UNL     1     -36.765  23.370   4.619  0.00  0.00    -0.316 OA
ATOM     20  C   UNL     1     -35.599  25.946   4.119  0.00  0.00    +0.173 C 
ATOM     21  C   UNL     1     -35.219  25.097   5.332  0.00  0.00    +0.169 C 
ATOM     22  C   UNL     1     -36.971  25.551   3.574  0.00  0.00    +0.210 C 
ATOM     23  C   UNL     1     -35.418  23.608   5.036  0.00  0.00    +0.177 C 
ATOM     24  C   UNL     1     -37.085  24.037   3.401  0.00  0.00    +0.318 C 
BRANCH  20  25
ATOM     25  O   UNL     1     -35.626  27.315   4.530  0.00  0.00    -0.379 OA
ATOM     26  H   UNL     1     -36.400  27.467   5.095  0.00  0.00    +0.211 HD
ENDBRANCH  20  25
BRANCH  21  27
ATOM     27  O   UNL     1     -33.855  25.333   5.665  0.00  0.00    -0.379 OA
ATOM     28  H   UNL     1     -33.587  24.734   6.380  0.00  0.00    +0.211 HD
ENDBRANCH  21  27
BRANCH  22  29
ATOM     29  O   UNL     1     -37.168  26.163   2.299  0.00  0.00    -0.377 OA
ATOM     30  H   UNL     1     -37.189  27.127   2.403  0.00  0.00    +0.211 HD
ENDBRANCH  22  29
BRANCH  23  31
ATOM     31  C   UNL     1     -35.159  22.748   6.268  0.00  0.00    +0.169 C 
BRANCH  31  32
ATOM     32  O   UNL     1     -36.009  21.616   6.214  0.00  0.00    -0.379 OA
ATOM     33  H   UNL     1     -36.044  21.280   5.304  0.00  0.00    +0.211 HD
ENDBRANCH  31  32
ENDBRANCH  23  31
ENDBRANCH  18  24
ENDBRANCH   3  18
TORSDOF 8
ENDMDL
MODEL 4
REMARK VINA RESULT:      -6.9      2.131      3.810
REMARK  Name = 5486995
REMARK  8 active torsions:
REMARK  status: ('A' for Active; 'I' for Inactive)
REMARK    1  A    between atoms: C_3  and  O_18
REMARK    2  A    between atoms: C_12  and  O_16
REMARK    3  A    between atoms: O_18  and  C_24
REMARK    4  A    between atoms: C_20  and  O_25
REMARK    5  A    between atoms: C_21  and  O_27
REMARK    6  A    between atoms: C_22  and  O_29
REMARK    7  A    between atoms: C_23  and  C_31
REMARK    8  A    between atoms: C_31  and  O_32
REMARK                            x       y       z     vdW  Elec       q    Type
REMARK                         _______ _______ _______ _____ _____    ______ ____
ROOT
ATOM      1  O   UNL     1     -33.495  26.097   5.991  0.00  0.00    -0.453 OA
ATOM      2  O   UNL     1     -33.490  27.461   2.134  0.00  0.00    -0.286 OA
ATOM      3  C   UNL     1     -35.394  23.830   3.059  0.00  0.00    +0.142 C 
ATOM      4  C   UNL     1     -34.780  25.025   2.686  0.00  0.00    +0.043 C 
ATOM      5  C   UNL     1     -34.137  25.801   3.654  0.00  0.00    +0.077 A 
ATOM      6  C   UNL     1     -35.364  23.413   4.390  0.00  0.00    +0.040 C 
ATOM      7  C   UNL     1     -34.105  25.389   4.986  0.00  0.00    +0.148 A 
ATOM      8  C   UNL     1     -34.721  24.191   5.354  0.00  0.00    +0.041 C 
ATOM      9  C   UNL     1     -33.482  27.067   3.290  0.00  0.00    +0.204 A 
ATOM     10  C   UNL     1     -32.833  27.810   4.381  0.00  0.00    +0.107 A 
ATOM     11  C   UNL     1     -32.877  27.281   5.672  0.00  0.00    +0.151 A 
ATOM     12  C   UNL     1     -32.184  29.021   4.133  0.00  0.00    +0.140 C 
ATOM     13  C   UNL     1     -32.268  27.970   6.722  0.00  0.00    +0.038 C 
ATOM     14  C   UNL     1     -31.577  29.706   5.186  0.00  0.00    +0.037 C 
ATOM     15  C   UNL     1     -31.618  29.181   6.478  0.00  0.00    +0.006 C 
ENDROOT
BRANCH  12  16
ATOM     16  O   UNL     1     -32.115  29.577   2.892  0.00  0.00    -0.505 OA
ATOM     17  H   UNL     1     -32.198  30.505   2.789  0.00  0.00    +0.292 HD
ENDBRANCH  12  16
BRANCH   3  18
ATOM     18  O   UNL     1     -36.022  23.068   2.123  0.00  0.00    -0.451 OA
BRANCH  18  24
ATOM     19  O   UNL     1     -34.492  21.524   1.275  0.00  0.00    -0.316 OA
ATOM     20  C   UNL     1     -36.483  19.457   1.208  0.00  0.00    +0.173 C 
ATOM     21  C   UNL     1     -35.136  19.320   0.498  0.00  0.00    +0.169 C 
ATOM     22  C   UNL     1     -36.838  20.924   1.445  0.00  0.00    +0.210 C 
ATOM     23  C   UNL     1     -34.067  20.162   1.198  0.00  0.00    +0.177 C 
ATOM     24  C   UNL     1     -35.667  21.686   2.065  0.00  0.00    +0.318 C 
BRANCH  20  25
ATOM     25  O   UNL     1     -37.481  18.853   0.381  0.00  0.00    -0.379 OA
ATOM     26  H   UNL     1     -37.975  19.546  -0.086  0.00  0.00    +0.211 HD
ENDBRANCH  20  25
BRANCH  21  27
ATOM     27  O   UNL     1     -34.737  17.953   0.503  0.00  0.00    -0.379 OA
ATOM     28  H   UNL     1     -35.523  17.385   0.533  0.00  0.00    +0.211 HD
ENDBRANCH  21  27
BRANCH  22  29
ATOM     29  O   UNL     1     -37.948  21.005   2.339  0.00  0.00    -0.377 OA
ATOM     30  H   UNL     1     -37.723  20.564   3.174  0.00  0.00    +0.211 HD
ENDBRANCH  22  29
BRANCH  23  31
ATOM     31  C   UNL     1     -32.743  20.136   0.442  0.00  0.00    +0.169 C 
BRANCH  31  32
ATOM     32  O   UNL     1     -31.983  19.032   0.901  0.00  0.00    -0.379 OA
ATOM     33  H   UNL     1     -31.609  19.237   1.772  0.00  0.00    +0.211 HD
ENDBRANCH  31  32
ENDBRANCH  23  31
ENDBRANCH  18  24
ENDBRANCH   3  18
TORSDOF 8
ENDMDL
MODEL 5
REMARK VINA RESULT:      -6.8      1.758      8.302
REMARK  Name = 5486995
REMARK  8 active torsions:
REMARK  status: ('A' for Active; 'I' for Inactive)
REMARK    1  A    between atoms: C_3  and  O_18
REMARK    2  A    between atoms: C_12  and  O_16
REMARK    3  A    between atoms: O_18  and  C_24
REMARK    4  A    between atoms: C_20  and  O_25
REMARK    5  A    between atoms: C_21  and  O_27
REMARK    6  A    between atoms: C_22  and  O_29
REMARK    7  A    between atoms: C_23  and  C_31
REMARK    8  A    between atoms: C_31  and  O_32
REMARK                            x       y       z     vdW  Elec       q    Type
REMARK                         _______ _______ _______ _____ _____    ______ ____
ROOT
ATOM      1  O   UNL     1     -38.005  23.998   3.569  0.00  0.00    -0.453 OA
ATOM      2  O   UNL     1     -34.672  22.499   1.731  0.00  0.00    -0.286 OA
ATOM      3  C   UNL     1     -34.275  25.510   4.637  0.00  0.00    +0.142 C 
ATOM      4  C   UNL     1     -34.338  24.512   3.665  0.00  0.00    +0.043 C 
ATOM      5  C   UNL     1     -35.579  23.991   3.292  0.00  0.00    +0.077 A 
ATOM      6  C   UNL     1     -35.445  25.984   5.231  0.00  0.00    +0.040 C 
ATOM      7  C   UNL     1     -36.752  24.461   3.883  0.00  0.00    +0.148 A 
ATOM      8  C   UNL     1     -36.683  25.460   4.855  0.00  0.00    +0.041 C 
ATOM      9  C   UNL     1     -35.677  22.937   2.270  0.00  0.00    +0.204 A 
ATOM     10  C   UNL     1     -37.028  22.455   1.947  0.00  0.00    +0.107 A 
ATOM     11  C   UNL     1     -38.117  23.015   2.617  0.00  0.00    +0.151 A 
ATOM     12  C   UNL     1     -37.221  21.457   0.989  0.00  0.00    +0.140 C 
ATOM     13  C   UNL     1     -39.409  22.572   2.327  0.00  0.00    +0.038 C 
ATOM     14  C   UNL     1     -38.514  21.019   0.702  0.00  0.00    +0.037 C 
ATOM     15  C   UNL     1     -39.606  21.574   1.370  0.00  0.00    +0.006 C 
ENDROOT
BRANCH  12  16
ATOM     16  O   UNL     1     -36.191  20.881   0.311  0.00  0.00    -0.505 OA
ATOM     17  H   UNL     1     -35.869  21.276  -0.477  0.00  0.00    +0.292 HD
ENDBRANCH  12  16
BRANCH   3  18
ATOM     18  O   UNL     1     -33.070  26.023   5.007  0.00  0.00    -0.451 OA
BRANCH  18  24
ATOM     19  O   UNL     1     -32.481  28.048   4.008  0.00  0.00    -0.316 OA
ATOM     20  C   UNL     1     -31.817  29.208   6.549  0.00  0.00    +0.173 C 
ATOM     21  C   UNL     1     -31.423  29.858   5.223  0.00  0.00    +0.169 C 
ATOM     22  C   UNL     1     -32.073  27.711   6.377  0.00  0.00    +0.210 C 
ATOM     23  C   UNL     1     -32.405  29.471   4.116  0.00  0.00    +0.177 C 
ATOM     24  C   UNL     1     -32.995  27.438   5.189  0.00  0.00    +0.318 C 
BRANCH  20  25
ATOM     25  O   UNL     1     -30.745  29.404   7.474  0.00  0.00    -0.379 OA
ATOM     26  H   UNL     1     -30.851  28.799   8.224  0.00  0.00    +0.211 HD
ENDBRANCH  20  25
BRANCH  21  27
ATOM     27  O   UNL     1     -31.419  31.274   5.375  0.00  0.00    -0.379 OA
ATOM     28  H   UNL     1     -32.222  31.646   4.977  0.00  0.00    +0.211 HD
ENDBRANCH  21  27
BRANCH  22  29
ATOM     29  O   UNL     1     -32.696  27.198   7.554  0.00  0.00    -0.377 OA
ATOM     30  H   UNL     1     -32.781  27.907   8.210  0.00  0.00    +0.211 HD
ENDBRANCH  22  29
BRANCH  23  31
ATOM     31  C   UNL     1     -31.967  30.012   2.758  0.00  0.00    +0.169 C 
BRANCH  31  32
ATOM     32  O   UNL     1     -32.362  31.369   2.665  0.00  0.00    -0.379 OA
ATOM     33  H   UNL     1     -33.087  31.451   2.025  0.00  0.00    +0.211 HD
ENDBRANCH  31  32
ENDBRANCH  23  31
ENDBRANCH  18  24
ENDBRANCH   3  18
TORSDOF 8
ENDMDL
MODEL 6
REMARK VINA RESULT:      -6.8      1.268      2.777
REMARK  Name = 5486995
REMARK  8 active torsions:
REMARK  status: ('A' for Active; 'I' for Inactive)
REMARK    1  A    between atoms: C_3  and  O_18
REMARK    2  A    between atoms: C_12  and  O_16
REMARK    3  A    between atoms: O_18  and  C_24
REMARK    4  A    between atoms: C_20  and  O_25
REMARK    5  A    between atoms: C_21  and  O_27
REMARK    6  A    between atoms: C_22  and  O_29
REMARK    7  A    between atoms: C_23  and  C_31
REMARK    8  A    between atoms: C_31  and  O_32
REMARK                            x       y       z     vdW  Elec       q    Type
REMARK                         _______ _______ _______ _____ _____    ______ ____
ROOT
ATOM      1  O   UNL     1     -32.933  26.987   5.907  0.00  0.00    -0.453 OA
ATOM      2  O   UNL     1     -33.305  29.160   2.461  0.00  0.00    -0.286 OA
ATOM      3  C   UNL     1     -35.607  25.685   2.993  0.00  0.00    +0.142 C 
ATOM      4  C   UNL     1     -34.872  26.845   2.754  0.00  0.00    +0.043 C 
ATOM      5  C   UNL     1     -33.970  27.300   3.719  0.00  0.00    +0.077 A 
ATOM      6  C   UNL     1     -35.440  24.982   4.187  0.00  0.00    +0.040 C 
ATOM      7  C   UNL     1     -33.799  26.602   4.914  0.00  0.00    +0.148 A 
ATOM      8  C   UNL     1     -34.537  25.441   5.147  0.00  0.00    +0.041 C 
ATOM      9  C   UNL     1     -33.182  28.522   3.495  0.00  0.00    +0.204 A 
ATOM     10  C   UNL     1     -32.259  28.917   4.570  0.00  0.00    +0.107 A 
ATOM     11  C   UNL     1     -32.188  28.125   5.717  0.00  0.00    +0.151 A 
ATOM     12  C   UNL     1     -31.468  30.061   4.449  0.00  0.00    +0.140 C 
ATOM     13  C   UNL     1     -31.320  28.482   6.750  0.00  0.00    +0.038 C 
ATOM     14  C   UNL     1     -30.602  30.413   5.484  0.00  0.00    +0.037 C 
ATOM     15  C   UNL     1     -30.527  29.625   6.633  0.00  0.00    +0.006 C 
ENDROOT
BRANCH  12  16
ATOM     16  O   UNL     1     -31.503  30.865   3.350  0.00  0.00    -0.505 OA
ATOM     17  H   UNL     1     -31.602  30.489   2.497  0.00  0.00    +0.292 HD
ENDBRANCH  12  16
BRANCH   3  18
ATOM     18  O   UNL     1     -36.489  25.234   2.058  0.00  0.00    -0.451 OA
BRANCH  18  24
ATOM     19  O   UNL     1     -36.947  22.958   1.828  0.00  0.00    -0.316 OA
ATOM     20  C   UNL     1     -39.754  23.393   2.249  0.00  0.00    +0.173 C 
ATOM     21  C   UNL     1     -39.201  22.073   1.712  0.00  0.00    +0.169 C 
ATOM     22  C   UNL     1     -38.777  24.543   2.005  0.00  0.00    +0.210 C 
ATOM     23  C   UNL     1     -37.767  21.848   2.198  0.00  0.00    +0.177 C 
ATOM     24  C   UNL     1     -37.362  24.173   2.447  0.00  0.00    +0.318 C 
BRANCH  20  25
ATOM     25  O   UNL     1     -40.985  23.663   1.575  0.00  0.00    -0.379 OA
ATOM     26  H   UNL     1     -40.844  24.357   0.912  0.00  0.00    +0.211 HD
ENDBRANCH  20  25
BRANCH  21  27
ATOM     27  O   UNL     1     -40.024  21.000   2.158  0.00  0.00    -0.379 OA
ATOM     28  H   UNL     1     -40.856  20.999   1.658  0.00  0.00    +0.211 HD
ENDBRANCH  21  27
BRANCH  22  29
ATOM     29  O   UNL     1     -39.195  25.686   2.752  0.00  0.00    -0.377 OA
ATOM     30  H   UNL     1     -39.293  26.444   2.155  0.00  0.00    +0.211 HD
ENDBRANCH  22  29
BRANCH  23  31
ATOM     31  C   UNL     1     -37.152  20.596   1.581  0.00  0.00    +0.169 C 
BRANCH  31  32
ATOM     32  O   UNL     1     -36.687  19.760   2.625  0.00  0.00    -0.379 OA
ATOM     33  H   UNL     1     -35.811  20.060   2.914  0.00  0.00    +0.211 HD
ENDBRANCH  31  32
ENDBRANCH  23  31
ENDBRANCH  18  24
ENDBRANCH   3  18
TORSDOF 8
ENDMDL
MODEL 7
REMARK VINA RESULT:      -6.8      4.456      8.583
REMARK  Name = 5486995
REMARK  8 active torsions:
REMARK  status: ('A' for Active; 'I' for Inactive)
REMARK    1  A    between atoms: C_3  and  O_18
REMARK    2  A    between atoms: C_12  and  O_16
REMARK    3  A    between atoms: O_18  and  C_24
REMARK    4  A    between atoms: C_20  and  O_25
REMARK    5  A    between atoms: C_21  and  O_27
REMARK    6  A    between atoms: C_22  and  O_29
REMARK    7  A    between atoms: C_23  and  C_31
REMARK    8  A    between atoms: C_31  and  O_32
REMARK                            x       y       z     vdW  Elec       q    Type
REMARK                         _______ _______ _______ _____ _____    ______ ____
ROOT
ATOM      1  O   UNL     1     -45.137  27.247   2.808  0.00  0.00    -0.453 OA
ATOM      2  O   UNL     1     -41.648  28.494   4.543  0.00  0.00    -0.286 OA
ATOM      3  C   UNL     1     -41.564  25.457   1.638  0.00  0.00    +0.142 C 
ATOM      4  C   UNL     1     -41.524  26.458   2.608  0.00  0.00    +0.043 C 
ATOM      5  C   UNL     1     -42.711  27.072   3.015  0.00  0.00    +0.077 A 
ATOM      6  C   UNL     1     -42.783  25.071   1.080  0.00  0.00    +0.040 C 
ATOM      7  C   UNL     1     -43.932  26.690   2.460  0.00  0.00    +0.148 A 
ATOM      8  C   UNL     1     -43.966  25.687   1.490  0.00  0.00    +0.041 C 
ATOM      9  C   UNL     1     -42.699  28.132   4.035  0.00  0.00    +0.204 A 
ATOM     10  C   UNL     1     -44.000  28.714   4.395  0.00  0.00    +0.107 A 
ATOM     11  C   UNL     1     -45.147  28.237   3.760  0.00  0.00    +0.151 A 
ATOM     12  C   UNL     1     -44.090  29.726   5.354  0.00  0.00    +0.140 C 
ATOM     13  C   UNL     1     -46.393  28.777   4.085  0.00  0.00    +0.038 C 
ATOM     14  C   UNL     1     -45.337  30.261   5.677  0.00  0.00    +0.037 C 
ATOM     15  C   UNL     1     -46.487  29.788   5.043  0.00  0.00    +0.006 C 
ENDROOT
BRANCH  12  16
ATOM     16  O   UNL     1     -42.999  30.224   6.000  0.00  0.00    -0.505 OA
ATOM     17  H   UNL     1     -42.140  29.934   5.761  0.00  0.00    +0.292 HD
ENDBRANCH  12  16
BRANCH   3  18
ATOM     18  O   UNL     1     -40.412  24.853   1.236  0.00  0.00    -0.451 OA
BRANCH  18  24
ATOM     19  O   UNL     1     -38.478  24.925   2.539  0.00  0.00    -0.316 OA
ATOM     20  C   UNL     1     -38.335  22.059   2.639  0.00  0.00    +0.173 C 
ATOM     21  C   UNL     1     -37.172  22.952   3.069  0.00  0.00    +0.169 C 
ATOM     22  C   UNL     1     -39.279  22.797   1.690  0.00  0.00    +0.210 C 
ATOM     23  C   UNL     1     -37.682  24.311   3.555  0.00  0.00    +0.177 C 
ATOM     24  C   UNL     1     -39.651  24.175   2.236  0.00  0.00    +0.318 C 
BRANCH  20  25
ATOM     25  O   UNL     1     -37.792  20.915   1.976  0.00  0.00    -0.379 OA
ATOM     26  H   UNL     1     -37.304  20.373   2.616  0.00  0.00    +0.211 HD
ENDBRANCH  20  25
BRANCH  21  27
ATOM     27  O   UNL     1     -36.451  22.316   4.119  0.00  0.00    -0.379 OA
ATOM     28  H   UNL     1     -36.393  21.364   3.943  0.00  0.00    +0.211 HD
ENDBRANCH  21  27
BRANCH  22  29
ATOM     29  O   UNL     1     -40.479  22.040   1.532  0.00  0.00    -0.377 OA
ATOM     30  H   UNL     1     -40.978  22.048   2.364  0.00  0.00    +0.211 HD
ENDBRANCH  22  29
BRANCH  23  31
ATOM     31  C   UNL     1     -36.534  25.262   3.878  0.00  0.00    +0.169 C 
BRANCH  31  32
ATOM     32  O   UNL     1     -37.019  26.278   4.738  0.00  0.00    -0.379 OA
ATOM     33  H   UNL     1     -37.639  25.891   5.378  0.00  0.00    +0.211 HD
ENDBRANCH  31  32
ENDBRANCH  23  31
ENDBRANCH  18  24
ENDBRANCH   3  18
TORSDOF 8
ENDMDL
MODEL 8
REMARK VINA RESULT:      -6.8      1.112      2.290
REMARK  Name = 5486995
REMARK  8 active torsions:
REMARK  status: ('A' for Active; 'I' for Inactive)
REMARK    1  A    between atoms: C_3  and  O_18
REMARK    2  A    between atoms: C_12  and  O_16
REMARK    3  A    between atoms: O_18  and  C_24
REMARK    4  A    between atoms: C_20  and  O_25
REMARK    5  A    between atoms: C_21  and  O_27
REMARK    6  A    between atoms: C_22  and  O_29
REMARK    7  A    between atoms: C_23  and  C_31
REMARK    8  A    between atoms: C_31  and  O_32
REMARK                            x       y       z     vdW  Elec       q    Type
REMARK                         _______ _______ _______ _____ _____    ______ ____
ROOT
ATOM      1  O   UNL     1     -32.342  27.440   2.770  0.00  0.00    -0.453 OA
ATOM      2  O   UNL     1     -33.692  26.518   6.520  0.00  0.00    -0.286 OA
ATOM      3  C   UNL     1     -35.110  24.358   3.205  0.00  0.00    +0.142 C 
ATOM      4  C   UNL     1     -34.681  25.037   4.345  0.00  0.00    +0.043 C 
ATOM      5  C   UNL     1     -33.752  26.073   4.221  0.00  0.00    +0.077 A 
ATOM      6  C   UNL     1     -34.616  24.715   1.950  0.00  0.00    +0.040 C 
ATOM      7  C   UNL     1     -33.255  26.434   2.969  0.00  0.00    +0.148 A 
ATOM      8  C   UNL     1     -33.689  25.752   1.831  0.00  0.00    +0.041 C 
ATOM      9  C   UNL     1     -33.280  26.806   5.407  0.00  0.00    +0.204 A 
ATOM     10  C   UNL     1     -32.304  27.880   5.172  0.00  0.00    +0.107 A 
ATOM     11  C   UNL     1     -31.890  28.136   3.864  0.00  0.00    +0.151 A 
ATOM     12  C   UNL     1     -31.798  28.632   6.234  0.00  0.00    +0.140 C 
ATOM     13  C   UNL     1     -30.963  29.150   3.617  0.00  0.00    +0.038 C 
ATOM     14  C   UNL     1     -30.873  29.645   5.983  0.00  0.00    +0.037 C 
ATOM     15  C   UNL     1     -30.456  29.904   4.677  0.00  0.00    +0.006 C 
ENDROOT
BRANCH  12  16
ATOM     16  O   UNL     1     -32.171  28.420   7.527  0.00  0.00    -0.505 OA
ATOM     17  H   UNL     1     -31.669  27.845   8.071  0.00  0.00    +0.292 HD
ENDBRANCH  12  16
BRANCH   3  18
ATOM     18  O   UNL     1     -36.014  23.347   3.316  0.00  0.00    -0.451 OA
BRANCH  18  24
ATOM     19  O   UNL     1     -37.951  24.510   2.735  0.00  0.00    -0.316 OA
ATOM     20  C   UNL     1     -39.228  22.103   1.830  0.00  0.00    +0.173 C 
ATOM     21  C   UNL     1     -39.999  23.404   2.056  0.00  0.00    +0.169 C 
ATOM     22  C   UNL     1     -37.925  22.085   2.628  0.00  0.00    +0.210 C 
ATOM     23  C   UNL     1     -39.083  24.616   1.869  0.00  0.00    +0.177 C 
ATOM     24  C   UNL     1     -37.137  23.380   2.434  0.00  0.00    +0.318 C 
BRANCH  20  25
ATOM     25  O   UNL     1     -40.059  21.018   2.250  0.00  0.00    -0.379 OA
ATOM     26  H   UNL     1     -39.522  20.367   2.728  0.00  0.00    +0.211 HD
ENDBRANCH  20  25
BRANCH  21  27
ATOM     27  O   UNL     1     -41.077  23.481   1.129  0.00  0.00    -0.379 OA
ATOM     28  H   UNL     1     -40.730  23.660   0.241  0.00  0.00    +0.211 HD
ENDBRANCH  21  27
BRANCH  22  29
ATOM     29  O   UNL     1     -37.113  20.997   2.186  0.00  0.00    -0.377 OA
ATOM     30  H   UNL     1     -36.304  20.960   2.719  0.00  0.00    +0.211 HD
ENDBRANCH  22  29
BRANCH  23  31
ATOM     31  C   UNL     1     -39.798  25.921   2.204  0.00  0.00    +0.169 C 
BRANCH  31  32
ATOM     32  O   UNL     1     -39.116  26.546   3.275  0.00  0.00    -0.379 OA
ATOM     33  H   UNL     1     -38.313  26.976   2.940  0.00  0.00    +0.211 HD
ENDBRANCH  31  32
ENDBRANCH  23  31
ENDBRANCH  18  24
ENDBRANCH   3  18
TORSDOF 8
ENDMDL
MODEL 9
REMARK VINA RESULT:      -6.8      2.340      4.345
REMARK  Name = 5486995
REMARK  8 active torsions:
REMARK  status: ('A' for Active; 'I' for Inactive)
REMARK    1  A    between atoms: C_3  and  O_18
REMARK    2  A    between atoms: C_12  and  O_16
REMARK    3  A    between atoms: O_18  and  C_24
REMARK    4  A    between atoms: C_20  and  O_25
REMARK    5  A    between atoms: C_21  and  O_27
REMARK    6  A    between atoms: C_22  and  O_29
REMARK    7  A    between atoms: C_23  and  C_31
REMARK    8  A    between atoms: C_31  and  O_32
REMARK                            x       y       z     vdW  Elec       q    Type
REMARK                         _______ _______ _______ _____ _____    ______ ____
ROOT
ATOM      1  O   UNL     1     -33.510  29.001   2.876  0.00  0.00    -0.453 OA
ATOM      2  O   UNL     1     -33.262  25.880   5.510  0.00  0.00    -0.286 OA
ATOM      3  C   UNL     1     -35.494  25.452   1.974  0.00  0.00    +0.142 C 
ATOM      4  C   UNL     1     -34.772  25.530   3.164  0.00  0.00    +0.043 C 
ATOM      5  C   UNL     1     -34.098  26.711   3.486  0.00  0.00    +0.077 A 
ATOM      6  C   UNL     1     -35.544  26.548   1.112  0.00  0.00    +0.040 C 
ATOM      7  C   UNL     1     -34.145  27.809   2.628  0.00  0.00    +0.148 A 
ATOM      8  C   UNL     1     -34.870  27.726   1.438  0.00  0.00    +0.041 C 
ATOM      9  C   UNL     1     -33.327  26.821   4.734  0.00  0.00    +0.204 A 
ATOM     10  C   UNL     1     -32.656  28.106   4.982  0.00  0.00    +0.107 A 
ATOM     11  C   UNL     1     -32.786  29.124   4.036  0.00  0.00    +0.151 A 
ATOM     12  C   UNL     1     -31.902  28.307   6.140  0.00  0.00    +0.140 C 
ATOM     13  C   UNL     1     -32.156  30.351   4.250  0.00  0.00    +0.038 C 
ATOM     14  C   UNL     1     -31.275  29.535   6.349  0.00  0.00    +0.037 C 
ATOM     15  C   UNL     1     -31.401  30.556   5.407  0.00  0.00    +0.006 C 
ENDROOT
BRANCH  12  16
ATOM     16  O   UNL     1     -31.745  27.344   7.090  0.00  0.00    -0.505 OA
ATOM     17  H   UNL     1     -30.952  27.303   7.589  0.00  0.00    +0.292 HD
ENDBRANCH  12  16
BRANCH   3  18
ATOM     18  O   UNL     1     -36.152  24.304   1.653  0.00  0.00    -0.451 OA
BRANCH  18  24
ATOM     19  O   UNL     1     -34.808  22.633   0.735  0.00  0.00    -0.316 OA
ATOM     20  C   UNL     1     -35.906  20.658   2.507  0.00  0.00    +0.173 C 
ATOM     21  C   UNL     1     -35.062  20.286   1.287  0.00  0.00    +0.169 C 
ATOM     22  C   UNL     1     -36.522  22.047   2.351  0.00  0.00    +0.210 C 
ATOM     23  C   UNL     1     -34.089  21.414   0.937  0.00  0.00    +0.177 C 
ATOM     24  C   UNL     1     -35.477  23.074   1.914  0.00  0.00    +0.318 C 
BRANCH  20  25
ATOM     25  O   UNL     1     -36.947  19.687   2.636  0.00  0.00    -0.379 OA
ATOM     26  H   UNL     1     -37.790  20.079   2.358  0.00  0.00    +0.211 HD
ENDBRANCH  20  25
BRANCH  21  27
ATOM     27  O   UNL     1     -34.327  19.099   1.566  0.00  0.00    -0.379 OA
ATOM     28  H   UNL     1     -34.704  18.358   1.066  0.00  0.00    +0.211 HD
ENDBRANCH  21  27
BRANCH  22  29
ATOM     29  O   UNL     1     -37.065  22.468   3.603  0.00  0.00    -0.377 OA
ATOM     30  H   UNL     1     -37.286  23.412   3.558  0.00  0.00    +0.211 HD
ENDBRANCH  22  29
BRANCH  23  31
ATOM     31  C   UNL     1     -33.319  21.117  -0.346  0.00  0.00    +0.169 C 
BRANCH  31  32
ATOM     32  O   UNL     1     -32.179  20.343  -0.019  0.00  0.00    -0.379 OA
ATOM     33  H   UNL     1     -31.941  19.782  -0.774  0.00  0.00    +0.211 HD
ENDBRANCH  31  32
ENDBRANCH  23  31
ENDBRANCH  18  24
ENDBRANCH   3  18
TORSDOF 8
ENDMDL
