MODEL 1
REMARK VINA RESULT:      -7.0      0.000      0.000
REMARK  Name = 5317297
REMARK  5 active torsions:
REMARK  status: ('A' for Active; 'I' for Inactive)
REMARK    1  A    between atoms: C_3  and  C_14
REMARK    2  A    between atoms: C_5  and  O_27
REMARK    3  A    between atoms: C_7  and  O_29
REMARK    4  A    between atoms: C_16  and  O_23
REMARK    5  A    between atoms: C_18  and  O_25
REMARK                            x       y       z     vdW  Elec       q    Type
REMARK                         _______ _______ _______ _____ _____    ______ ____
ROOT
ATOM      1  O   UNL     1     -39.489  23.320  -0.063  0.00  0.00    -0.421 OA
ATOM      2  O   UNL     1     -41.581  23.813   0.728  0.00  0.00    -0.244 OA
ATOM      3  C   UNL     1     -36.290  22.868   1.740  0.00  0.00    +0.043 C 
ATOM      4  C   UNL     1     -37.646  23.114   1.513  0.00  0.00    +0.038 C 
ATOM      5  C   UNL     1     -35.441  22.593   0.665  0.00  0.00    +0.168 C 
ATOM      6  C   UNL     1     -38.126  23.078   0.207  0.00  0.00    +0.152 C 
ATOM      7  C   UNL     1     -35.940  22.561  -0.639  0.00  0.00    +0.171 C 
ATOM      8  C   UNL     1     -37.291  22.805  -0.875  0.00  0.00    +0.077 C 
ATOM      9  C   UNL     1     -38.573  23.406   2.593  0.00  0.00    +0.010 C 
ATOM     10  C   UNL     1     -39.862  23.634   2.329  0.00  0.00    +0.082 C 
ATOM     11  C   UNL     1     -40.395  23.601   0.954  0.00  0.00    +0.346 C 
ENDROOT
BRANCH   3  14
ATOM     12  O   UNL     1     -34.108  25.166   5.508  0.00  0.00    -0.421 OA
ATOM     13  O   UNL     1     -33.588  27.390   5.336  0.00  0.00    -0.244 OA
ATOM     14  C   UNL     1     -35.726  22.889   3.082  0.00  0.00    +0.043 C 
ATOM     15  C   UNL     1     -35.188  24.054   3.631  0.00  0.00    +0.038 C 
ATOM     16  C   UNL     1     -35.732  21.704   3.824  0.00  0.00    +0.168 C 
ATOM     17  C   UNL     1     -34.661  24.010   4.919  0.00  0.00    +0.152 C 
ATOM     18  C   UNL     1     -35.199  21.679   5.115  0.00  0.00    +0.171 C 
ATOM     19  C   UNL     1     -34.659  22.837   5.671  0.00  0.00    +0.077 C 
ATOM     20  C   UNL     1     -35.157  25.312   2.904  0.00  0.00    +0.010 C 
ATOM     21  C   UNL     1     -34.631  26.402   3.468  0.00  0.00    +0.082 C 
ATOM     22  C   UNL     1     -34.067  26.381   4.831  0.00  0.00    +0.346 C 
BRANCH  16  23
ATOM     23  O   UNL     1     -36.253  20.555   3.302  0.00  0.00    -0.503 OA
ATOM     24  H   UNL     1     -36.628  20.558   2.442  0.00  0.00    +0.292 HD
ENDBRANCH  16  23
BRANCH  18  25
ATOM     25  O   UNL     1     -35.200  20.528   5.844  0.00  0.00    -0.503 OA
ATOM     26  H   UNL     1     -35.427  19.716   5.436  0.00  0.00    +0.292 HD
ENDBRANCH  18  25
ENDBRANCH   3  14
BRANCH   5  27
ATOM     27  O   UNL     1     -34.112  22.349   0.870  0.00  0.00    -0.503 OA
ATOM     28  H   UNL     1     -33.758  22.380   1.738  0.00  0.00    +0.292 HD
ENDBRANCH   5  27
BRANCH   7  29
ATOM     29  O   UNL     1     -35.116  22.293  -1.691  0.00  0.00    -0.503 OA
ATOM     30  H   UNL     1     -34.211  22.529  -1.648  0.00  0.00    +0.292 HD
ENDBRANCH   7  29
TORSDOF 5
ENDMDL
MODEL 2
REMARK VINA RESULT:      -6.9      0.076      6.171
REMARK  Name = 5317297
REMARK  5 active torsions:
REMARK  status: ('A' for Active; 'I' for Inactive)
REMARK    1  A    between atoms: C_3  and  C_14
REMARK    2  A    between atoms: C_5  and  O_27
REMARK    3  A    between atoms: C_7  and  O_29
REMARK    4  A    between atoms: C_16  and  O_23
REMARK    5  A    between atoms: C_18  and  O_25
REMARK                            x       y       z     vdW  Elec       q    Type
REMARK                         _______ _______ _______ _____ _____    ______ ____
ROOT
ATOM      1  O   UNL     1     -34.067  25.228   5.447  0.00  0.00    -0.421 OA
ATOM      2  O   UNL     1     -33.519  27.444   5.254  0.00  0.00    -0.244 OA
ATOM      3  C   UNL     1     -35.722  22.952   3.045  0.00  0.00    +0.043 C 
ATOM      4  C   UNL     1     -35.166  24.115   3.583  0.00  0.00    +0.038 C 
ATOM      5  C   UNL     1     -35.739  21.774   3.797  0.00  0.00    +0.168 C 
ATOM      6  C   UNL     1     -34.637  24.075   4.869  0.00  0.00    +0.152 C 
ATOM      7  C   UNL     1     -35.204  21.752   5.087  0.00  0.00    +0.171 C 
ATOM      8  C   UNL     1     -34.647  22.908   5.631  0.00  0.00    +0.077 C 
ATOM      9  C   UNL     1     -35.122  25.366   2.845  0.00  0.00    +0.010 C 
ATOM     10  C   UNL     1     -34.581  26.454   3.399  0.00  0.00    +0.082 C 
ATOM     11  C   UNL     1     -34.013  26.437   4.759  0.00  0.00    +0.346 C 
ENDROOT
BRANCH   3  14
ATOM     12  O   UNL     1     -39.498  23.348  -0.087  0.00  0.00    -0.421 OA
ATOM     13  O   UNL     1     -41.593  23.818   0.711  0.00  0.00    -0.244 OA
ATOM     14  C   UNL     1     -36.290  22.927   1.705  0.00  0.00    +0.043 C 
ATOM     15  C   UNL     1     -37.648  23.159   1.483  0.00  0.00    +0.038 C 
ATOM     16  C   UNL     1     -35.440  22.662   0.627  0.00  0.00    +0.168 C 
ATOM     17  C   UNL     1     -38.132  23.120   0.178  0.00  0.00    +0.152 C 
ATOM     18  C   UNL     1     -35.943  22.627  -0.675  0.00  0.00    +0.171 C 
ATOM     19  C   UNL     1     -37.298  22.857  -0.907  0.00  0.00    +0.077 C 
ATOM     20  C   UNL     1     -38.575  23.439   2.565  0.00  0.00    +0.010 C 
ATOM     21  C   UNL     1     -39.868  23.655   2.307  0.00  0.00    +0.082 C 
ATOM     22  C   UNL     1     -40.404  23.618   0.934  0.00  0.00    +0.346 C 
BRANCH  16  23
ATOM     23  O   UNL     1     -34.108  22.432   0.827  0.00  0.00    -0.503 OA
ATOM     24  H   UNL     1     -33.475  23.065   0.550  0.00  0.00    +0.292 HD
ENDBRANCH  16  23
BRANCH  18  25
ATOM     25  O   UNL     1     -35.121  22.369  -1.730  0.00  0.00    -0.503 OA
ATOM     26  H   UNL     1     -34.684  23.073  -2.167  0.00  0.00    +0.292 HD
ENDBRANCH  18  25
ENDBRANCH   3  14
BRANCH   5  27
ATOM     27  O   UNL     1     -36.278  20.627   3.287  0.00  0.00    -0.503 OA
ATOM     28  H   UNL     1     -37.032  20.244   3.690  0.00  0.00    +0.292 HD
ENDBRANCH   5  27
BRANCH   7  29
ATOM     29  O   UNL     1     -35.218  20.608   5.825  0.00  0.00    -0.503 OA
ATOM     30  H   UNL     1     -35.909  20.455   6.439  0.00  0.00    +0.292 HD
ENDBRANCH   7  29
TORSDOF 5
ENDMDL
MODEL 3
REMARK VINA RESULT:      -6.5      1.031      3.440
REMARK  Name = 5317297
REMARK  5 active torsions:
REMARK  status: ('A' for Active; 'I' for Inactive)
REMARK    1  A    between atoms: C_3  and  C_14
REMARK    2  A    between atoms: C_5  and  O_27
REMARK    3  A    between atoms: C_7  and  O_29
REMARK    4  A    between atoms: C_16  and  O_23
REMARK    5  A    between atoms: C_18  and  O_25
REMARK                            x       y       z     vdW  Elec       q    Type
REMARK                         _______ _______ _______ _____ _____    ______ ____
ROOT
ATOM      1  O   UNL     1     -35.288  22.152  -1.825  0.00  0.00    -0.421 OA
ATOM      2  O   UNL     1     -33.263  21.528  -2.696  0.00  0.00    -0.244 OA
ATOM      3  C   UNL     1     -36.282  22.846   1.671  0.00  0.00    +0.043 C 
ATOM      4  C   UNL     1     -35.486  22.505   0.575  0.00  0.00    +0.038 C 
ATOM      5  C   UNL     1     -37.629  23.164   1.483  0.00  0.00    +0.168 C 
ATOM      6  C   UNL     1     -36.059  22.490  -0.694  0.00  0.00    +0.152 C 
ATOM      7  C   UNL     1     -38.188  23.145   0.202  0.00  0.00    +0.171 C 
ATOM      8  C   UNL     1     -37.401  22.806  -0.897  0.00  0.00    +0.077 C 
ATOM      9  C   UNL     1     -34.080  22.164   0.713  0.00  0.00    +0.010 C 
ATOM     10  C   UNL     1     -33.357  21.845  -0.363  0.00  0.00    +0.082 C 
ATOM     11  C   UNL     1     -33.940  21.823  -1.717  0.00  0.00    +0.346 C 
ENDROOT
BRANCH   3  14
ATOM     12  O   UNL     1     -34.149  25.179   5.444  0.00  0.00    -0.421 OA
ATOM     13  O   UNL     1     -33.605  27.395   5.250  0.00  0.00    -0.244 OA
ATOM     14  C   UNL     1     -35.743  22.881   3.022  0.00  0.00    +0.043 C 
ATOM     15  C   UNL     1     -35.203  24.049   3.564  0.00  0.00    +0.038 C 
ATOM     16  C   UNL     1     -35.774  21.708   3.782  0.00  0.00    +0.168 C 
ATOM     17  C   UNL     1     -34.702  24.020   4.862  0.00  0.00    +0.152 C 
ATOM     18  C   UNL     1     -35.266  21.696   5.083  0.00  0.00    +0.171 C 
ATOM     19  C   UNL     1     -34.725  22.858   5.631  0.00  0.00    +0.077 C 
ATOM     20  C   UNL     1     -35.147  25.295   2.820  0.00  0.00    +0.010 C 
ATOM     21  C   UNL     1     -34.622  26.389   3.377  0.00  0.00    +0.082 C 
ATOM     22  C   UNL     1     -34.084  26.383   4.750  0.00  0.00    +0.346 C 
BRANCH  16  23
ATOM     23  O   UNL     1     -36.296  20.555   3.267  0.00  0.00    -0.503 OA
ATOM     24  H   UNL     1     -37.003  20.594   2.652  0.00  0.00    +0.292 HD
ENDBRANCH  16  23
BRANCH  18  25
ATOM     25  O   UNL     1     -35.292  20.556   5.828  0.00  0.00    -0.503 OA
ATOM     26  H   UNL     1     -34.577  20.351   6.396  0.00  0.00    +0.292 HD
ENDBRANCH  18  25
ENDBRANCH   3  14
BRANCH   5  27
ATOM     27  O   UNL     1     -38.422  23.502   2.543  0.00  0.00    -0.503 OA
ATOM     28  H   UNL     1     -39.169  24.054   2.413  0.00  0.00    +0.292 HD
ENDBRANCH   5  27
BRANCH   7  29
ATOM     29  O   UNL     1     -39.501  23.454   0.013  0.00  0.00    -0.503 OA
ATOM     30  H   UNL     1     -39.744  24.088  -0.632  0.00  0.00    +0.292 HD
ENDBRANCH   7  29
TORSDOF 5
ENDMDL
MODEL 4
REMARK VINA RESULT:      -6.5      1.135      6.186
REMARK  Name = 5317297
REMARK  5 active torsions:
REMARK  status: ('A' for Active; 'I' for Inactive)
REMARK    1  A    between atoms: C_3  and  C_14
REMARK    2  A    between atoms: C_5  and  O_27
REMARK    3  A    between atoms: C_7  and  O_29
REMARK    4  A    between atoms: C_16  and  O_23
REMARK    5  A    between atoms: C_18  and  O_25
REMARK                            x       y       z     vdW  Elec       q    Type
REMARK                         _______ _______ _______ _____ _____    ______ ____
ROOT
ATOM      1  O   UNL     1     -34.119  25.208   5.405  0.00  0.00    -0.421 OA
ATOM      2  O   UNL     1     -33.544  27.414   5.190  0.00  0.00    -0.244 OA
ATOM      3  C   UNL     1     -35.613  22.871   2.956  0.00  0.00    +0.043 C 
ATOM      4  C   UNL     1     -35.089  24.046   3.499  0.00  0.00    +0.038 C 
ATOM      5  C   UNL     1     -35.692  21.715   3.738  0.00  0.00    +0.168 C 
ATOM      6  C   UNL     1     -34.654  24.041   4.821  0.00  0.00    +0.152 C 
ATOM      7  C   UNL     1     -35.251  21.728   5.063  0.00  0.00    +0.171 C 
ATOM      8  C   UNL     1     -34.727  22.897   5.613  0.00  0.00    +0.077 C 
ATOM      9  C   UNL     1     -34.984  25.275   2.731  0.00  0.00    +0.010 C 
ATOM     10  C   UNL     1     -34.477  26.376   3.291  0.00  0.00    +0.082 C 
ATOM     11  C   UNL     1     -34.008  26.396   4.689  0.00  0.00    +0.346 C 
ENDROOT
BRANCH   3  14
ATOM     12  O   UNL     1     -34.920  22.041  -1.847  0.00  0.00    -0.421 OA
ATOM     13  O   UNL     1     -32.858  21.391  -2.602  0.00  0.00    -0.244 OA
ATOM     14  C   UNL     1     -36.083  22.810   1.580  0.00  0.00    +0.043 C 
ATOM     15  C   UNL     1     -35.236  22.444   0.533  0.00  0.00    +0.038 C 
ATOM     16  C   UNL     1     -37.419  23.130   1.319  0.00  0.00    +0.168 C 
ATOM     17  C   UNL     1     -35.745  22.406  -0.762  0.00  0.00    +0.152 C 
ATOM     18  C   UNL     1     -37.912  23.087   0.013  0.00  0.00    +0.171 C 
ATOM     19  C   UNL     1     -37.073  22.723  -1.039  0.00  0.00    +0.077 C 
ATOM     20  C   UNL     1     -33.841  22.101   0.748  0.00  0.00    +0.010 C 
ATOM     21  C   UNL     1     -33.066  21.756  -0.284  0.00  0.00    +0.082 C 
ATOM     22  C   UNL     1     -33.581  21.709  -1.665  0.00  0.00    +0.346 C 
BRANCH  16  23
ATOM     23  O   UNL     1     -38.262  23.493   2.331  0.00  0.00    -0.503 OA
ATOM     24  H   UNL     1     -38.200  24.349   2.709  0.00  0.00    +0.292 HD
ENDBRANCH  16  23
BRANCH  18  25
ATOM     25  O   UNL     1     -39.212  23.399  -0.248  0.00  0.00    -0.503 OA
ATOM     26  H   UNL     1     -39.549  23.311  -1.118  0.00  0.00    +0.292 HD
ENDBRANCH  18  25
ENDBRANCH   3  14
BRANCH   5  27
ATOM     27  O   UNL     1     -36.201  20.556   3.223  0.00  0.00    -0.503 OA
ATOM     28  H   UNL     1     -35.881  19.729   3.527  0.00  0.00    +0.292 HD
ENDBRANCH   5  27
BRANCH   7  29
ATOM     29  O   UNL     1     -35.326  20.605   5.831  0.00  0.00    -0.503 OA
ATOM     30  H   UNL     1     -34.556  20.267   6.243  0.00  0.00    +0.292 HD
ENDBRANCH   7  29
TORSDOF 5
ENDMDL
MODEL 5
REMARK VINA RESULT:      -6.5      2.126      3.594
REMARK  Name = 5317297
REMARK  5 active torsions:
REMARK  status: ('A' for Active; 'I' for Inactive)
REMARK    1  A    between atoms: C_3  and  C_14
REMARK    2  A    between atoms: C_5  and  O_27
REMARK    3  A    between atoms: C_7  and  O_29
REMARK    4  A    between atoms: C_16  and  O_23
REMARK    5  A    between atoms: C_18  and  O_25
REMARK                            x       y       z     vdW  Elec       q    Type
REMARK                         _______ _______ _______ _____ _____    ______ ____
ROOT
ATOM      1  O   UNL     1     -37.159  24.680  -1.436  0.00  0.00    -0.421 OA
ATOM      2  O   UNL     1     -35.777  23.526  -2.852  0.00  0.00    -0.244 OA
ATOM      3  C   UNL     1     -36.993  25.137   2.231  0.00  0.00    +0.043 C 
ATOM      4  C   UNL     1     -36.658  24.710   0.945  0.00  0.00    +0.038 C 
ATOM      5  C   UNL     1     -38.125  25.933   2.430  0.00  0.00    +0.168 C 
ATOM      6  C   UNL     1     -37.466  25.091  -0.123  0.00  0.00    +0.152 C 
ATOM      7  C   UNL     1     -38.924  26.306   1.347  0.00  0.00    +0.171 C 
ATOM      8  C   UNL     1     -38.596  25.885   0.060  0.00  0.00    +0.077 C 
ATOM      9  C   UNL     1     -35.494  23.881   0.682  0.00  0.00    +0.010 C 
ATOM     10  C   UNL     1     -35.211  23.496  -0.564  0.00  0.00    +0.082 C 
ATOM     11  C   UNL     1     -36.050  23.887  -1.712  0.00  0.00    +0.346 C 
ENDROOT
BRANCH   3  14
ATOM     12  O   UNL     1     -33.348  25.975   5.432  0.00  0.00    -0.421 OA
ATOM     13  O   UNL     1     -32.075  27.869   5.234  0.00  0.00    -0.244 OA
ATOM     14  C   UNL     1     -36.190  24.774   3.389  0.00  0.00    +0.043 C 
ATOM     15  C   UNL     1     -35.145  25.585   3.837  0.00  0.00    +0.038 C 
ATOM     16  C   UNL     1     -36.484  23.581   4.056  0.00  0.00    +0.168 C 
ATOM     17  C   UNL     1     -34.411  25.184   4.949  0.00  0.00    +0.152 C 
ATOM     18  C   UNL     1     -35.736  23.194   5.171  0.00  0.00    +0.171 C 
ATOM     19  C   UNL     1     -34.691  23.997   5.624  0.00  0.00    +0.077 C 
ATOM     20  C   UNL     1     -34.797  26.834   3.182  0.00  0.00    +0.010 C 
ATOM     21  C   UNL     1     -33.789  27.579   3.644  0.00  0.00    +0.082 C 
ATOM     22  C   UNL     1     -32.997  27.175   4.820  0.00  0.00    +0.346 C 
BRANCH  16  23
ATOM     23  O   UNL     1     -37.501  22.775   3.630  0.00  0.00    -0.503 OA
ATOM     24  H   UNL     1     -38.355  22.859   4.007  0.00  0.00    +0.292 HD
ENDBRANCH  16  23
BRANCH  18  25
ATOM     25  O   UNL     1     -36.017  22.033   5.825  0.00  0.00    -0.503 OA
ATOM     26  H   UNL     1     -35.679  21.221   5.504  0.00  0.00    +0.292 HD
ENDBRANCH  18  25
ENDBRANCH   3  14
BRANCH   5  27
ATOM     27  O   UNL     1     -38.467  26.361   3.681  0.00  0.00    -0.503 OA
ATOM     28  H   UNL     1     -39.218  26.911   3.799  0.00  0.00    +0.292 HD
ENDBRANCH   5  27
BRANCH   7  29
ATOM     29  O   UNL     1     -40.028  27.082   1.534  0.00  0.00    -0.503 OA
ATOM     30  H   UNL     1     -39.940  28.012   1.607  0.00  0.00    +0.292 HD
ENDBRANCH   7  29
TORSDOF 5
ENDMDL
MODEL 6
REMARK VINA RESULT:      -6.4      2.130      6.611
REMARK  Name = 5317297
REMARK  5 active torsions:
REMARK  status: ('A' for Active; 'I' for Inactive)
REMARK    1  A    between atoms: C_3  and  C_14
REMARK    2  A    between atoms: C_5  and  O_27
REMARK    3  A    between atoms: C_7  and  O_29
REMARK    4  A    between atoms: C_16  and  O_23
REMARK    5  A    between atoms: C_18  and  O_25
REMARK                            x       y       z     vdW  Elec       q    Type
REMARK                         _______ _______ _______ _____ _____    ______ ____
ROOT
ATOM      1  O   UNL     1     -33.375  25.884   5.476  0.00  0.00    -0.421 OA
ATOM      2  O   UNL     1     -32.096  27.780   5.358  0.00  0.00    -0.244 OA
ATOM      3  C   UNL     1     -36.153  24.731   3.321  0.00  0.00    +0.043 C 
ATOM      4  C   UNL     1     -35.123  25.531   3.819  0.00  0.00    +0.038 C 
ATOM      5  C   UNL     1     -36.467  23.524   3.953  0.00  0.00    +0.168 C 
ATOM      6  C   UNL     1     -34.423  25.104   4.944  0.00  0.00    +0.152 C 
ATOM      7  C   UNL     1     -35.755  23.111   5.081  0.00  0.00    +0.171 C 
ATOM      8  C   UNL     1     -34.724  23.904   5.584  0.00  0.00    +0.077 C 
ATOM      9  C   UNL     1     -34.755  26.795   3.202  0.00  0.00    +0.010 C 
ATOM     10  C   UNL     1     -33.762  27.527   3.712  0.00  0.00    +0.082 C 
ATOM     11  C   UNL     1     -33.005  27.096   4.902  0.00  0.00    +0.346 C 
ENDROOT
BRANCH   3  14
ATOM     12  O   UNL     1     -36.997  24.712  -1.528  0.00  0.00    -0.421 OA
ATOM     13  O   UNL     1     -35.595  23.556  -2.922  0.00  0.00    -0.244 OA
ATOM     14  C   UNL     1     -36.922  25.120   2.148  0.00  0.00    +0.043 C 
ATOM     15  C   UNL     1     -36.558  24.705   0.865  0.00  0.00    +0.038 C 
ATOM     16  C   UNL     1     -38.047  25.929   2.328  0.00  0.00    +0.168 C 
ATOM     17  C   UNL     1     -37.332  25.111  -0.218  0.00  0.00    +0.152 C 
ATOM     18  C   UNL     1     -38.812  26.328   1.229  0.00  0.00    +0.171 C 
ATOM     19  C   UNL     1     -38.456  25.918  -0.055  0.00  0.00    +0.077 C 
ATOM     20  C   UNL     1     -35.399  23.863   0.622  0.00  0.00    +0.010 C 
ATOM     21  C   UNL     1     -35.088  23.489  -0.622  0.00  0.00    +0.082 C 
ATOM     22  C   UNL     1     -35.892  23.907  -1.786  0.00  0.00    +0.346 C 
BRANCH  16  23
ATOM     23  O   UNL     1     -38.416  26.346   3.575  0.00  0.00    -0.503 OA
ATOM     24  H   UNL     1     -38.835  25.750   4.165  0.00  0.00    +0.292 HD
ENDBRANCH  16  23
BRANCH  18  25
ATOM     25  O   UNL     1     -39.910  27.117   1.397  0.00  0.00    -0.503 OA
ATOM     26  H   UNL     1     -39.930  27.749   2.087  0.00  0.00    +0.292 HD
ENDBRANCH  18  25
ENDBRANCH   3  14
BRANCH   5  27
ATOM     27  O   UNL     1     -37.472  22.728   3.479  0.00  0.00    -0.503 OA
ATOM     28  H   UNL     1     -38.323  23.090   3.326  0.00  0.00    +0.292 HD
ENDBRANCH   5  27
BRANCH   7  29
ATOM     29  O   UNL     1     -36.056  21.936   5.701  0.00  0.00    -0.503 OA
ATOM     30  H   UNL     1     -35.370  21.352   5.956  0.00  0.00    +0.292 HD
ENDBRANCH   7  29
TORSDOF 5
ENDMDL
MODEL 7
REMARK VINA RESULT:      -6.4      2.330      4.983
REMARK  Name = 5317297
REMARK  5 active torsions:
REMARK  status: ('A' for Active; 'I' for Inactive)
REMARK    1  A    between atoms: C_3  and  C_14
REMARK    2  A    between atoms: C_5  and  O_27
REMARK    3  A    between atoms: C_7  and  O_29
REMARK    4  A    between atoms: C_16  and  O_23
REMARK    5  A    between atoms: C_18  and  O_25
REMARK                            x       y       z     vdW  Elec       q    Type
REMARK                         _______ _______ _______ _____ _____    ______ ____
ROOT
ATOM      1  O   UNL     1     -33.167  20.677  -0.069  0.00  0.00    -0.421 OA
ATOM      2  O   UNL     1     -31.364  21.252  -1.358  0.00  0.00    -0.244 OA
ATOM      3  C   UNL     1     -35.552  22.800   1.799  0.00  0.00    +0.043 C 
ATOM      4  C   UNL     1     -34.475  22.436   0.989  0.00  0.00    +0.038 C 
ATOM      5  C   UNL     1     -36.378  21.815   2.348  0.00  0.00    +0.168 C 
ATOM      6  C   UNL     1     -34.245  21.085   0.744  0.00  0.00    +0.152 C 
ATOM      7  C   UNL     1     -36.132  20.465   2.092  0.00  0.00    +0.171 C 
ATOM      8  C   UNL     1     -35.059  20.092   1.285  0.00  0.00    +0.077 C 
ATOM      9  C   UNL     1     -33.585  23.418   0.393  0.00  0.00    +0.010 C 
ATOM     10  C   UNL     1     -32.567  23.023  -0.375  0.00  0.00    +0.082 C 
ATOM     11  C   UNL     1     -32.303  21.599  -0.650  0.00  0.00    +0.346 C 
ENDROOT
BRANCH   3  14
ATOM     12  O   UNL     1     -35.071  26.870   4.526  0.00  0.00    -0.421 OA
ATOM     13  O   UNL     1     -33.726  26.844   6.380  0.00  0.00    -0.244 OA
ATOM     14  C   UNL     1     -35.848  24.195   2.092  0.00  0.00    +0.043 C 
ATOM     15  C   UNL     1     -35.291  24.845   3.195  0.00  0.00    +0.038 C 
ATOM     16  C   UNL     1     -36.714  24.885   1.238  0.00  0.00    +0.168 C 
ATOM     17  C   UNL     1     -35.613  26.179   3.423  0.00  0.00    +0.152 C 
ATOM     18  C   UNL     1     -37.027  26.224   1.484  0.00  0.00    +0.171 C 
ATOM     19  C   UNL     1     -36.475  26.880   2.582  0.00  0.00    +0.077 C 
ATOM     20  C   UNL     1     -34.385  24.176   4.113  0.00  0.00    +0.010 C 
ATOM     21  C   UNL     1     -33.875  24.836   5.156  0.00  0.00    +0.082 C 
ATOM     22  C   UNL     1     -34.202  26.250   5.419  0.00  0.00    +0.346 C 
BRANCH  16  23
ATOM     23  O   UNL     1     -37.270  24.264   0.156  0.00  0.00    -0.503 OA
ATOM     24  H   UNL     1     -37.802  23.501   0.275  0.00  0.00    +0.292 HD
ENDBRANCH  16  23
BRANCH  18  25
ATOM     25  O   UNL     1     -37.871  26.902   0.656  0.00  0.00    -0.503 OA
ATOM     26  H   UNL     1     -38.779  26.678   0.628  0.00  0.00    +0.292 HD
ENDBRANCH  18  25
ENDBRANCH   3  14
BRANCH   5  27
ATOM     27  O   UNL     1     -37.437  22.154   3.142  0.00  0.00    -0.503 OA
ATOM     28  H   UNL     1     -37.624  23.057   3.315  0.00  0.00    +0.292 HD
ENDBRANCH   5  27
BRANCH   7  29
ATOM     29  O   UNL     1     -36.933  19.500   2.625  0.00  0.00    -0.503 OA
ATOM     30  H   UNL     1     -36.875  19.294   3.537  0.00  0.00    +0.292 HD
ENDBRANCH   7  29
TORSDOF 5
ENDMDL
MODEL 8
REMARK VINA RESULT:      -6.4      2.142      5.727
REMARK  Name = 5317297
REMARK  5 active torsions:
REMARK  status: ('A' for Active; 'I' for Inactive)
REMARK    1  A    between atoms: C_3  and  C_14
REMARK    2  A    between atoms: C_5  and  O_27
REMARK    3  A    between atoms: C_7  and  O_29
REMARK    4  A    between atoms: C_16  and  O_23
REMARK    5  A    between atoms: C_18  and  O_25
REMARK                            x       y       z     vdW  Elec       q    Type
REMARK                         _______ _______ _______ _____ _____    ______ ____
ROOT
ATOM      1  O   UNL     1     -35.087  20.094   2.661  0.00  0.00    -0.421 OA
ATOM      2  O   UNL     1     -34.993  19.025   0.637  0.00  0.00    -0.244 OA
ATOM      3  C   UNL     1     -35.851  23.621   3.475  0.00  0.00    +0.043 C 
ATOM      4  C   UNL     1     -35.637  22.463   2.724  0.00  0.00    +0.038 C 
ATOM      5  C   UNL     1     -35.734  23.580   4.868  0.00  0.00    +0.168 C 
ATOM      6  C   UNL     1     -35.310  21.283   3.385  0.00  0.00    +0.152 C 
ATOM      7  C   UNL     1     -35.404  22.387   5.514  0.00  0.00    +0.171 C 
ATOM      8  C   UNL     1     -35.189  21.228   4.772  0.00  0.00    +0.077 C 
ATOM      9  C   UNL     1     -35.745  22.449   1.275  0.00  0.00    +0.010 C 
ATOM     10  C   UNL     1     -35.533  21.319   0.597  0.00  0.00    +0.082 C 
ATOM     11  C   UNL     1     -35.185  20.055   1.273  0.00  0.00    +0.346 C 
ENDROOT
BRANCH   3  14
ATOM     12  O   UNL     1     -39.125  26.889   1.793  0.00  0.00    -0.421 OA
ATOM     13  O   UNL     1     -41.365  26.446   1.964  0.00  0.00    -0.244 OA
ATOM     14  C   UNL     1     -36.198  24.886   2.845  0.00  0.00    +0.043 C 
ATOM     15  C   UNL     1     -37.527  25.257   2.634  0.00  0.00    +0.038 C 
ATOM     16  C   UNL     1     -35.163  25.737   2.448  0.00  0.00    +0.168 C 
ATOM     17  C   UNL     1     -37.795  26.479   2.024  0.00  0.00    +0.152 C 
ATOM     18  C   UNL     1     -35.451  26.960   1.837  0.00  0.00    +0.171 C 
ATOM     19  C   UNL     1     -36.775  27.338   1.622  0.00  0.00    +0.077 C 
ATOM     20  C   UNL     1     -38.641  24.411   3.027  0.00  0.00    +0.010 C 
ATOM     21  C   UNL     1     -39.897  24.806   2.805  0.00  0.00    +0.082 C 
ATOM     22  C   UNL     1     -40.207  26.096   2.161  0.00  0.00    +0.346 C 
BRANCH  16  23
ATOM     23  O   UNL     1     -33.857  25.389   2.645  0.00  0.00    -0.503 OA
ATOM     24  H   UNL     1     -33.472  24.702   2.136  0.00  0.00    +0.292 HD
ENDBRANCH  16  23
BRANCH  18  25
ATOM     25  O   UNL     1     -34.447  27.794   1.447  0.00  0.00    -0.503 OA
ATOM     26  H   UNL     1     -34.014  28.333   2.079  0.00  0.00    +0.292 HD
ENDBRANCH  18  25
ENDBRANCH   3  14
BRANCH   5  27
ATOM     27  O   UNL     1     -35.941  24.703   5.619  0.00  0.00    -0.503 OA
ATOM     28  H   UNL     1     -36.760  25.157   5.567  0.00  0.00    +0.292 HD
ENDBRANCH   5  27
BRANCH   7  29
ATOM     29  O   UNL     1     -35.289  22.342   6.871  0.00  0.00    -0.503 OA
ATOM     30  H   UNL     1     -35.263  21.516   7.311  0.00  0.00    +0.292 HD
ENDBRANCH   7  29
TORSDOF 5
ENDMDL
MODEL 9
REMARK VINA RESULT:      -6.4      2.152      4.217
REMARK  Name = 5317297
REMARK  5 active torsions:
REMARK  status: ('A' for Active; 'I' for Inactive)
REMARK    1  A    between atoms: C_3  and  C_14
REMARK    2  A    between atoms: C_5  and  O_27
REMARK    3  A    between atoms: C_7  and  O_29
REMARK    4  A    between atoms: C_16  and  O_23
REMARK    5  A    between atoms: C_18  and  O_25
REMARK                            x       y       z     vdW  Elec       q    Type
REMARK                         _______ _______ _______ _____ _____    ______ ____
ROOT
ATOM      1  O   UNL     1     -39.184  26.922   1.753  0.00  0.00    -0.421 OA
ATOM      2  O   UNL     1     -41.425  26.471   1.906  0.00  0.00    -0.244 OA
ATOM      3  C   UNL     1     -36.259  24.929   2.830  0.00  0.00    +0.043 C 
ATOM      4  C   UNL     1     -37.588  25.296   2.607  0.00  0.00    +0.038 C 
ATOM      5  C   UNL     1     -35.224  25.784   2.440  0.00  0.00    +0.168 C 
ATOM      6  C   UNL     1     -37.856  26.517   1.995  0.00  0.00    +0.152 C 
ATOM      7  C   UNL     1     -35.511  27.006   1.827  0.00  0.00    +0.171 C 
ATOM      8  C   UNL     1     -36.835  27.379   1.601  0.00  0.00    +0.077 C 
ATOM      9  C   UNL     1     -38.702  24.446   2.993  0.00  0.00    +0.010 C 
ATOM     10  C   UNL     1     -39.957  24.837   2.761  0.00  0.00    +0.082 C 
ATOM     11  C   UNL     1     -40.267  26.125   2.113  0.00  0.00    +0.346 C 
ENDROOT
BRANCH   3  14
ATOM     12  O   UNL     1     -35.191  20.127   2.662  0.00  0.00    -0.421 OA
ATOM     13  O   UNL     1     -35.137  19.044   0.644  0.00  0.00    -0.244 OA
ATOM     14  C   UNL     1     -35.913  23.665   3.463  0.00  0.00    +0.043 C 
ATOM     15  C   UNL     1     -35.721  22.501   2.717  0.00  0.00    +0.038 C 
ATOM     16  C   UNL     1     -35.774  23.634   4.855  0.00  0.00    +0.168 C 
ATOM     17  C   UNL     1     -35.392  21.323   3.381  0.00  0.00    +0.152 C 
ATOM     18  C   UNL     1     -35.445  22.442   5.504  0.00  0.00    +0.171 C 
ATOM     19  C   UNL     1     -35.251  21.276   4.766  0.00  0.00    +0.077 C 
ATOM     20  C   UNL     1     -35.852  22.477   1.270  0.00  0.00    +0.010 C 
ATOM     21  C   UNL     1     -35.659  21.341   0.596  0.00  0.00    +0.082 C 
ATOM     22  C   UNL     1     -35.311  20.080   1.276  0.00  0.00    +0.346 C 
BRANCH  16  23
ATOM     23  O   UNL     1     -35.961  24.763   5.601  0.00  0.00    -0.503 OA
ATOM     24  H   UNL     1     -36.287  24.698   6.477  0.00  0.00    +0.292 HD
ENDBRANCH  16  23
BRANCH  18  25
ATOM     25  O   UNL     1     -35.308  22.405   6.859  0.00  0.00    -0.503 OA
ATOM     26  H   UNL     1     -35.775  23.016   7.393  0.00  0.00    +0.292 HD
ENDBRANCH  18  25
ENDBRANCH   3  14
BRANCH   5  27
ATOM     27  O   UNL     1     -33.918  25.440   2.648  0.00  0.00    -0.503 OA
ATOM     28  H   UNL     1     -33.704  24.759   3.256  0.00  0.00    +0.292 HD
ENDBRANCH   5  27
BRANCH   7  29
ATOM     29  O   UNL     1     -34.507  27.843   1.445  0.00  0.00    -0.503 OA
ATOM     30  H   UNL     1     -33.696  27.491   1.136  0.00  0.00    +0.292 HD
ENDBRANCH   7  29
TORSDOF 5
ENDMDL
