MODEL 1
REMARK VINA RESULT:      -6.1      0.000      0.000
REMARK  Name = 193826
REMARK  6 active torsions:
REMARK  status: ('A' for Active; 'I' for Inactive)
REMARK    1  A    between atoms: C_2  and  O_8
REMARK    2  A    between atoms: C_3  and  O_10
REMARK    3  A    between atoms: C_4  and  O_12
REMARK    4  A    between atoms: C_6  and  O_14
REMARK    5  A    between atoms: O_14  and  C_15
REMARK    6  A    between atoms: C_20  and  N_21
REMARK                            x       y       z     vdW  Elec       q    Type
REMARK                         _______ _______ _______ _____ _____    ______ ____
ROOT
ATOM      1  O   UNL     1     -34.745  23.664   3.997  0.00  0.00    -0.319 OA
ATOM      2  C   UNL     1     -37.267  25.009   3.670  0.00  0.00    +0.173 C 
ATOM      3  C   UNL     1     -36.901  23.765   2.854  0.00  0.00    +0.167 C 
ATOM      4  C   UNL     1     -36.495  25.036   4.990  0.00  0.00    +0.210 C 
ATOM      5  C   UNL     1     -35.378  23.649   2.708  0.00  0.00    +0.148 C 
ATOM      6  C   UNL     1     -34.994  24.858   4.743  0.00  0.00    +0.318 C 
ATOM      7  C   UNL     1     -34.957  22.360   2.012  0.00  0.00    +0.035 C 
ENDROOT
BRANCH   2   8
ATOM      8  O   UNL     1     -38.666  25.022   3.942  0.00  0.00    -0.379 OA
ATOM      9  H   UNL     1     -38.945  25.926   4.158  0.00  0.00    +0.211 HD
ENDBRANCH   2   8
BRANCH   3  10
ATOM     10  O   UNL     1     -37.420  22.598   3.495  0.00  0.00    -0.379 OA
ATOM     11  H   UNL     1     -37.079  21.806   3.050  0.00  0.00    +0.211 HD
ENDBRANCH   3  10
BRANCH   4  12
ATOM     12  O   UNL     1     -36.741  26.272   5.656  0.00  0.00    -0.377 OA
ATOM     13  H   UNL     1     -36.901  26.966   4.998  0.00  0.00    +0.211 HD
ENDBRANCH   4  12
BRANCH   6  14
ATOM     14  O   UNL     1     -34.465  26.013   4.092  0.00  0.00    -0.451 OA
BRANCH  14  15
ATOM     15  C   UNL     1     -33.605  26.789   4.823  0.00  0.00    +0.141 C 
ATOM     16  C   UNL     1     -33.444  26.547   6.184  0.00  0.00    +0.038 C 
ATOM     17  C   UNL     1     -32.900  27.812   4.199  0.00  0.00    +0.038 C 
ATOM     18  C   UNL     1     -32.568  27.338   6.928  0.00  0.00    +0.017 C 
ATOM     19  C   UNL     1     -32.024  28.603   4.943  0.00  0.00    +0.017 C 
ATOM     20  C   UNL     1     -31.858  28.365   6.307  0.00  0.00    +0.042 C 
BRANCH  20  21
ATOM     21  N   UNL     1     -30.972  29.164   7.060  0.00  0.00    -0.357 N 
ATOM     22  H   UNL     1     -31.094  30.140   7.091  0.00  0.00    +0.142 HD
ATOM     23  H   UNL     1     -30.231  28.743   7.555  0.00  0.00    +0.142 HD
ENDBRANCH  20  21
ENDBRANCH  14  15
ENDBRANCH   6  14
TORSDOF 6
ENDMDL
MODEL 2
REMARK VINA RESULT:      -6.0      2.574      4.379
REMARK  Name = 193826
REMARK  6 active torsions:
REMARK  status: ('A' for Active; 'I' for Inactive)
REMARK    1  A    between atoms: C_2  and  O_8
REMARK    2  A    between atoms: C_3  and  O_10
REMARK    3  A    between atoms: C_4  and  O_12
REMARK    4  A    between atoms: C_6  and  O_14
REMARK    5  A    between atoms: O_14  and  C_15
REMARK    6  A    between atoms: C_20  and  N_21
REMARK                            x       y       z     vdW  Elec       q    Type
REMARK                         _______ _______ _______ _____ _____    ______ ____
ROOT
ATOM      1  O   UNL     1     -37.767  24.240   1.777  0.00  0.00    -0.319 OA
ATOM      2  C   UNL     1     -39.509  21.991   2.203  0.00  0.00    +0.173 C 
ATOM      3  C   UNL     1     -40.037  23.341   1.709  0.00  0.00    +0.167 C 
ATOM      4  C   UNL     1     -38.034  21.821   1.837  0.00  0.00    +0.210 C 
ATOM      5  C   UNL     1     -39.123  24.480   2.184  0.00  0.00    +0.148 C 
ATOM      6  C   UNL     1     -37.217  23.030   2.303  0.00  0.00    +0.318 C 
ATOM      7  C   UNL     1     -39.535  25.832   1.613  0.00  0.00    +0.035 C 
ENDROOT
BRANCH   2   8
ATOM      8  O   UNL     1     -40.264  20.929   1.625  0.00  0.00    -0.379 OA
ATOM      9  H   UNL     1     -39.713  20.132   1.574  0.00  0.00    +0.211 HD
ENDBRANCH   2   8
BRANCH   3  10
ATOM     10  O   UNL     1     -40.111  23.338   0.282  0.00  0.00    -0.379 OA
ATOM     11  H   UNL     1     -41.038  23.415   0.006  0.00  0.00    +0.211 HD
ENDBRANCH   3  10
BRANCH   4  12
ATOM     12  O   UNL     1     -37.533  20.628   2.436  0.00  0.00    -0.377 OA
ATOM     13  H   UNL     1     -37.168  20.050   1.747  0.00  0.00    +0.211 HD
ENDBRANCH   4  12
BRANCH   6  14
ATOM     14  O   UNL     1     -37.145  23.052   3.728  0.00  0.00    -0.451 OA
BRANCH  14  15
ATOM     15  C   UNL     1     -36.269  23.945   4.284  0.00  0.00    +0.141 C 
ATOM     16  C   UNL     1     -34.903  23.678   4.261  0.00  0.00    +0.038 C 
ATOM     17  C   UNL     1     -36.751  25.111   4.868  0.00  0.00    +0.038 C 
ATOM     18  C   UNL     1     -34.011  24.589   4.827  0.00  0.00    +0.017 C 
ATOM     19  C   UNL     1     -35.858  26.021   5.435  0.00  0.00    +0.017 C 
ATOM     20  C   UNL     1     -34.489  25.760   5.414  0.00  0.00    +0.042 C 
BRANCH  20  21
ATOM     21  N   UNL     1     -33.586  26.680   5.987  0.00  0.00    -0.357 N 
ATOM     22  H   UNL     1     -33.922  27.420   6.542  0.00  0.00    +0.142 HD
ATOM     23  H   UNL     1     -32.618  26.581   5.830  0.00  0.00    +0.142 HD
ENDBRANCH  20  21
ENDBRANCH  14  15
ENDBRANCH   6  14
TORSDOF 6
ENDMDL
MODEL 3
REMARK VINA RESULT:      -5.6      4.061      6.662
REMARK  Name = 193826
REMARK  6 active torsions:
REMARK  status: ('A' for Active; 'I' for Inactive)
REMARK    1  A    between atoms: C_2  and  O_8
REMARK    2  A    between atoms: C_3  and  O_10
REMARK    3  A    between atoms: C_4  and  O_12
REMARK    4  A    between atoms: C_6  and  O_14
REMARK    5  A    between atoms: O_14  and  C_15
REMARK    6  A    between atoms: C_20  and  N_21
REMARK                            x       y       z     vdW  Elec       q    Type
REMARK                         _______ _______ _______ _____ _____    ______ ____
ROOT
ATOM      1  O   UNL     1     -36.020  23.432   3.948  0.00  0.00    -0.319 OA
ATOM      2  C   UNL     1     -35.476  26.126   4.798  0.00  0.00    +0.173 C 
ATOM      3  C   UNL     1     -34.827  24.916   5.477  0.00  0.00    +0.167 C 
ATOM      4  C   UNL     1     -35.872  25.790   3.359  0.00  0.00    +0.210 C 
ATOM      5  C   UNL     1     -35.719  23.676   5.330  0.00  0.00    +0.148 C 
ATOM      6  C   UNL     1     -36.712  24.511   3.313  0.00  0.00    +0.318 C 
ATOM      7  C   UNL     1     -35.060  22.416   5.880  0.00  0.00    +0.035 C 
ENDROOT
BRANCH   2   8
ATOM      8  O   UNL     1     -34.572  27.228   4.793  0.00  0.00    -0.379 OA
ATOM      9  H   UNL     1     -33.887  27.087   5.466  0.00  0.00    +0.211 HD
ENDBRANCH   2   8
BRANCH   3  10
ATOM     10  O   UNL     1     -33.545  24.666   4.895  0.00  0.00    -0.379 OA
ATOM     11  H   UNL     1     -33.127  23.915   5.346  0.00  0.00    +0.211 HD
ENDBRANCH   3  10
BRANCH   4  12
ATOM     12  O   UNL     1     -36.604  26.880   2.804  0.00  0.00    -0.377 OA
ATOM     13  H   UNL     1     -37.379  26.539   2.331  0.00  0.00    +0.211 HD
ENDBRANCH   4  12
BRANCH   6  14
ATOM     14  O   UNL     1     -37.991  24.743   3.902  0.00  0.00    -0.451 OA
BRANCH  14  15
ATOM     15  C   UNL     1     -39.075  24.646   3.072  0.00  0.00    +0.141 C 
ATOM     16  C   UNL     1     -39.232  23.520   2.270  0.00  0.00    +0.038 C 
ATOM     17  C   UNL     1     -40.011  25.674   3.036  0.00  0.00    +0.038 C 
ATOM     18  C   UNL     1     -40.337  23.421   1.424  0.00  0.00    +0.017 C 
ATOM     19  C   UNL     1     -41.116  25.576   2.190  0.00  0.00    +0.017 C 
ATOM     20  C   UNL     1     -41.278  24.450   1.385  0.00  0.00    +0.042 C 
BRANCH  20  21
ATOM     21  N   UNL     1     -42.396  24.349   0.529  0.00  0.00    -0.357 N 
ATOM     22  H   UNL     1     -43.244  24.785   0.772  0.00  0.00    +0.142 HD
ATOM     23  H   UNL     1     -42.326  23.840  -0.312  0.00  0.00    +0.142 HD
ENDBRANCH  20  21
ENDBRANCH  14  15
ENDBRANCH   6  14
TORSDOF 6
ENDMDL
MODEL 4
REMARK VINA RESULT:      -5.5      3.763      6.480
REMARK  Name = 193826
REMARK  6 active torsions:
REMARK  status: ('A' for Active; 'I' for Inactive)
REMARK    1  A    between atoms: C_2  and  O_8
REMARK    2  A    between atoms: C_3  and  O_10
REMARK    3  A    between atoms: C_4  and  O_12
REMARK    4  A    between atoms: C_6  and  O_14
REMARK    5  A    between atoms: O_14  and  C_15
REMARK    6  A    between atoms: C_20  and  N_21
REMARK                            x       y       z     vdW  Elec       q    Type
REMARK                         _______ _______ _______ _____ _____    ______ ____
ROOT
ATOM      1  O   UNL     1     -34.923  25.229   2.311  0.00  0.00    -0.319 OA
ATOM      2  C   UNL     1     -35.985  25.854   4.911  0.00  0.00    +0.173 C 
ATOM      3  C   UNL     1     -34.711  26.517   4.376  0.00  0.00    +0.167 C 
ATOM      4  C   UNL     1     -36.874  25.385   3.759  0.00  0.00    +0.210 C 
ATOM      5  C   UNL     1     -34.015  25.599   3.361  0.00  0.00    +0.148 C 
ATOM      6  C   UNL     1     -36.077  24.524   2.774  0.00  0.00    +0.318 C 
ATOM      7  C   UNL     1     -32.811  26.265   2.705  0.00  0.00    +0.035 C 
ENDROOT
BRANCH   2   8
ATOM      8  O   UNL     1     -36.710  26.773   5.723  0.00  0.00    -0.379 OA
ATOM      9  H   UNL     1     -37.630  26.477   5.803  0.00  0.00    +0.211 HD
ENDBRANCH   2   8
BRANCH   3  10
ATOM     10  O   UNL     1     -35.038  27.765   3.761  0.00  0.00    -0.379 OA
ATOM     11  H   UNL     1     -34.736  28.493   4.326  0.00  0.00    +0.211 HD
ENDBRANCH   3  10
BRANCH   4  12
ATOM     12  O   UNL     1     -37.973  24.643   4.282  0.00  0.00    -0.377 OA
ATOM     13  H   UNL     1     -37.952  24.677   5.252  0.00  0.00    +0.211 HD
ENDBRANCH   4  12
BRANCH   6  14
ATOM     14  O   UNL     1     -35.734  23.278   3.380  0.00  0.00    -0.451 OA
BRANCH  14  15
ATOM     15  C   UNL     1     -36.042  22.147   2.674  0.00  0.00    +0.141 C 
ATOM     16  C   UNL     1     -37.297  22.020   2.087  0.00  0.00    +0.038 C 
ATOM     17  C   UNL     1     -35.098  21.134   2.549  0.00  0.00    +0.038 C 
ATOM     18  C   UNL     1     -37.611  20.867   1.367  0.00  0.00    +0.017 C 
ATOM     19  C   UNL     1     -35.412  19.980   1.829  0.00  0.00    +0.017 C 
ATOM     20  C   UNL     1     -36.668  19.848   1.239  0.00  0.00    +0.042 C 
BRANCH  20  21
ATOM     21  N   UNL     1     -36.986  18.682   0.510  0.00  0.00    -0.357 N 
ATOM     22  H   UNL     1     -36.845  17.795   0.913  0.00  0.00    +0.142 HD
ATOM     23  H   UNL     1     -37.350  18.757  -0.403  0.00  0.00    +0.142 HD
ENDBRANCH  20  21
ENDBRANCH  14  15
ENDBRANCH   6  14
TORSDOF 6
ENDMDL
MODEL 5
REMARK VINA RESULT:      -5.5      3.719      5.448
REMARK  Name = 193826
REMARK  6 active torsions:
REMARK  status: ('A' for Active; 'I' for Inactive)
REMARK    1  A    between atoms: C_2  and  O_8
REMARK    2  A    between atoms: C_3  and  O_10
REMARK    3  A    between atoms: C_4  and  O_12
REMARK    4  A    between atoms: C_6  and  O_14
REMARK    5  A    between atoms: O_14  and  C_15
REMARK    6  A    between atoms: C_20  and  N_21
REMARK                            x       y       z     vdW  Elec       q    Type
REMARK                         _______ _______ _______ _____ _____    ______ ____
ROOT
ATOM      1  O   UNL     1     -34.278  20.451   2.109  0.00  0.00    -0.319 OA
ATOM      2  C   UNL     1     -36.571  19.810   0.494  0.00  0.00    +0.173 C 
ATOM      3  C   UNL     1     -35.166  19.308   0.143  0.00  0.00    +0.167 C 
ATOM      4  C   UNL     1     -36.684  20.093   1.992  0.00  0.00    +0.210 C 
ATOM      5  C   UNL     1     -34.101  20.264   0.697  0.00  0.00    +0.148 C 
ATOM      6  C   UNL     1     -35.548  21.009   2.458  0.00  0.00    +0.318 C 
ATOM      7  C   UNL     1     -32.685  19.743   0.483  0.00  0.00    +0.035 C 
ENDROOT
BRANCH   2   8
ATOM      8  O   UNL     1     -37.545  18.838   0.122  0.00  0.00    -0.379 OA
ATOM      9  H   UNL     1     -38.321  19.286  -0.250  0.00  0.00    +0.211 HD
ENDBRANCH   2   8
BRANCH   3  10
ATOM     10  O   UNL     1     -34.973  17.998   0.680  0.00  0.00    -0.379 OA
ATOM     11  H   UNL     1     -35.398  17.345   0.102  0.00  0.00    +0.211 HD
ENDBRANCH   3  10
BRANCH   4  12
ATOM     12  O   UNL     1     -37.946  20.697   2.265  0.00  0.00    -0.377 OA
ATOM     13  H   UNL     1     -38.236  20.448   3.156  0.00  0.00    +0.211 HD
ENDBRANCH   4  12
BRANCH   6  14
ATOM     14  O   UNL     1     -35.722  22.318   1.918  0.00  0.00    -0.451 OA
BRANCH  14  15
ATOM     15  C   UNL     1     -35.899  23.334   2.819  0.00  0.00    +0.141 C 
ATOM     16  C   UNL     1     -36.332  24.581   2.376  0.00  0.00    +0.038 C 
ATOM     17  C   UNL     1     -35.644  23.113   4.167  0.00  0.00    +0.038 C 
ATOM     18  C   UNL     1     -36.512  25.616   3.294  0.00  0.00    +0.017 C 
ATOM     19  C   UNL     1     -35.824  24.149   5.085  0.00  0.00    +0.017 C 
ATOM     20  C   UNL     1     -36.258  25.399   4.648  0.00  0.00    +0.042 C 
BRANCH  20  21
ATOM     21  N   UNL     1     -36.441  26.447   5.575  0.00  0.00    -0.357 N 
ATOM     22  H   UNL     1     -37.011  26.311   6.365  0.00  0.00    +0.142 HD
ATOM     23  H   UNL     1     -35.997  27.315   5.430  0.00  0.00    +0.142 HD
ENDBRANCH  20  21
ENDBRANCH  14  15
ENDBRANCH   6  14
TORSDOF 6
ENDMDL
MODEL 6
REMARK VINA RESULT:      -5.4      2.664      4.155
REMARK  Name = 193826
REMARK  6 active torsions:
REMARK  status: ('A' for Active; 'I' for Inactive)
REMARK    1  A    between atoms: C_2  and  O_8
REMARK    2  A    between atoms: C_3  and  O_10
REMARK    3  A    between atoms: C_4  and  O_12
REMARK    4  A    between atoms: C_6  and  O_14
REMARK    5  A    between atoms: O_14  and  C_15
REMARK    6  A    between atoms: C_20  and  N_21
REMARK                            x       y       z     vdW  Elec       q    Type
REMARK                         _______ _______ _______ _____ _____    ______ ____
ROOT
ATOM      1  O   UNL     1     -35.159  20.561   2.789  0.00  0.00    -0.319 OA
ATOM      2  C   UNL     1     -37.151  21.019   0.765  0.00  0.00    +0.173 C 
ATOM      3  C   UNL     1     -36.116  19.896   0.642  0.00  0.00    +0.167 C 
ATOM      4  C   UNL     1     -37.382  21.383   2.232  0.00  0.00    +0.210 C 
ATOM      5  C   UNL     1     -34.843  20.254   1.422  0.00  0.00    +0.148 C 
ATOM      6  C   UNL     1     -36.052  21.668   2.936  0.00  0.00    +0.318 C 
ATOM      7  C   UNL     1     -33.831  19.115   1.435  0.00  0.00    +0.035 C 
ENDROOT
BRANCH   2   8
ATOM      8  O   UNL     1     -38.386  20.613   0.180  0.00  0.00    -0.379 OA
ATOM      9  H   UNL     1     -39.074  20.587   0.864  0.00  0.00    +0.211 HD
ENDBRANCH   2   8
BRANCH   3  10
ATOM     10  O   UNL     1     -36.667  18.676   1.141  0.00  0.00    -0.379 OA
ATOM     11  H   UNL     1     -37.103  18.840   1.991  0.00  0.00    +0.211 HD
ENDBRANCH   3  10
BRANCH   4  12
ATOM     12  O   UNL     1     -38.232  22.525   2.308  0.00  0.00    -0.377 OA
ATOM     13  H   UNL     1     -37.990  23.056   3.083  0.00  0.00    +0.211 HD
ENDBRANCH   4  12
BRANCH   6  14
ATOM     14  O   UNL     1     -35.484  22.880   2.439  0.00  0.00    -0.451 OA
BRANCH  14  15
ATOM     15  C   UNL     1     -35.055  23.784   3.372  0.00  0.00    +0.141 C 
ATOM     16  C   UNL     1     -35.421  23.626   4.705  0.00  0.00    +0.038 C 
ATOM     17  C   UNL     1     -34.257  24.853   2.980  0.00  0.00    +0.038 C 
ATOM     18  C   UNL     1     -34.982  24.548   5.657  0.00  0.00    +0.017 C 
ATOM     19  C   UNL     1     -33.819  25.775   3.932  0.00  0.00    +0.017 C 
ATOM     20  C   UNL     1     -34.182  25.622   5.269  0.00  0.00    +0.042 C 
BRANCH  20  21
ATOM     21  N   UNL     1     -33.739  26.553   6.232  0.00  0.00    -0.357 N 
ATOM     22  H   UNL     1     -34.341  26.837   6.957  0.00  0.00    +0.142 HD
ATOM     23  H   UNL     1     -32.826  26.920   6.177  0.00  0.00    +0.142 HD
ENDBRANCH  20  21
ENDBRANCH  14  15
ENDBRANCH   6  14
TORSDOF 6
ENDMDL
MODEL 7
REMARK VINA RESULT:      -5.4      1.938      3.140
REMARK  Name = 193826
REMARK  6 active torsions:
REMARK  status: ('A' for Active; 'I' for Inactive)
REMARK    1  A    between atoms: C_2  and  O_8
REMARK    2  A    between atoms: C_3  and  O_10
REMARK    3  A    between atoms: C_4  and  O_12
REMARK    4  A    between atoms: C_6  and  O_14
REMARK    5  A    between atoms: O_14  and  C_15
REMARK    6  A    between atoms: C_20  and  N_21
REMARK                            x       y       z     vdW  Elec       q    Type
REMARK                         _______ _______ _______ _____ _____    ______ ____
ROOT
ATOM      1  O   UNL     1     -34.849  21.410   3.249  0.00  0.00    -0.319 OA
ATOM      2  C   UNL     1     -37.329  21.946   1.892  0.00  0.00    +0.173 C 
ATOM      3  C   UNL     1     -36.487  20.704   1.581  0.00  0.00    +0.167 C 
ATOM      4  C   UNL     1     -37.053  22.444   3.312  0.00  0.00    +0.210 C 
ATOM      5  C   UNL     1     -35.008  20.967   1.892  0.00  0.00    +0.148 C 
ATOM      6  C   UNL     1     -35.549  22.622   3.541  0.00  0.00    +0.318 C 
ATOM      7  C   UNL     1     -34.147  19.721   1.719  0.00  0.00    +0.035 C 
ENDROOT
BRANCH   2   8
ATOM      8  O   UNL     1     -38.715  21.644   1.759  0.00  0.00    -0.379 OA
ATOM      9  H   UNL     1     -39.207  22.460   1.576  0.00  0.00    +0.211 HD
ENDBRANCH   2   8
BRANCH   3  10
ATOM     10  O   UNL     1     -36.958  19.596   2.352  0.00  0.00    -0.379 OA
ATOM     11  H   UNL     1     -37.769  19.850   2.821  0.00  0.00    +0.211 HD
ENDBRANCH   3  10
BRANCH   4  12
ATOM     12  O   UNL     1     -37.732  23.679   3.520  0.00  0.00    -0.377 OA
ATOM     13  H   UNL     1     -37.143  24.298   3.979  0.00  0.00    +0.211 HD
ENDBRANCH   4  12
BRANCH   6  14
ATOM     14  O   UNL     1     -35.063  23.719   2.767  0.00  0.00    -0.451 OA
BRANCH  14  15
ATOM     15  C   UNL     1     -34.493  24.753   3.459  0.00  0.00    +0.141 C 
ATOM     16  C   UNL     1     -33.761  25.720   2.777  0.00  0.00    +0.038 C 
ATOM     17  C   UNL     1     -34.650  24.829   4.839  0.00  0.00    +0.038 C 
ATOM     18  C   UNL     1     -33.181  26.774   3.483  0.00  0.00    +0.017 C 
ATOM     19  C   UNL     1     -34.069  25.883   5.545  0.00  0.00    +0.017 C 
ATOM     20  C   UNL     1     -33.335  26.855   4.866  0.00  0.00    +0.042 C 
BRANCH  20  21
ATOM     21  N   UNL     1     -32.748  27.921   5.579  0.00  0.00    -0.357 N 
ATOM     22  H   UNL     1     -33.234  28.343   6.325  0.00  0.00    +0.142 HD
ATOM     23  H   UNL     1     -31.851  28.245   5.330  0.00  0.00    +0.142 HD
ENDBRANCH  20  21
ENDBRANCH  14  15
ENDBRANCH   6  14
TORSDOF 6
ENDMDL
MODEL 8
REMARK VINA RESULT:      -5.3      3.710      6.747
REMARK  Name = 193826
REMARK  6 active torsions:
REMARK  status: ('A' for Active; 'I' for Inactive)
REMARK    1  A    between atoms: C_2  and  O_8
REMARK    2  A    between atoms: C_3  and  O_10
REMARK    3  A    between atoms: C_4  and  O_12
REMARK    4  A    between atoms: C_6  and  O_14
REMARK    5  A    between atoms: O_14  and  C_15
REMARK    6  A    between atoms: C_20  and  N_21
REMARK                            x       y       z     vdW  Elec       q    Type
REMARK                         _______ _______ _______ _____ _____    ______ ____
ROOT
ATOM      1  O   UNL     1     -31.588  29.022   3.926  0.00  0.00    -0.319 OA
ATOM      2  C   UNL     1     -30.078  28.399   6.295  0.00  0.00    +0.173 C 
ATOM      3  C   UNL     1     -29.404  28.899   5.013  0.00  0.00    +0.167 C 
ATOM      4  C   UNL     1     -31.534  28.863   6.356  0.00  0.00    +0.210 C 
ATOM      5  C   UNL     1     -30.247  28.529   3.785  0.00  0.00    +0.148 C 
ATOM      6  C   UNL     1     -32.274  28.496   5.066  0.00  0.00    +0.318 C 
ATOM      7  C   UNL     1     -29.683  29.113   2.495  0.00  0.00    +0.035 C 
ENDROOT
BRANCH   2   8
ATOM      8  O   UNL     1     -29.380  28.887   7.437  0.00  0.00    -0.379 OA
ATOM      9  H   UNL     1     -29.327  29.855   7.395  0.00  0.00    +0.211 HD
ENDBRANCH   2   8
BRANCH   3  10
ATOM     10  O   UNL     1     -29.234  30.316   5.078  0.00  0.00    -0.379 OA
ATOM     11  H   UNL     1     -30.051  30.754   4.791  0.00  0.00    +0.211 HD
ENDBRANCH   3  10
BRANCH   4  12
ATOM     12  O   UNL     1     -32.175  28.262   7.478  0.00  0.00    -0.377 OA
ATOM     13  H   UNL     1     -33.109  28.524   7.494  0.00  0.00    +0.211 HD
ENDBRANCH   4  12
BRANCH   6  14
ATOM     14  O   UNL     1     -32.441  27.081   4.982  0.00  0.00    -0.451 OA
BRANCH  14  15
ATOM     15  C   UNL     1     -33.721  26.623   4.825  0.00  0.00    +0.141 C 
ATOM     16  C   UNL     1     -34.400  26.866   3.635  0.00  0.00    +0.038 C 
ATOM     17  C   UNL     1     -34.332  25.918   5.855  0.00  0.00    +0.038 C 
ATOM     18  C   UNL     1     -35.704  26.398   3.475  0.00  0.00    +0.017 C 
ATOM     19  C   UNL     1     -35.637  25.450   5.696  0.00  0.00    +0.017 C 
ATOM     20  C   UNL     1     -36.322  25.691   4.506  0.00  0.00    +0.042 C 
BRANCH  20  21
ATOM     21  N   UNL     1     -37.642  25.218   4.343  0.00  0.00    -0.357 N 
ATOM     22  H   UNL     1     -38.294  25.746   3.829  0.00  0.00    +0.142 HD
ATOM     23  H   UNL     1     -37.909  24.359   4.744  0.00  0.00    +0.142 HD
ENDBRANCH  20  21
ENDBRANCH  14  15
ENDBRANCH   6  14
TORSDOF 6
ENDMDL
MODEL 9
REMARK VINA RESULT:      -5.2      4.421      6.190
REMARK  Name = 193826
REMARK  6 active torsions:
REMARK  status: ('A' for Active; 'I' for Inactive)
REMARK    1  A    between atoms: C_2  and  O_8
REMARK    2  A    between atoms: C_3  and  O_10
REMARK    3  A    between atoms: C_4  and  O_12
REMARK    4  A    between atoms: C_6  and  O_14
REMARK    5  A    between atoms: O_14  and  C_15
REMARK    6  A    between atoms: C_20  and  N_21
REMARK                            x       y       z     vdW  Elec       q    Type
REMARK                         _______ _______ _______ _____ _____    ______ ____
ROOT
ATOM      1  O   UNL     1     -38.004  22.674   2.681  0.00  0.00    -0.319 OA
ATOM      2  C   UNL     1     -37.094  25.273   3.514  0.00  0.00    +0.173 C 
ATOM      3  C   UNL     1     -38.518  25.041   2.998  0.00  0.00    +0.167 C 
ATOM      4  C   UNL     1     -36.511  23.983   4.091  0.00  0.00    +0.210 C 
ATOM      5  C   UNL     1     -38.553  23.839   2.045  0.00  0.00    +0.148 C 
ATOM      6  C   UNL     1     -36.642  22.833   3.088  0.00  0.00    +0.318 C 
ATOM      7  C   UNL     1     -39.969  23.488   1.602  0.00  0.00    +0.035 C 
ENDROOT
BRANCH   2   8
ATOM      8  O   UNL     1     -37.097  26.281   4.521  0.00  0.00    -0.379 OA
ATOM      9  H   UNL     1     -36.319  26.850   4.412  0.00  0.00    +0.211 HD
ENDBRANCH   2   8
BRANCH   3  10
ATOM     10  O   UNL     1     -39.400  24.815   4.100  0.00  0.00    -0.379 OA
ATOM     11  H   UNL     1     -39.182  25.428   4.820  0.00  0.00    +0.211 HD
ENDBRANCH   3  10
BRANCH   4  12
ATOM     12  O   UNL     1     -35.141  24.191   4.424  0.00  0.00    -0.377 OA
ATOM     13  H   UNL     1     -34.766  24.867   3.839  0.00  0.00    +0.211 HD
ENDBRANCH   4  12
BRANCH   6  14
ATOM     14  O   UNL     1     -35.775  23.051   1.976  0.00  0.00    -0.451 OA
BRANCH  14  15
ATOM     15  C   UNL     1     -34.998  21.994   1.587  0.00  0.00    +0.141 C 
ATOM     16  C   UNL     1     -34.087  22.153   0.547  0.00  0.00    +0.038 C 
ATOM     17  C   UNL     1     -35.126  20.769   2.233  0.00  0.00    +0.038 C 
ATOM     18  C   UNL     1     -33.295  21.075   0.150  0.00  0.00    +0.017 C 
ATOM     19  C   UNL     1     -34.335  19.691   1.835  0.00  0.00    +0.017 C 
ATOM     20  C   UNL     1     -33.420  19.844   0.795  0.00  0.00    +0.042 C 
BRANCH  20  21
ATOM     21  N   UNL     1     -32.619  18.755   0.393  0.00  0.00    -0.357 N 
ATOM     22  H   UNL     1     -32.071  18.820  -0.422  0.00  0.00    +0.142 HD
ATOM     23  H   UNL     1     -32.608  17.928   0.929  0.00  0.00    +0.142 HD
ENDBRANCH  20  21
ENDBRANCH  14  15
ENDBRANCH   6  14
TORSDOF 6
ENDMDL
