MODEL 1
REMARK VINA RESULT:      -6.5      0.000      0.000
REMARK  Name = 57347160
REMARK  3 active torsions:
REMARK  status: ('A' for Active; 'I' for Inactive)
REMARK    1  A    between atoms: C_6  and  C_14
REMARK    2  A    between atoms: C_19  and  O_20
REMARK    3  A    between atoms: O_20  and  S_21
REMARK                            x       y       z     vdW  Elec       q    Type
REMARK                         _______ _______ _______ _____ _____    ______ ____
ROOT
ATOM      1  N   UNL     1     -35.620  22.864   2.057  0.00  0.00    -0.240 N 
ATOM      2  N   UNL     1     -37.601  22.878   3.076  0.00  0.00    -0.319 NA
ATOM      3  N   UNL     1     -37.082  24.600   4.706  0.00  0.00    -0.181 NA
ATOM      4  N   UNL     1     -37.242  21.372   1.237  0.00  0.00    -0.320 N 
ATOM      5  C   UNL     1     -35.520  23.808   3.044  0.00  0.00    +0.130 C 
ATOM      6  C   UNL     1     -34.810  25.487   4.532  0.00  0.00    +0.022 C 
ATOM      7  C   UNL     1     -34.500  24.655   3.460  0.00  0.00    +0.028 C 
ATOM      8  C   UNL     1     -36.765  23.796   3.662  0.00  0.00    +0.105 C 
ATOM      9  C   UNL     1     -36.883  22.337   2.116  0.00  0.00    +0.250 C 
ATOM     10  C   UNL     1     -36.078  25.419   5.099  0.00  0.00    +0.111 C 
ATOM     11  C   UNL     1     -34.572  22.502   1.130  0.00  0.00    +0.122 C 
ATOM     12  H   UNL     1     -36.599  21.055   0.563  0.00  0.00    +0.146 HD
ATOM     13  H   UNL     1     -38.148  20.987   1.272  0.00  0.00    +0.146 HD
ENDROOT
BRANCH   6  14
ATOM     14  C   UNL     1     -33.825  26.410   5.048  0.00  0.00    +0.002 C 
ATOM     15  C   UNL     1     -33.545  26.441   6.415  0.00  0.00    +0.003 C 
ATOM     16  C   UNL     1     -33.153  27.272   4.180  0.00  0.00    +0.003 C 
ATOM     17  C   UNL     1     -32.596  27.332   6.913  0.00  0.00    +0.040 C 
ATOM     18  C   UNL     1     -32.204  28.163   4.678  0.00  0.00    +0.040 C 
ATOM     19  C   UNL     1     -31.925  28.194   6.044  0.00  0.00    +0.176 C 
BRANCH  19  20
ATOM     20  O   UNL     1     -30.999  29.065   6.531  0.00  0.00    -0.322 OA
BRANCH  20  21
ATOM     21  S   UNL     1     -29.369  28.840   6.451  0.00  0.00    +0.282 S 
ATOM     22  O   UNL     1     -28.871  29.501   7.656  0.00  0.00    -0.105 OA
ATOM     23  O   UNL     1     -28.965  29.499   5.209  0.00  0.00    -0.105 OA
ATOM     24  O   UNL     1     -29.195  27.388   6.461  0.00  0.00    -0.012 OA
ENDBRANCH  20  21
ENDBRANCH  19  20
ENDBRANCH   6  14
TORSDOF 3
ENDMDL
MODEL 2
REMARK VINA RESULT:      -6.4      1.310      2.020
REMARK  Name = 57347160
REMARK  3 active torsions:
REMARK  status: ('A' for Active; 'I' for Inactive)
REMARK    1  A    between atoms: C_6  and  C_14
REMARK    2  A    between atoms: C_19  and  O_20
REMARK    3  A    between atoms: O_20  and  S_21
REMARK                            x       y       z     vdW  Elec       q    Type
REMARK                         _______ _______ _______ _____ _____    ______ ____
ROOT
ATOM      1  N   UNL     1     -37.929  24.950   2.969  0.00  0.00    -0.240 N 
ATOM      2  N   UNL     1     -37.453  22.806   3.345  0.00  0.00    -0.319 NA
ATOM      3  N   UNL     1     -35.329  23.167   4.463  0.00  0.00    -0.181 NA
ATOM      4  N   UNL     1     -39.500  23.370   2.217  0.00  0.00    -0.320 N 
ATOM      5  C   UNL     1     -36.723  24.948   3.616  0.00  0.00    +0.130 C 
ATOM      6  C   UNL     1     -34.697  25.521   4.669  0.00  0.00    +0.022 C 
ATOM      7  C   UNL     1     -35.853  25.953   4.024  0.00  0.00    +0.028 C 
ATOM      8  C   UNL     1     -36.450  23.604   3.837  0.00  0.00    +0.105 C 
ATOM      9  C   UNL     1     -38.325  23.646   2.831  0.00  0.00    +0.250 C 
ATOM     10  C   UNL     1     -34.493  24.158   4.855  0.00  0.00    +0.111 C 
ATOM     11  C   UNL     1     -38.642  26.124   2.519  0.00  0.00    +0.122 C 
ATOM     12  H   UNL     1     -40.061  24.102   1.874  0.00  0.00    +0.146 HD
ATOM     13  H   UNL     1     -39.793  22.435   2.113  0.00  0.00    +0.146 HD
ENDROOT
BRANCH   6  14
ATOM     14  C   UNL     1     -33.721  26.479   5.137  0.00  0.00    +0.002 C 
ATOM     15  C   UNL     1     -33.417  26.557   6.496  0.00  0.00    +0.003 C 
ATOM     16  C   UNL     1     -33.085  27.326   4.229  0.00  0.00    +0.003 C 
ATOM     17  C   UNL     1     -32.477  27.483   6.948  0.00  0.00    +0.040 C 
ATOM     18  C   UNL     1     -32.145  28.252   4.681  0.00  0.00    +0.040 C 
ATOM     19  C   UNL     1     -31.840  28.331   6.040  0.00  0.00    +0.176 C 
BRANCH  19  20
ATOM     20  O   UNL     1     -30.924  29.235   6.482  0.00  0.00    -0.322 OA
BRANCH  20  21
ATOM     21  S   UNL     1     -29.299  28.973   6.529  0.00  0.00    +0.282 S 
ATOM     22  O   UNL     1     -28.788  29.779   5.420  0.00  0.00    -0.105 OA
ATOM     23  O   UNL     1     -29.149  27.532   6.326  0.00  0.00    -0.105 OA
ATOM     24  O   UNL     1     -28.884  29.455   7.846  0.00  0.00    -0.012 OA
ENDBRANCH  20  21
ENDBRANCH  19  20
ENDBRANCH   6  14
TORSDOF 3
ENDMDL
MODEL 3
REMARK VINA RESULT:      -6.3      7.698      9.605
REMARK  Name = 57347160
REMARK  3 active torsions:
REMARK  status: ('A' for Active; 'I' for Inactive)
REMARK    1  A    between atoms: C_6  and  C_14
REMARK    2  A    between atoms: C_19  and  O_20
REMARK    3  A    between atoms: O_20  and  S_21
REMARK                            x       y       z     vdW  Elec       q    Type
REMARK                         _______ _______ _______ _____ _____    ______ ____
ROOT
ATOM      1  N   UNL     1     -36.356  24.767   3.537  0.00  0.00    -0.240 N 
ATOM      2  N   UNL     1     -35.912  24.174   5.638  0.00  0.00    -0.319 NA
ATOM      3  N   UNL     1     -35.345  21.859   5.177  0.00  0.00    -0.181 NA
ATOM      4  N   UNL     1     -36.588  26.434   5.178  0.00  0.00    -0.320 N 
ATOM      5  C   UNL     1     -36.005  23.445   3.480  0.00  0.00    +0.130 C 
ATOM      6  C   UNL     1     -35.497  21.246   2.814  0.00  0.00    +0.022 C 
ATOM      7  C   UNL     1     -35.895  22.526   2.442  0.00  0.00    +0.028 C 
ATOM      8  C   UNL     1     -35.734  23.102   4.799  0.00  0.00    +0.105 C 
ATOM      9  C   UNL     1     -36.285  25.157   4.847  0.00  0.00    +0.250 C 
ATOM     10  C   UNL     1     -35.244  20.976   4.155  0.00  0.00    +0.111 C 
ATOM     11  C   UNL     1     -36.732  25.588   2.407  0.00  0.00    +0.122 C 
ATOM     12  H   UNL     1     -36.856  27.074   4.480  0.00  0.00    +0.146 HD
ATOM     13  H   UNL     1     -36.540  26.724   6.118  0.00  0.00    +0.146 HD
ENDROOT
BRANCH   6  14
ATOM     14  C   UNL     1     -35.349  20.209   1.818  0.00  0.00    +0.002 C 
ATOM     15  C   UNL     1     -34.104  19.619   1.604  0.00  0.00    +0.003 C 
ATOM     16  C   UNL     1     -36.453  19.800   1.068  0.00  0.00    +0.003 C 
ATOM     17  C   UNL     1     -33.962  18.620   0.641  0.00  0.00    +0.040 C 
ATOM     18  C   UNL     1     -36.311  18.801   0.106  0.00  0.00    +0.040 C 
ATOM     19  C   UNL     1     -35.065  18.211  -0.108  0.00  0.00    +0.176 C 
BRANCH  19  20
ATOM     20  O   UNL     1     -34.926  17.237  -1.049  0.00  0.00    -0.322 OA
BRANCH  20  21
ATOM     21  S   UNL     1     -34.804  15.628  -0.719  0.00  0.00    +0.282 S 
ATOM     22  O   UNL     1     -35.015  14.993  -2.020  0.00  0.00    -0.105 OA
ATOM     23  O   UNL     1     -35.873  15.365   0.244  0.00  0.00    -0.105 OA
ATOM     24  O   UNL     1     -33.449  15.459  -0.195  0.00  0.00    -0.012 OA
ENDBRANCH  20  21
ENDBRANCH  19  20
ENDBRANCH   6  14
TORSDOF 3
ENDMDL
MODEL 4
REMARK VINA RESULT:      -6.3      7.131      9.295
REMARK  Name = 57347160
REMARK  3 active torsions:
REMARK  status: ('A' for Active; 'I' for Inactive)
REMARK    1  A    between atoms: C_6  and  C_14
REMARK    2  A    between atoms: C_19  and  O_20
REMARK    3  A    between atoms: O_20  and  S_21
REMARK                            x       y       z     vdW  Elec       q    Type
REMARK                         _______ _______ _______ _____ _____    ______ ____
ROOT
ATOM      1  N   UNL     1     -35.529  24.534   4.059  0.00  0.00    -0.240 N 
ATOM      2  N   UNL     1     -37.756  24.497   4.010  0.00  0.00    -0.319 NA
ATOM      3  N   UNL     1     -37.987  22.521   2.619  0.00  0.00    -0.181 NA
ATOM      4  N   UNL     1     -36.641  26.234   5.243  0.00  0.00    -0.320 N 
ATOM      5  C   UNL     1     -35.863  23.450   3.293  0.00  0.00    +0.130 C 
ATOM      6  C   UNL     1     -35.861  21.524   1.940  0.00  0.00    +0.022 C 
ATOM      7  C   UNL     1     -35.120  22.485   2.622  0.00  0.00    +0.028 C 
ATOM      8  C   UNL     1     -37.252  23.450   3.279  0.00  0.00    +0.105 C 
ATOM      9  C   UNL     1     -36.695  25.128   4.465  0.00  0.00    +0.250 C 
ATOM     10  C   UNL     1     -37.249  21.590   1.971  0.00  0.00    +0.111 C 
ATOM     11  C   UNL     1     -34.184  24.962   4.372  0.00  0.00    +0.122 C 
ATOM     12  H   UNL     1     -35.771  26.606   5.513  0.00  0.00    +0.146 HD
ATOM     13  H   UNL     1     -37.474  26.668   5.540  0.00  0.00    +0.146 HD
ENDROOT
BRANCH   6  14
ATOM     14  C   UNL     1     -35.192  20.473   1.207  0.00  0.00    +0.002 C 
ATOM     15  C   UNL     1     -35.608  20.150  -0.085  0.00  0.00    +0.003 C 
ATOM     16  C   UNL     1     -34.132  19.780   1.792  0.00  0.00    +0.003 C 
ATOM     17  C   UNL     1     -34.964  19.134  -0.791  0.00  0.00    +0.040 C 
ATOM     18  C   UNL     1     -33.488  18.764   1.086  0.00  0.00    +0.040 C 
ATOM     19  C   UNL     1     -33.904  18.441  -0.206  0.00  0.00    +0.176 C 
BRANCH  19  20
ATOM     20  O   UNL     1     -33.277  17.449  -0.894  0.00  0.00    -0.322 OA
BRANCH  20  21
ATOM     21  S   UNL     1     -33.406  15.844  -0.548  0.00  0.00    +0.282 S 
ATOM     22  O   UNL     1     -33.328  15.201  -1.859  0.00  0.00    -0.105 OA
ATOM     23  O   UNL     1     -34.713  15.707   0.096  0.00  0.00    -0.105 OA
ATOM     24  O   UNL     1     -32.262  15.558   0.317  0.00  0.00    -0.012 OA
ENDBRANCH  20  21
ENDBRANCH  19  20
ENDBRANCH   6  14
TORSDOF 3
ENDMDL
MODEL 5
REMARK VINA RESULT:      -6.1      1.459      2.145
REMARK  Name = 57347160
REMARK  3 active torsions:
REMARK  status: ('A' for Active; 'I' for Inactive)
REMARK    1  A    between atoms: C_6  and  C_14
REMARK    2  A    between atoms: C_19  and  O_20
REMARK    3  A    between atoms: O_20  and  S_21
REMARK                            x       y       z     vdW  Elec       q    Type
REMARK                         _______ _______ _______ _____ _____    ______ ____
ROOT
ATOM      1  N   UNL     1     -36.761  21.955   1.886  0.00  0.00    -0.240 N 
ATOM      2  N   UNL     1     -38.807  22.634   2.447  0.00  0.00    -0.319 NA
ATOM      3  N   UNL     1     -38.132  24.604   3.695  0.00  0.00    -0.181 NA
ATOM      4  N   UNL     1     -38.557  20.639   1.129  0.00  0.00    -0.320 N 
ATOM      5  C   UNL     1     -36.582  23.096   2.621  0.00  0.00    +0.130 C 
ATOM      6  C   UNL     1     -35.713  24.949   3.783  0.00  0.00    +0.022 C 
ATOM      7  C   UNL     1     -35.459  23.810   3.024  0.00  0.00    +0.028 C 
ATOM      8  C   UNL     1     -37.869  23.497   2.957  0.00  0.00    +0.105 C 
ATOM      9  C   UNL     1     -38.108  21.720   1.809  0.00  0.00    +0.250 C 
ATOM     10  C   UNL     1     -37.029  25.288   4.079  0.00  0.00    +0.111 C 
ATOM     11  C   UNL     1     -35.707  21.154   1.304  0.00  0.00    +0.122 C 
ATOM     12  H   UNL     1     -37.918  20.030   0.695  0.00  0.00    +0.146 HD
ATOM     13  H   UNL     1     -39.524  20.463   1.068  0.00  0.00    +0.146 HD
ENDROOT
BRANCH   6  14
ATOM     14  C   UNL     1     -34.620  25.769   4.256  0.00  0.00    +0.002 C 
ATOM     15  C   UNL     1     -33.785  26.413   3.343  0.00  0.00    +0.003 C 
ATOM     16  C   UNL     1     -34.400  25.914   5.626  0.00  0.00    +0.003 C 
ATOM     17  C   UNL     1     -32.730  27.202   3.800  0.00  0.00    +0.040 C 
ATOM     18  C   UNL     1     -33.345  26.703   6.083  0.00  0.00    +0.040 C 
ATOM     19  C   UNL     1     -32.510  27.347   5.171  0.00  0.00    +0.176 C 
BRANCH  19  20
ATOM     20  O   UNL     1     -31.479  28.116   5.616  0.00  0.00    -0.322 OA
BRANCH  20  21
ATOM     21  S   UNL     1     -31.612  29.699   6.052  0.00  0.00    +0.282 S 
ATOM     22  O   UNL     1     -32.791  30.160   5.319  0.00  0.00    -0.105 OA
ATOM     23  O   UNL     1     -30.363  30.314   5.603  0.00  0.00    -0.105 OA
ATOM     24  O   UNL     1     -31.796  29.669   7.503  0.00  0.00    -0.012 OA
ENDBRANCH  20  21
ENDBRANCH  19  20
ENDBRANCH   6  14
TORSDOF 3
ENDMDL
MODEL 6
REMARK VINA RESULT:      -6.0      2.258      3.456
REMARK  Name = 57347160
REMARK  3 active torsions:
REMARK  status: ('A' for Active; 'I' for Inactive)
REMARK    1  A    between atoms: C_6  and  C_14
REMARK    2  A    between atoms: C_19  and  O_20
REMARK    3  A    between atoms: O_20  and  S_21
REMARK                            x       y       z     vdW  Elec       q    Type
REMARK                         _______ _______ _______ _____ _____    ______ ____
ROOT
ATOM      1  N   UNL     1     -38.430  21.604   0.674  0.00  0.00    -0.240 N 
ATOM      2  N   UNL     1     -40.444  22.401   1.197  0.00  0.00    -0.319 NA
ATOM      3  N   UNL     1     -39.694  24.074   2.788  0.00  0.00    -0.181 NA
ATOM      4  N   UNL     1     -40.271  20.616  -0.405  0.00  0.00    -0.320 N 
ATOM      5  C   UNL     1     -38.207  22.593   1.593  0.00  0.00    +0.130 C 
ATOM      6  C   UNL     1     -37.269  24.145   3.094  0.00  0.00    +0.022 C 
ATOM      7  C   UNL     1     -37.060  23.115   2.181  0.00  0.00    +0.028 C 
ATOM      8  C   UNL     1     -39.475  23.071   1.901  0.00  0.00    +0.105 C 
ATOM      9  C   UNL     1     -39.782  21.527   0.469  0.00  0.00    +0.250 C 
ATOM     10  C   UNL     1     -38.568  24.571   3.351  0.00  0.00    +0.111 C 
ATOM     11  C   UNL     1     -37.411  20.795   0.044  0.00  0.00    +0.122 C 
ATOM     12  H   UNL     1     -39.658  20.017  -0.887  0.00  0.00    +0.146 HD
ATOM     13  H   UNL     1     -41.242  20.554  -0.558  0.00  0.00    +0.146 HD
ENDROOT
BRANCH   6  14
ATOM     14  C   UNL     1     -36.148  24.762   3.765  0.00  0.00    +0.002 C 
ATOM     15  C   UNL     1     -34.877  24.711   3.193  0.00  0.00    +0.003 C 
ATOM     16  C   UNL     1     -36.337  25.409   4.987  0.00  0.00    +0.003 C 
ATOM     17  C   UNL     1     -33.795  25.305   3.842  0.00  0.00    +0.040 C 
ATOM     18  C   UNL     1     -35.255  26.003   5.636  0.00  0.00    +0.040 C 
ATOM     19  C   UNL     1     -33.984  25.952   5.064  0.00  0.00    +0.176 C 
BRANCH  19  20
ATOM     20  O   UNL     1     -32.928  26.530   5.698  0.00  0.00    -0.322 OA
BRANCH  20  21
ATOM     21  S   UNL     1     -32.306  28.008   5.322  0.00  0.00    +0.282 S 
ATOM     22  O   UNL     1     -32.220  28.685   6.615  0.00  0.00    -0.105 OA
ATOM     23  O   UNL     1     -33.285  28.601   4.411  0.00  0.00    -0.105 OA
ATOM     24  O   UNL     1     -31.004  27.719   4.721  0.00  0.00    -0.012 OA
ENDBRANCH  20  21
ENDBRANCH  19  20
ENDBRANCH   6  14
TORSDOF 3
ENDMDL
MODEL 7
REMARK VINA RESULT:      -6.0      4.068      6.025
REMARK  Name = 57347160
REMARK  3 active torsions:
REMARK  status: ('A' for Active; 'I' for Inactive)
REMARK    1  A    between atoms: C_6  and  C_14
REMARK    2  A    between atoms: C_19  and  O_20
REMARK    3  A    between atoms: O_20  and  S_21
REMARK                            x       y       z     vdW  Elec       q    Type
REMARK                         _______ _______ _______ _____ _____    ______ ____
ROOT
ATOM      1  N   UNL     1     -33.748  17.770   0.276  0.00  0.00    -0.240 N 
ATOM      2  N   UNL     1     -35.722  17.407  -0.690  0.00  0.00    -0.319 NA
ATOM      3  N   UNL     1     -36.900  19.262   0.341  0.00  0.00    -0.181 NA
ATOM      4  N   UNL     1     -33.886  15.939  -1.192  0.00  0.00    -0.320 N 
ATOM      5  C   UNL     1     -34.576  18.752   0.750  0.00  0.00    +0.130 C 
ATOM      6  C   UNL     1     -35.524  20.601   1.855  0.00  0.00    +0.022 C 
ATOM      7  C   UNL     1     -34.400  19.811   1.633  0.00  0.00    +0.028 C 
ATOM      8  C   UNL     1     -35.796  18.502   0.134  0.00  0.00    +0.105 C 
ATOM      9  C   UNL     1     -34.479  16.992  -0.581  0.00  0.00    +0.250 C 
ATOM     10  C   UNL     1     -36.712  20.289   1.203  0.00  0.00    +0.111 C 
ATOM     11  C   UNL     1     -32.356  17.601   0.628  0.00  0.00    +0.122 C 
ATOM     12  H   UNL     1     -32.938  15.738  -1.019  0.00  0.00    +0.146 HD
ATOM     13  H   UNL     1     -34.403  15.373  -1.810  0.00  0.00    +0.146 HD
ENDROOT
BRANCH   6  14
ATOM     14  C   UNL     1     -35.457  21.730   2.755  0.00  0.00    +0.002 C 
ATOM     15  C   UNL     1     -35.493  23.030   2.248  0.00  0.00    +0.003 C 
ATOM     16  C   UNL     1     -35.353  21.521   4.130  0.00  0.00    +0.003 C 
ATOM     17  C   UNL     1     -35.426  24.119   3.116  0.00  0.00    +0.040 C 
ATOM     18  C   UNL     1     -35.285  22.611   4.998  0.00  0.00    +0.040 C 
ATOM     19  C   UNL     1     -35.322  23.910   4.491  0.00  0.00    +0.176 C 
BRANCH  19  20
ATOM     20  O   UNL     1     -35.255  24.973   5.338  0.00  0.00    -0.322 OA
BRANCH  20  21
ATOM     21  S   UNL     1     -34.171  26.207   5.206  0.00  0.00    +0.282 S 
ATOM     22  O   UNL     1     -34.925  27.256   4.521  0.00  0.00    -0.105 OA
ATOM     23  O   UNL     1     -33.076  25.654   4.409  0.00  0.00    -0.105 OA
ATOM     24  O   UNL     1     -33.820  26.540   6.587  0.00  0.00    -0.012 OA
ENDBRANCH  20  21
ENDBRANCH  19  20
ENDBRANCH   6  14
TORSDOF 3
ENDMDL
MODEL 8
REMARK VINA RESULT:      -6.0      1.483      2.363
REMARK  Name = 57347160
REMARK  3 active torsions:
REMARK  status: ('A' for Active; 'I' for Inactive)
REMARK    1  A    between atoms: C_6  and  C_14
REMARK    2  A    between atoms: C_19  and  O_20
REMARK    3  A    between atoms: O_20  and  S_21
REMARK                            x       y       z     vdW  Elec       q    Type
REMARK                         _______ _______ _______ _____ _____    ______ ____
ROOT
ATOM      1  N   UNL     1     -35.732  20.815   1.817  0.00  0.00    -0.240 N 
ATOM      2  N   UNL     1     -37.941  21.066   1.963  0.00  0.00    -0.319 NA
ATOM      3  N   UNL     1     -37.919  23.260   3.001  0.00  0.00    -0.181 NA
ATOM      4  N   UNL     1     -37.054  19.051   0.999  0.00  0.00    -0.320 N 
ATOM      5  C   UNL     1     -35.925  22.039   2.399  0.00  0.00    +0.130 C 
ATOM      6  C   UNL     1     -35.679  24.155   3.397  0.00  0.00    +0.022 C 
ATOM      7  C   UNL     1     -35.064  23.029   2.857  0.00  0.00    +0.028 C 
ATOM      8  C   UNL     1     -37.307  22.170   2.478  0.00  0.00    +0.105 C 
ATOM      9  C   UNL     1     -36.966  20.272   1.575  0.00  0.00    +0.250 C 
ATOM     10  C   UNL     1     -37.067  24.215   3.443  0.00  0.00    +0.111 C 
ATOM     11  C   UNL     1     -34.449  20.217   1.520  0.00  0.00    +0.122 C 
ATOM     12  H   UNL     1     -36.236  18.560   0.757  0.00  0.00    +0.146 HD
ATOM     13  H   UNL     1     -37.937  18.653   0.820  0.00  0.00    +0.146 HD
ENDROOT
BRANCH   6  14
ATOM     14  C   UNL     1     -34.881  25.248   3.905  0.00  0.00    +0.002 C 
ATOM     15  C   UNL     1     -34.534  26.308   3.066  0.00  0.00    +0.003 C 
ATOM     16  C   UNL     1     -34.455  25.243   5.234  0.00  0.00    +0.003 C 
ATOM     17  C   UNL     1     -33.763  27.362   3.556  0.00  0.00    +0.040 C 
ATOM     18  C   UNL     1     -33.684  26.297   5.724  0.00  0.00    +0.040 C 
ATOM     19  C   UNL     1     -33.338  27.356   4.885  0.00  0.00    +0.176 C 
BRANCH  19  20
ATOM     20  O   UNL     1     -32.584  28.384   5.362  0.00  0.00    -0.322 OA
BRANCH  20  21
ATOM     21  S   UNL     1     -30.940  28.454   5.281  0.00  0.00    +0.282 S 
ATOM     22  O   UNL     1     -30.505  27.748   6.486  0.00  0.00    -0.105 OA
ATOM     23  O   UNL     1     -30.630  29.884   5.294  0.00  0.00    -0.105 OA
ATOM     24  O   UNL     1     -30.601  27.762   4.038  0.00  0.00    -0.012 OA
ENDBRANCH  20  21
ENDBRANCH  19  20
ENDBRANCH   6  14
TORSDOF 3
ENDMDL
MODEL 9
REMARK VINA RESULT:      -5.9      6.571      8.616
REMARK  Name = 57347160
REMARK  3 active torsions:
REMARK  status: ('A' for Active; 'I' for Inactive)
REMARK    1  A    between atoms: C_6  and  C_14
REMARK    2  A    between atoms: C_19  and  O_20
REMARK    3  A    between atoms: O_20  and  S_21
REMARK                            x       y       z     vdW  Elec       q    Type
REMARK                         _______ _______ _______ _____ _____    ______ ____
ROOT
ATOM      1  N   UNL     1     -36.452  24.689   3.062  0.00  0.00    -0.240 N 
ATOM      2  N   UNL     1     -38.456  23.719   2.994  0.00  0.00    -0.319 NA
ATOM      3  N   UNL     1     -37.716  21.575   2.128  0.00  0.00    -0.181 NA
ATOM      4  N   UNL     1     -38.279  25.985   3.776  0.00  0.00    -0.320 N 
ATOM      5  C   UNL     1     -36.233  23.426   2.582  0.00  0.00    +0.130 C 
ATOM      6  C   UNL     1     -35.305  21.433   1.744  0.00  0.00    +0.022 C 
ATOM      7  C   UNL     1     -35.094  22.738   2.179  0.00  0.00    +0.028 C 
ATOM      8  C   UNL     1     -37.495  22.845   2.549  0.00  0.00    +0.105 C 
ATOM      9  C   UNL     1     -37.795  24.817   3.294  0.00  0.00    +0.250 C 
ATOM     10  C   UNL     1     -36.597  20.919   1.739  0.00  0.00    +0.111 C 
ATOM     11  C   UNL     1     -35.436  25.695   3.279  0.00  0.00    +0.122 C 
ATOM     12  H   UNL     1     -37.668  26.734   3.959  0.00  0.00    +0.146 HD
ATOM     13  H   UNL     1     -39.244  26.086   3.946  0.00  0.00    +0.146 HD
ENDROOT
BRANCH   6  14
ATOM     14  C   UNL     1     -34.193  20.623   1.301  0.00  0.00    +0.002 C 
ATOM     15  C   UNL     1     -33.303  21.120   0.348  0.00  0.00    +0.003 C 
ATOM     16  C   UNL     1     -34.009  19.343   1.826  0.00  0.00    +0.003 C 
ATOM     17  C   UNL     1     -32.231  20.337  -0.080  0.00  0.00    +0.040 C 
ATOM     18  C   UNL     1     -32.937  18.561   1.398  0.00  0.00    +0.040 C 
ATOM     19  C   UNL     1     -32.047  19.058   0.445  0.00  0.00    +0.176 C 
BRANCH  19  20
ATOM     20  O   UNL     1     -31.002  18.294   0.026  0.00  0.00    -0.322 OA
BRANCH  20  21
ATOM     21  S   UNL     1     -31.151  16.854  -0.760  0.00  0.00    +0.282 S 
ATOM     22  O   UNL     1     -29.929  16.770  -1.560  0.00  0.00    -0.105 OA
ATOM     23  O   UNL     1     -32.368  16.992  -1.559  0.00  0.00    -0.105 OA
ATOM     24  O   UNL     1     -31.225  15.856   0.307  0.00  0.00    -0.012 OA
ENDBRANCH  20  21
ENDBRANCH  19  20
ENDBRANCH   6  14
TORSDOF 3
ENDMDL
