MODEL 1
REMARK VINA RESULT:      -7.1      0.000      0.000
REMARK  Name = 57090268
REMARK  12 active torsions:
REMARK  status: ('A' for Active; 'I' for Inactive)
REMARK    1  A    between atoms: O_1  and  C_3
REMARK    2  A    between atoms: O_1  and  C_19
REMARK    3  A    between atoms: C_3  and  C_4
REMARK    4  A    between atoms: C_4  and  N_6
REMARK    5  A    between atoms: C_4  and  C_11
REMARK    6  A    between atoms: C_7  and  O_9
REMARK    7  A    between atoms: C_11  and  C_12
REMARK    8  A    between atoms: C_19  and  C_20
REMARK    9  A    between atoms: C_20  and  N_22
REMARK   10  A    between atoms: C_20  and  C_27
REMARK   11  A    between atoms: C_23  and  O_25
REMARK   12  A    between atoms: C_27  and  C_28
REMARK                            x       y       z     vdW  Elec       q    Type
REMARK                         _______ _______ _______ _____ _____    ______ ____
ROOT
ATOM      1  O   UNL     1     -35.957  22.594   2.687  0.00  0.00    -0.390 OA
ENDROOT
BRANCH   1   3
ATOM      2  O   UNL     1     -38.258  22.536   2.979  0.00  0.00    -0.248 OA
ATOM      3  C   UNL     1     -37.172  23.095   3.064  0.00  0.00    +0.342 C 
BRANCH   3   4
ATOM      4  C   UNL     1     -36.975  24.509   3.582  0.00  0.00    +0.179 C 
BRANCH   4   6
ATOM      5  O   UNL     1     -38.311  26.673   2.145  0.00  0.00    -0.227 OA
ATOM      6  N   UNL     1     -38.299  25.036   3.802  0.00  0.00    -0.262 N 
ATOM      7  C   UNL     1     -38.843  26.065   3.066  0.00  0.00    +0.399 C 
ATOM      8  H   UNL     1     -38.845  24.637   4.518  0.00  0.00    +0.153 HD
BRANCH   7   9
ATOM      9  O   UNL     1     -40.102  26.347   3.496  0.00  0.00    -0.466 OA
ATOM     10  H   UNL     1     -40.345  26.174   4.384  0.00  0.00    +0.297 HD
ENDBRANCH   7   9
ENDBRANCH   4   6
BRANCH   4  11
ATOM     11  C   UNL     1     -36.151  24.535   4.871  0.00  0.00    +0.058 C 
BRANCH  11  12
ATOM     12  C   UNL     1     -35.026  25.541   4.853  0.00  0.00    -0.020 C 
ATOM     13  C   UNL     1     -34.667  26.163   3.657  0.00  0.00    -0.004 C 
ATOM     14  C   UNL     1     -34.347  25.850   6.032  0.00  0.00    -0.004 C 
ATOM     15  C   UNL     1     -33.627  27.094   3.640  0.00  0.00    -0.000 C 
ATOM     16  C   UNL     1     -33.308  26.780   6.014  0.00  0.00    -0.000 C 
ATOM     17  C   UNL     1     -32.947  27.402   4.819  0.00  0.00    -0.000 C 
ENDBRANCH  11  12
ENDBRANCH   4  11
ENDBRANCH   3   4
ENDBRANCH   1   3
BRANCH   1  19
ATOM     18  O   UNL     1     -35.368  20.923   4.174  0.00  0.00    -0.248 OA
ATOM     19  C   UNL     1     -35.652  21.313   3.045  0.00  0.00    +0.342 C 
BRANCH  19  20
ATOM     20  C   UNL     1     -35.624  20.389   1.832  0.00  0.00    +0.179 C 
BRANCH  20  22
ATOM     21  O   UNL     1     -36.500  18.281   0.008  0.00  0.00    -0.227 OA
ATOM     22  N   UNL     1     -36.929  20.205   1.248  0.00  0.00    -0.262 N 
ATOM     23  C   UNL     1     -37.247  19.172   0.394  0.00  0.00    +0.399 C 
ATOM     24  H   UNL     1     -37.634  20.855   1.475  0.00  0.00    +0.153 HD
BRANCH  23  25
ATOM     25  O   UNL     1     -38.547  19.253   0.005  0.00  0.00    -0.466 OA
ATOM     26  H   UNL     1     -39.134  18.545   0.182  0.00  0.00    +0.297 HD
ENDBRANCH  23  25
ENDBRANCH  20  22
BRANCH  20  27
ATOM     27  C   UNL     1     -34.596  20.820   0.777  0.00  0.00    +0.058 C 
BRANCH  27  28
ATOM     28  C   UNL     1     -33.335  19.988   0.730  0.00  0.00    -0.020 C 
ATOM     29  C   UNL     1     -33.284  18.761   1.390  0.00  0.00    -0.004 C 
ATOM     30  C   UNL     1     -32.223  20.450   0.026  0.00  0.00    -0.004 C 
ATOM     31  C   UNL     1     -32.119  17.994   1.346  0.00  0.00    -0.000 C 
ATOM     32  C   UNL     1     -31.058  19.682  -0.018  0.00  0.00    -0.000 C 
ATOM     33  C   UNL     1     -31.007  18.455   0.642  0.00  0.00    -0.000 C 
ENDBRANCH  27  28
ENDBRANCH  20  27
ENDBRANCH  19  20
ENDBRANCH   1  19
TORSDOF 12
ENDMDL
MODEL 2
REMARK VINA RESULT:      -7.1      1.025      7.130
REMARK  Name = 57090268
REMARK  12 active torsions:
REMARK  status: ('A' for Active; 'I' for Inactive)
REMARK    1  A    between atoms: O_1  and  C_3
REMARK    2  A    between atoms: O_1  and  C_19
REMARK    3  A    between atoms: C_3  and  C_4
REMARK    4  A    between atoms: C_4  and  N_6
REMARK    5  A    between atoms: C_4  and  C_11
REMARK    6  A    between atoms: C_7  and  O_9
REMARK    7  A    between atoms: C_11  and  C_12
REMARK    8  A    between atoms: C_19  and  C_20
REMARK    9  A    between atoms: C_20  and  N_22
REMARK   10  A    between atoms: C_20  and  C_27
REMARK   11  A    between atoms: C_23  and  O_25
REMARK   12  A    between atoms: C_27  and  C_28
REMARK                            x       y       z     vdW  Elec       q    Type
REMARK                         _______ _______ _______ _____ _____    ______ ____
ROOT
ATOM      1  O   UNL     1     -35.728  22.656   3.363  0.00  0.00    -0.390 OA
ENDROOT
BRANCH   1   3
ATOM      2  O   UNL     1     -38.007  22.502   2.957  0.00  0.00    -0.248 OA
ATOM      3  C   UNL     1     -36.847  22.169   2.747  0.00  0.00    +0.342 C 
BRANCH   3   4
ATOM      4  C   UNL     1     -36.431  21.090   1.763  0.00  0.00    +0.179 C 
BRANCH   4   6
ATOM      5  O   UNL     1     -36.969  18.639   0.268  0.00  0.00    -0.227 OA
ATOM      6  N   UNL     1     -37.625  20.738   1.036  0.00  0.00    -0.262 N 
ATOM      7  C   UNL     1     -37.784  19.549   0.358  0.00  0.00    +0.399 C 
ATOM      8  H   UNL     1     -38.369  21.383   1.024  0.00  0.00    +0.153 HD
BRANCH   7   9
ATOM      9  O   UNL     1     -39.008  19.494  -0.230  0.00  0.00    -0.466 OA
ATOM     10  H   UNL     1     -39.078  19.374  -1.157  0.00  0.00    +0.297 HD
ENDBRANCH   7   9
ENDBRANCH   4   6
BRANCH   4  11
ATOM     11  C   UNL     1     -35.332  21.575   0.816  0.00  0.00    +0.058 C 
BRANCH  11  12
ATOM     12  C   UNL     1     -34.117  20.680   0.784  0.00  0.00    -0.020 C 
ATOM     13  C   UNL     1     -33.000  21.048   0.036  0.00  0.00    -0.004 C 
ATOM     14  C   UNL     1     -34.113  19.485   1.503  0.00  0.00    -0.004 C 
ATOM     15  C   UNL     1     -31.876  20.221   0.007  0.00  0.00    -0.000 C 
ATOM     16  C   UNL     1     -32.991  18.657   1.474  0.00  0.00    -0.000 C 
ATOM     17  C   UNL     1     -31.872  19.025   0.726  0.00  0.00    -0.000 C 
ENDBRANCH  11  12
ENDBRANCH   4  11
ENDBRANCH   3   4
ENDBRANCH   1   3
BRANCH   1  19
ATOM     18  O   UNL     1     -35.995  22.468   5.652  0.00  0.00    -0.248 OA
ATOM     19  C   UNL     1     -35.853  23.137   4.634  0.00  0.00    +0.342 C 
BRANCH  19  20
ATOM     20  C   UNL     1     -35.877  24.663   4.650  0.00  0.00    +0.179 C 
BRANCH  20  22
ATOM     21  O   UNL     1     -36.887  26.257   2.419  0.00  0.00    -0.227 OA
ATOM     22  N   UNL     1     -37.204  25.195   4.468  0.00  0.00    -0.262 N 
ATOM     23  C   UNL     1     -37.586  25.940   3.373  0.00  0.00    +0.399 C 
ATOM     24  H   UNL     1     -37.876  25.014   5.165  0.00  0.00    +0.153 HD
BRANCH  23  25
ATOM     25  O   UNL     1     -38.892  26.304   3.473  0.00  0.00    -0.466 OA
ATOM     26  H   UNL     1     -39.308  26.331   4.312  0.00  0.00    +0.297 HD
ENDBRANCH  23  25
ENDBRANCH  20  22
BRANCH  20  27
ATOM     27  C   UNL     1     -35.202  25.257   5.894  0.00  0.00    +0.058 C 
BRANCH  27  28
ATOM     28  C   UNL     1     -34.119  26.273   5.614  0.00  0.00    -0.020 C 
ATOM     29  C   UNL     1     -33.291  26.714   6.647  0.00  0.00    -0.004 C 
ATOM     30  C   UNL     1     -33.947  26.770   4.322  0.00  0.00    -0.004 C 
ATOM     31  C   UNL     1     -32.292  27.652   6.388  0.00  0.00    -0.000 C 
ATOM     32  C   UNL     1     -32.948  27.708   4.063  0.00  0.00    -0.000 C 
ATOM     33  C   UNL     1     -32.120  28.149   5.096  0.00  0.00    -0.000 C 
ENDBRANCH  27  28
ENDBRANCH  20  27
ENDBRANCH  19  20
ENDBRANCH   1  19
TORSDOF 12
ENDMDL
MODEL 3
REMARK VINA RESULT:      -7.0      1.090      1.947
REMARK  Name = 57090268
REMARK  12 active torsions:
REMARK  status: ('A' for Active; 'I' for Inactive)
REMARK    1  A    between atoms: O_1  and  C_3
REMARK    2  A    between atoms: O_1  and  C_19
REMARK    3  A    between atoms: C_3  and  C_4
REMARK    4  A    between atoms: C_4  and  N_6
REMARK    5  A    between atoms: C_4  and  C_11
REMARK    6  A    between atoms: C_7  and  O_9
REMARK    7  A    between atoms: C_11  and  C_12
REMARK    8  A    between atoms: C_19  and  C_20
REMARK    9  A    between atoms: C_20  and  N_22
REMARK   10  A    between atoms: C_20  and  C_27
REMARK   11  A    between atoms: C_23  and  O_25
REMARK   12  A    between atoms: C_27  and  C_28
REMARK                            x       y       z     vdW  Elec       q    Type
REMARK                         _______ _______ _______ _____ _____    ______ ____
ROOT
ATOM      1  O   UNL     1     -35.580  22.635   3.399  0.00  0.00    -0.390 OA
ENDROOT
BRANCH   1   3
ATOM      2  O   UNL     1     -36.155  22.461   5.641  0.00  0.00    -0.248 OA
ATOM      3  C   UNL     1     -35.836  23.113   4.655  0.00  0.00    +0.342 C 
BRANCH   3   4
ATOM      4  C   UNL     1     -35.705  24.626   4.636  0.00  0.00    +0.179 C 
BRANCH   4   6
ATOM      5  O   UNL     1     -36.840  26.212   2.461  0.00  0.00    -0.227 OA
ATOM      6  N   UNL     1     -37.047  25.137   4.517  0.00  0.00    -0.262 N 
ATOM      7  C   UNL     1     -37.490  25.880   3.445  0.00  0.00    +0.399 C 
ATOM      8  H   UNL     1     -37.684  24.943   5.242  0.00  0.00    +0.153 HD
BRANCH   7   9
ATOM      9  O   UNL     1     -38.796  26.222   3.605  0.00  0.00    -0.466 OA
ATOM     10  H   UNL     1     -39.186  26.196   4.457  0.00  0.00    +0.297 HD
ENDBRANCH   7   9
ENDBRANCH   4   6
BRANCH   4  11
ATOM     11  C   UNL     1     -35.024  25.156   5.899  0.00  0.00    +0.058 C 
BRANCH  11  12
ATOM     12  C   UNL     1     -34.001  26.234   5.632  0.00  0.00    -0.020 C 
ATOM     13  C   UNL     1     -33.228  26.735   6.679  0.00  0.00    -0.004 C 
ATOM     14  C   UNL     1     -33.829  26.727   4.338  0.00  0.00    -0.004 C 
ATOM     15  C   UNL     1     -32.282  27.732   6.432  0.00  0.00    -0.000 C 
ATOM     16  C   UNL     1     -32.884  27.723   4.093  0.00  0.00    -0.000 C 
ATOM     17  C   UNL     1     -32.111  28.225   5.139  0.00  0.00    -0.000 C 
ENDBRANCH  11  12
ENDBRANCH   4  11
ENDBRANCH   3   4
ENDBRANCH   1   3
BRANCH   1  19
ATOM     18  O   UNL     1     -37.818  22.503   2.835  0.00  0.00    -0.248 OA
ATOM     19  C   UNL     1     -36.638  22.231   2.639  0.00  0.00    +0.342 C 
BRANCH  19  20
ATOM     20  C   UNL     1     -36.191  21.303   1.514  0.00  0.00    +0.179 C 
BRANCH  20  22
ATOM     21  O   UNL     1     -37.093  18.790   0.326  0.00  0.00    -0.227 OA
ATOM     22  N   UNL     1     -37.216  21.108   0.520  0.00  0.00    -0.262 N 
ATOM     23  C   UNL     1     -37.572  19.874   0.019  0.00  0.00    +0.399 C 
ATOM     24  H   UNL     1     -37.690  21.901   0.180  0.00  0.00    +0.153 HD
BRANCH  23  25
ATOM     25  O   UNL     1     -38.565  19.998  -0.901  0.00  0.00    -0.466 OA
ATOM     26  H   UNL     1     -38.433  20.522  -1.666  0.00  0.00    +0.297 HD
ENDBRANCH  23  25
ENDBRANCH  20  22
BRANCH  20  27
ATOM     27  C   UNL     1     -34.865  21.737   0.873  0.00  0.00    +0.058 C 
BRANCH  27  28
ATOM     28  C   UNL     1     -33.794  20.672   0.827  0.00  0.00    -0.020 C 
ATOM     29  C   UNL     1     -32.627  20.886   0.094  0.00  0.00    -0.004 C 
ATOM     30  C   UNL     1     -33.974  19.473   1.518  0.00  0.00    -0.004 C 
ATOM     31  C   UNL     1     -31.640  19.902   0.051  0.00  0.00    -0.000 C 
ATOM     32  C   UNL     1     -32.985  18.490   1.477  0.00  0.00    -0.000 C 
ATOM     33  C   UNL     1     -31.818  18.704   0.743  0.00  0.00    -0.000 C 
ENDBRANCH  27  28
ENDBRANCH  20  27
ENDBRANCH  19  20
ENDBRANCH   1  19
TORSDOF 12
ENDMDL
MODEL 4
REMARK VINA RESULT:      -6.8      1.868      6.114
REMARK  Name = 57090268
REMARK  12 active torsions:
REMARK  status: ('A' for Active; 'I' for Inactive)
REMARK    1  A    between atoms: O_1  and  C_3
REMARK    2  A    between atoms: O_1  and  C_19
REMARK    3  A    between atoms: C_3  and  C_4
REMARK    4  A    between atoms: C_4  and  N_6
REMARK    5  A    between atoms: C_4  and  C_11
REMARK    6  A    between atoms: C_7  and  O_9
REMARK    7  A    between atoms: C_11  and  C_12
REMARK    8  A    between atoms: C_19  and  C_20
REMARK    9  A    between atoms: C_20  and  N_22
REMARK   10  A    between atoms: C_20  and  C_27
REMARK   11  A    between atoms: C_23  and  O_25
REMARK   12  A    between atoms: C_27  and  C_28
REMARK                            x       y       z     vdW  Elec       q    Type
REMARK                         _______ _______ _______ _____ _____    ______ ____
ROOT
ATOM      1  O   UNL     1     -36.729  23.342   4.566  0.00  0.00    -0.390 OA
ENDROOT
BRANCH   1   3
ATOM      2  O   UNL     1     -35.129  21.679   4.819  0.00  0.00    -0.248 OA
ATOM      3  C   UNL     1     -36.036  22.221   4.199  0.00  0.00    +0.342 C 
BRANCH   3   4
ATOM      4  C   UNL     1     -36.545  21.755   2.847  0.00  0.00    +0.179 C 
BRANCH   4   6
ATOM      5  O   UNL     1     -38.678  20.807   1.091  0.00  0.00    -0.227 OA
ATOM      6  N   UNL     1     -37.893  22.254   2.739  0.00  0.00    -0.262 N 
ATOM      7  C   UNL     1     -38.832  21.736   1.875  0.00  0.00    +0.399 C 
ATOM      8  H   UNL     1     -38.158  23.006   3.316  0.00  0.00    +0.153 HD
BRANCH   7   9
ATOM      9  O   UNL     1     -40.011  22.403   1.993  0.00  0.00    -0.466 OA
ATOM     10  H   UNL     1     -40.108  23.073   2.641  0.00  0.00    +0.297 HD
ENDBRANCH   7   9
ENDBRANCH   4   6
BRANCH   4  11
ATOM     11  C   UNL     1     -35.673  22.272   1.701  0.00  0.00    +0.058 C 
BRANCH  11  12
ATOM     12  C   UNL     1     -34.587  21.311   1.281  0.00  0.00    -0.020 C 
ATOM     13  C   UNL     1     -34.578  20.010   1.781  0.00  0.00    -0.004 C 
ATOM     14  C   UNL     1     -33.594  21.726   0.393  0.00  0.00    -0.004 C 
ATOM     15  C   UNL     1     -33.574  19.120   1.392  0.00  0.00    -0.000 C 
ATOM     16  C   UNL     1     -32.591  20.837   0.005  0.00  0.00    -0.000 C 
ATOM     17  C   UNL     1     -32.581  19.535   0.505  0.00  0.00    -0.000 C 
ENDBRANCH  11  12
ENDBRANCH   4  11
ENDBRANCH   3   4
ENDBRANCH   1   3
BRANCH   1  19
ATOM     18  O   UNL     1     -35.282  24.755   5.686  0.00  0.00    -0.248 OA
ATOM     19  C   UNL     1     -36.028  24.498   4.746  0.00  0.00    +0.342 C 
BRANCH  19  20
ATOM     20  C   UNL     1     -36.341  25.514   3.652  0.00  0.00    +0.179 C 
BRANCH  20  22
ATOM     21  O   UNL     1     -38.737  25.141   2.022  0.00  0.00    -0.227 OA
ATOM     22  N   UNL     1     -37.636  26.126   3.822  0.00  0.00    -0.262 N 
ATOM     23  C   UNL     1     -38.711  25.884   2.995  0.00  0.00    +0.399 C 
ATOM     24  H   UNL     1     -37.759  26.751   4.573  0.00  0.00    +0.153 HD
BRANCH  23  25
ATOM     25  O   UNL     1     -39.796  26.596   3.398  0.00  0.00    -0.466 OA
ATOM     26  H   UNL     1     -39.683  27.438   3.794  0.00  0.00    +0.297 HD
ENDBRANCH  23  25
ENDBRANCH  20  22
BRANCH  20  27
ATOM     27  C   UNL     1     -35.241  26.571   3.487  0.00  0.00    +0.058 C 
BRANCH  27  28
ATOM     28  C   UNL     1     -34.146  26.212   2.510  0.00  0.00    -0.020 C 
ATOM     29  C   UNL     1     -32.808  26.395   2.861  0.00  0.00    -0.004 C 
ATOM     30  C   UNL     1     -34.473  25.698   1.255  0.00  0.00    -0.004 C 
ATOM     31  C   UNL     1     -31.798  26.064   1.958  0.00  0.00    -0.000 C 
ATOM     32  C   UNL     1     -33.463  25.365   0.352  0.00  0.00    -0.000 C 
ATOM     33  C   UNL     1     -32.125  25.548   0.704  0.00  0.00    -0.000 C 
ENDBRANCH  27  28
ENDBRANCH  20  27
ENDBRANCH  19  20
ENDBRANCH   1  19
TORSDOF 12
ENDMDL
MODEL 5
REMARK VINA RESULT:      -6.8      1.577      2.136
REMARK  Name = 57090268
REMARK  12 active torsions:
REMARK  status: ('A' for Active; 'I' for Inactive)
REMARK    1  A    between atoms: O_1  and  C_3
REMARK    2  A    between atoms: O_1  and  C_19
REMARK    3  A    between atoms: C_3  and  C_4
REMARK    4  A    between atoms: C_4  and  N_6
REMARK    5  A    between atoms: C_4  and  C_11
REMARK    6  A    between atoms: C_7  and  O_9
REMARK    7  A    between atoms: C_11  and  C_12
REMARK    8  A    between atoms: C_19  and  C_20
REMARK    9  A    between atoms: C_20  and  N_22
REMARK   10  A    between atoms: C_20  and  C_27
REMARK   11  A    between atoms: C_23  and  O_25
REMARK   12  A    between atoms: C_27  and  C_28
REMARK                            x       y       z     vdW  Elec       q    Type
REMARK                         _______ _______ _______ _____ _____    ______ ____
ROOT
ATOM      1  O   UNL     1     -35.168  22.994   3.412  0.00  0.00    -0.390 OA
ENDROOT
BRANCH   1   3
ATOM      2  O   UNL     1     -36.336  22.831   5.411  0.00  0.00    -0.248 OA
ATOM      3  C   UNL     1     -35.744  23.477   4.554  0.00  0.00    +0.342 C 
BRANCH   3   4
ATOM      4  C   UNL     1     -35.575  24.985   4.585  0.00  0.00    +0.179 C 
BRANCH   4   6
ATOM      5  O   UNL     1     -37.142  25.629   2.206  0.00  0.00    -0.227 OA
ATOM      6  N   UNL     1     -36.906  25.533   4.521  0.00  0.00    -0.262 N 
ATOM      7  C   UNL     1     -37.565  25.804   3.342  0.00  0.00    +0.399 C 
ATOM      8  H   UNL     1     -37.371  25.724   5.368  0.00  0.00    +0.153 HD
BRANCH   7   9
ATOM      9  O   UNL     1     -38.802  26.312   3.590  0.00  0.00    -0.466 OA
ATOM     10  H   UNL     1     -39.245  26.811   2.933  0.00  0.00    +0.297 HD
ENDBRANCH   7   9
ENDBRANCH   4   6
BRANCH   4  11
ATOM     11  C   UNL     1     -34.847  25.452   5.847  0.00  0.00    +0.058 C 
BRANCH  11  12
ATOM     12  C   UNL     1     -33.798  26.506   5.589  0.00  0.00    -0.020 C 
ATOM     13  C   UNL     1     -33.031  26.999   6.645  0.00  0.00    -0.004 C 
ATOM     14  C   UNL     1     -33.594  26.985   4.295  0.00  0.00    -0.004 C 
ATOM     15  C   UNL     1     -32.060  27.974   6.406  0.00  0.00    -0.000 C 
ATOM     16  C   UNL     1     -32.624  27.959   4.057  0.00  0.00    -0.000 C 
ATOM     17  C   UNL     1     -31.858  28.453   5.112  0.00  0.00    -0.000 C 
ENDBRANCH  11  12
ENDBRANCH   4  11
ENDBRANCH   3   4
ENDBRANCH   1   3
BRANCH   1  19
ATOM     18  O   UNL     1     -35.267  20.709   3.756  0.00  0.00    -0.248 OA
ATOM     19  C   UNL     1     -35.433  21.703   3.056  0.00  0.00    +0.342 C 
BRANCH  19  20
ATOM     20  C   UNL     1     -35.904  21.612   1.608  0.00  0.00    +0.179 C 
BRANCH  20  22
ATOM     21  O   UNL     1     -38.772  21.326   2.087  0.00  0.00    -0.227 OA
ATOM     22  N   UNL     1     -36.952  22.555   1.309  0.00  0.00    -0.262 N 
ATOM     23  C   UNL     1     -38.285  22.327   1.575  0.00  0.00    +0.399 C 
ATOM     24  H   UNL     1     -36.702  23.411   0.892  0.00  0.00    +0.153 HD
BRANCH  23  25
ATOM     25  O   UNL     1     -39.040  23.389   1.188  0.00  0.00    -0.466 OA
ATOM     26  H   UNL     1     -39.893  23.250   0.826  0.00  0.00    +0.297 HD
ENDBRANCH  23  25
ENDBRANCH  20  22
BRANCH  20  27
ATOM     27  C   UNL     1     -34.752  21.718   0.599  0.00  0.00    +0.058 C 
BRANCH  27  28
ATOM     28  C   UNL     1     -33.746  20.592   0.651  0.00  0.00    -0.020 C 
ATOM     29  C   UNL     1     -34.107  19.357   1.190  0.00  0.00    -0.004 C 
ATOM     30  C   UNL     1     -32.455  20.789   0.161  0.00  0.00    -0.004 C 
ATOM     31  C   UNL     1     -33.176  18.319   1.239  0.00  0.00    -0.000 C 
ATOM     32  C   UNL     1     -31.525  19.750   0.209  0.00  0.00    -0.000 C 
ATOM     33  C   UNL     1     -31.885  18.515   0.748  0.00  0.00    -0.000 C 
ENDBRANCH  27  28
ENDBRANCH  20  27
ENDBRANCH  19  20
ENDBRANCH   1  19
TORSDOF 12
ENDMDL
MODEL 6
REMARK VINA RESULT:      -6.8      2.584      4.169
REMARK  Name = 57090268
REMARK  12 active torsions:
REMARK  status: ('A' for Active; 'I' for Inactive)
REMARK    1  A    between atoms: O_1  and  C_3
REMARK    2  A    between atoms: O_1  and  C_19
REMARK    3  A    between atoms: C_3  and  C_4
REMARK    4  A    between atoms: C_4  and  N_6
REMARK    5  A    between atoms: C_4  and  C_11
REMARK    6  A    between atoms: C_7  and  O_9
REMARK    7  A    between atoms: C_11  and  C_12
REMARK    8  A    between atoms: C_19  and  C_20
REMARK    9  A    between atoms: C_20  and  N_22
REMARK   10  A    between atoms: C_20  and  C_27
REMARK   11  A    between atoms: C_23  and  O_25
REMARK   12  A    between atoms: C_27  and  C_28
REMARK                            x       y       z     vdW  Elec       q    Type
REMARK                         _______ _______ _______ _____ _____    ______ ____
ROOT
ATOM      1  O   UNL     1     -35.235  19.980   0.014  0.00  0.00    -0.390 OA
ENDROOT
BRANCH   1   3
ATOM      2  O   UNL     1     -37.400  19.145   0.061  0.00  0.00    -0.248 OA
ATOM      3  C   UNL     1     -36.513  19.874   0.488  0.00  0.00    +0.342 C 
BRANCH   3   4
ATOM      4  C   UNL     1     -36.691  20.857   1.632  0.00  0.00    +0.179 C 
BRANCH   4   6
ATOM      5  O   UNL     1     -39.055  22.481   1.079  0.00  0.00    -0.227 OA
ATOM      6  N   UNL     1     -38.034  20.661   2.115  0.00  0.00    -0.262 N 
ATOM      7  C   UNL     1     -39.089  21.488   1.795  0.00  0.00    +0.399 C 
ATOM      8  H   UNL     1     -38.209  19.893   2.706  0.00  0.00    +0.153 HD
BRANCH   7   9
ATOM      9  O   UNL     1     -40.233  21.058   2.392  0.00  0.00    -0.466 OA
ATOM     10  H   UNL     1     -40.805  21.673   2.806  0.00  0.00    +0.297 HD
ENDBRANCH   7   9
ENDBRANCH   4   6
BRANCH   4  11
ATOM     11  C   UNL     1     -35.667  20.628   2.745  0.00  0.00    +0.058 C 
BRANCH  11  12
ATOM     12  C   UNL     1     -35.569  21.771   3.726  0.00  0.00    -0.020 C 
ATOM     13  C   UNL     1     -35.734  23.084   3.285  0.00  0.00    -0.004 C 
ATOM     14  C   UNL     1     -35.316  21.514   5.074  0.00  0.00    -0.004 C 
ATOM     15  C   UNL     1     -35.644  24.141   4.192  0.00  0.00    -0.000 C 
ATOM     16  C   UNL     1     -35.226  22.570   5.980  0.00  0.00    -0.000 C 
ATOM     17  C   UNL     1     -35.390  23.883   5.539  0.00  0.00    -0.000 C 
ENDBRANCH  11  12
ENDBRANCH   4  11
ENDBRANCH   3   4
ENDBRANCH   1   3
BRANCH   1  19
ATOM     18  O   UNL     1     -34.618  18.666  -1.786  0.00  0.00    -0.248 OA
ATOM     19  C   UNL     1     -34.679  18.885  -0.580  0.00  0.00    +0.342 C 
BRANCH  19  20
ATOM     20  C   UNL     1     -34.188  17.879   0.457  0.00  0.00    +0.179 C 
BRANCH  20  22
ATOM     21  O   UNL     1     -35.669  15.376   0.169  0.00  0.00    -0.227 OA
ATOM     22  N   UNL     1     -33.741  16.645  -0.140  0.00  0.00    -0.262 N 
ATOM     23  C   UNL     1     -34.519  15.512  -0.230  0.00  0.00    +0.399 C 
ATOM     24  H   UNL     1     -32.827  16.612  -0.506  0.00  0.00    +0.153 HD
BRANCH  23  25
ATOM     25  O   UNL     1     -33.836  14.508  -0.840  0.00  0.00    -0.466 OA
ATOM     26  H   UNL     1     -34.278  13.934  -1.435  0.00  0.00    +0.297 HD
ENDBRANCH  23  25
ENDBRANCH  20  22
BRANCH  20  27
ATOM     27  C   UNL     1     -33.126  18.462   1.398  0.00  0.00    +0.058 C 
BRANCH  27  28
ATOM     28  C   UNL     1     -31.805  18.800   0.747  0.00  0.00    -0.020 C 
ATOM     29  C   UNL     1     -31.653  20.005   0.061  0.00  0.00    -0.004 C 
ATOM     30  C   UNL     1     -30.738  17.906   0.831  0.00  0.00    -0.004 C 
ATOM     31  C   UNL     1     -30.433  20.316  -0.541  0.00  0.00    -0.000 C 
ATOM     32  C   UNL     1     -29.518  18.217   0.230  0.00  0.00    -0.000 C 
ATOM     33  C   UNL     1     -29.366  19.422  -0.456  0.00  0.00    -0.000 C 
ENDBRANCH  27  28
ENDBRANCH  20  27
ENDBRANCH  19  20
ENDBRANCH   1  19
TORSDOF 12
ENDMDL
MODEL 7
REMARK VINA RESULT:      -6.8      2.957      5.254
REMARK  Name = 57090268
REMARK  12 active torsions:
REMARK  status: ('A' for Active; 'I' for Inactive)
REMARK    1  A    between atoms: O_1  and  C_3
REMARK    2  A    between atoms: O_1  and  C_19
REMARK    3  A    between atoms: C_3  and  C_4
REMARK    4  A    between atoms: C_4  and  N_6
REMARK    5  A    between atoms: C_4  and  C_11
REMARK    6  A    between atoms: C_7  and  O_9
REMARK    7  A    between atoms: C_11  and  C_12
REMARK    8  A    between atoms: C_19  and  C_20
REMARK    9  A    between atoms: C_20  and  N_22
REMARK   10  A    between atoms: C_20  and  C_27
REMARK   11  A    between atoms: C_23  and  O_25
REMARK   12  A    between atoms: C_27  and  C_28
REMARK                            x       y       z     vdW  Elec       q    Type
REMARK                         _______ _______ _______ _____ _____    ______ ____
ROOT
ATOM      1  O   UNL     1     -36.578  23.127   1.226  0.00  0.00    -0.390 OA
ENDROOT
BRANCH   1   3
ATOM      2  O   UNL     1     -37.923  22.887   3.102  0.00  0.00    -0.248 OA
ATOM      3  C   UNL     1     -36.896  22.663   2.472  0.00  0.00    +0.342 C 
BRANCH   3   4
ATOM      4  C   UNL     1     -35.734  21.838   2.996  0.00  0.00    +0.179 C 
BRANCH   4   6
ATOM      5  O   UNL     1     -34.637  23.457   5.165  0.00  0.00    -0.227 OA
ATOM      6  N   UNL     1     -35.960  21.694   4.412  0.00  0.00    -0.262 N 
ATOM      7  C   UNL     1     -35.393  22.514   5.363  0.00  0.00    +0.399 C 
ATOM      8  H   UNL     1     -36.553  20.969   4.717  0.00  0.00    +0.153 HD
BRANCH   7   9
ATOM      9  O   UNL     1     -35.785  22.142   6.611  0.00  0.00    -0.466 OA
ATOM     10  H   UNL     1     -36.637  21.776   6.745  0.00  0.00    +0.297 HD
ENDBRANCH   7   9
ENDBRANCH   4   6
BRANCH   4  11
ATOM     11  C   UNL     1     -35.649  20.473   2.310  0.00  0.00    +0.058 C 
BRANCH  11  12
ATOM     12  C   UNL     1     -34.372  20.261   1.533  0.00  0.00    -0.020 C 
ATOM     13  C   UNL     1     -33.680  19.056   1.646  0.00  0.00    -0.004 C 
ATOM     14  C   UNL     1     -33.887  21.270   0.700  0.00  0.00    -0.004 C 
ATOM     15  C   UNL     1     -32.499  18.860   0.927  0.00  0.00    -0.000 C 
ATOM     16  C   UNL     1     -32.708  21.074  -0.018  0.00  0.00    -0.000 C 
ATOM     17  C   UNL     1     -32.014  19.869   0.095  0.00  0.00    -0.000 C 
ENDBRANCH  11  12
ENDBRANCH   4  11
ENDBRANCH   3   4
ENDBRANCH   1   3
BRANCH   1  19
ATOM     18  O   UNL     1     -38.118  24.321  -0.019  0.00  0.00    -0.248 OA
ATOM     19  C   UNL     1     -37.585  23.267   0.317  0.00  0.00    +0.342 C 
BRANCH  19  20
ATOM     20  C   UNL     1     -38.056  21.913  -0.205  0.00  0.00    +0.179 C 
BRANCH  20  22
ATOM     21  O   UNL     1     -40.271  21.040   1.488  0.00  0.00    -0.227 OA
ATOM     22  N   UNL     1     -39.463  21.902  -0.519  0.00  0.00    -0.262 N 
ATOM     23  C   UNL     1     -40.438  21.469   0.353  0.00  0.00    +0.399 C 
ATOM     24  H   UNL     1     -39.743  22.224  -1.407  0.00  0.00    +0.153 HD
BRANCH  23  25
ATOM     25  O   UNL     1     -41.669  21.574  -0.213  0.00  0.00    -0.466 OA
ATOM     26  H   UNL     1     -41.844  22.257  -0.830  0.00  0.00    +0.297 HD
ENDBRANCH  23  25
ENDBRANCH  20  22
BRANCH  20  27
ATOM     27  C   UNL     1     -37.216  21.404  -1.384  0.00  0.00    +0.058 C 
BRANCH  27  28
ATOM     28  C   UNL     1     -36.712  19.985  -1.249  0.00  0.00    -0.020 C 
ATOM     29  C   UNL     1     -37.368  19.089  -0.405  0.00  0.00    -0.004 C 
ATOM     30  C   UNL     1     -35.591  19.573  -1.970  0.00  0.00    -0.004 C 
ATOM     31  C   UNL     1     -36.902  17.780  -0.281  0.00  0.00    -0.000 C 
ATOM     32  C   UNL     1     -35.125  18.264  -1.846  0.00  0.00    -0.000 C 
ATOM     33  C   UNL     1     -35.781  17.367  -1.002  0.00  0.00    -0.000 C 
ENDBRANCH  27  28
ENDBRANCH  20  27
ENDBRANCH  19  20
ENDBRANCH   1  19
TORSDOF 12
ENDMDL
MODEL 8
REMARK VINA RESULT:      -6.7      2.503      7.569
REMARK  Name = 57090268
REMARK  12 active torsions:
REMARK  status: ('A' for Active; 'I' for Inactive)
REMARK    1  A    between atoms: O_1  and  C_3
REMARK    2  A    between atoms: O_1  and  C_19
REMARK    3  A    between atoms: C_3  and  C_4
REMARK    4  A    between atoms: C_4  and  N_6
REMARK    5  A    between atoms: C_4  and  C_11
REMARK    6  A    between atoms: C_7  and  O_9
REMARK    7  A    between atoms: C_11  and  C_12
REMARK    8  A    between atoms: C_19  and  C_20
REMARK    9  A    between atoms: C_20  and  N_22
REMARK   10  A    between atoms: C_20  and  C_27
REMARK   11  A    between atoms: C_23  and  O_25
REMARK   12  A    between atoms: C_27  and  C_28
REMARK                            x       y       z     vdW  Elec       q    Type
REMARK                         _______ _______ _______ _____ _____    ______ ____
ROOT
ATOM      1  O   UNL     1     -36.603  25.335   3.506  0.00  0.00    -0.390 OA
ENDROOT
BRANCH   1   3
ATOM      2  O   UNL     1     -38.479  24.023   3.125  0.00  0.00    -0.248 OA
ATOM      3  C   UNL     1     -37.269  24.170   3.245  0.00  0.00    +0.342 C 
BRANCH   3   4
ATOM      4  C   UNL     1     -36.258  23.040   3.165  0.00  0.00    +0.179 C 
BRANCH   4   6
ATOM      5  O   UNL     1     -34.803  23.454   5.664  0.00  0.00    -0.227 OA
ATOM      6  N   UNL     1     -36.388  22.307   4.399  0.00  0.00    -0.262 N 
ATOM      7  C   UNL     1     -35.652  22.580   5.531  0.00  0.00    +0.399 C 
ATOM      8  H   UNL     1     -37.040  21.570   4.436  0.00  0.00    +0.153 HD
BRANCH   7   9
ATOM      9  O   UNL     1     -35.987  21.730   6.538  0.00  0.00    -0.466 OA
ATOM     10  H   UNL     1     -35.330  21.421   7.130  0.00  0.00    +0.297 HD
ENDBRANCH   7   9
ENDBRANCH   4   6
BRANCH   4  11
ATOM     11  C   UNL     1     -36.509  22.134   1.958  0.00  0.00    +0.058 C 
BRANCH  11  12
ATOM     12  C   UNL     1     -35.281  21.390   1.490  0.00  0.00    -0.020 C 
ATOM     13  C   UNL     1     -35.049  20.086   1.926  0.00  0.00    -0.004 C 
ATOM     14  C   UNL     1     -34.381  22.007   0.621  0.00  0.00    -0.004 C 
ATOM     15  C   UNL     1     -33.915  19.398   1.492  0.00  0.00    -0.000 C 
ATOM     16  C   UNL     1     -33.248  21.319   0.189  0.00  0.00    -0.000 C 
ATOM     17  C   UNL     1     -33.014  20.015   0.624  0.00  0.00    -0.000 C 
ENDBRANCH  11  12
ENDBRANCH   4  11
ENDBRANCH   3   4
ENDBRANCH   1   3
BRANCH   1  19
ATOM     18  O   UNL     1     -37.012  26.285   1.438  0.00  0.00    -0.248 OA
ATOM     19  C   UNL     1     -36.345  26.174   2.462  0.00  0.00    +0.342 C 
BRANCH  19  20
ATOM     20  C   UNL     1     -35.042  26.939   2.673  0.00  0.00    +0.179 C 
BRANCH  20  22
ATOM     21  O   UNL     1     -35.106  29.568   1.399  0.00  0.00    -0.227 OA
ATOM     22  N   UNL     1     -35.251  28.223   3.295  0.00  0.00    -0.262 N 
ATOM     23  C   UNL     1     -35.264  29.415   2.604  0.00  0.00    +0.399 C 
ATOM     24  H   UNL     1     -35.393  28.249   4.269  0.00  0.00    +0.153 HD
BRANCH  23  25
ATOM     25  O   UNL     1     -35.484  30.457   3.449  0.00  0.00    -0.466 OA
ATOM     26  H   UNL     1     -35.433  30.328   4.375  0.00  0.00    +0.297 HD
ENDBRANCH  23  25
ENDBRANCH  20  22
BRANCH  20  27
ATOM     27  C   UNL     1     -33.984  26.119   3.424  0.00  0.00    +0.058 C 
BRANCH  27  28
ATOM     28  C   UNL     1     -33.255  26.861   4.520  0.00  0.00    -0.020 C 
ATOM     29  C   UNL     1     -32.334  27.857   4.197  0.00  0.00    -0.004 C 
ATOM     30  C   UNL     1     -33.503  26.548   5.857  0.00  0.00    -0.004 C 
ATOM     31  C   UNL     1     -31.661  28.541   5.209  0.00  0.00    -0.000 C 
ATOM     32  C   UNL     1     -32.831  27.232   6.870  0.00  0.00    -0.000 C 
ATOM     33  C   UNL     1     -31.910  28.228   6.546  0.00  0.00    -0.000 C 
ENDBRANCH  27  28
ENDBRANCH  20  27
ENDBRANCH  19  20
ENDBRANCH   1  19
TORSDOF 12
ENDMDL
MODEL 9
REMARK VINA RESULT:      -6.7      3.050      7.081
REMARK  Name = 57090268
REMARK  12 active torsions:
REMARK  status: ('A' for Active; 'I' for Inactive)
REMARK    1  A    between atoms: O_1  and  C_3
REMARK    2  A    between atoms: O_1  and  C_19
REMARK    3  A    between atoms: C_3  and  C_4
REMARK    4  A    between atoms: C_4  and  N_6
REMARK    5  A    between atoms: C_4  and  C_11
REMARK    6  A    between atoms: C_7  and  O_9
REMARK    7  A    between atoms: C_11  and  C_12
REMARK    8  A    between atoms: C_19  and  C_20
REMARK    9  A    between atoms: C_20  and  N_22
REMARK   10  A    between atoms: C_20  and  C_27
REMARK   11  A    between atoms: C_23  and  O_25
REMARK   12  A    between atoms: C_27  and  C_28
REMARK                            x       y       z     vdW  Elec       q    Type
REMARK                         _______ _______ _______ _____ _____    ______ ____
ROOT
ATOM      1  O   UNL     1     -36.288  25.569   3.375  0.00  0.00    -0.390 OA
ENDROOT
BRANCH   1   3
ATOM      2  O   UNL     1     -38.294  24.417   3.555  0.00  0.00    -0.248 OA
ATOM      3  C   UNL     1     -37.077  24.454   3.422  0.00  0.00    +0.342 C 
BRANCH   3   4
ATOM      4  C   UNL     1     -36.190  23.225   3.324  0.00  0.00    +0.179 C 
BRANCH   4   6
ATOM      5  O   UNL     1     -34.548  23.057   5.733  0.00  0.00    -0.227 OA
ATOM      6  N   UNL     1     -36.443  22.460   4.519  0.00  0.00    -0.262 N 
ATOM      7  C   UNL     1     -35.602  22.446   5.610  0.00  0.00    +0.399 C 
ATOM      8  H   UNL     1     -37.264  21.917   4.558  0.00  0.00    +0.153 HD
BRANCH   7   9
ATOM      9  O   UNL     1     -36.097  21.639   6.586  0.00  0.00    -0.466 OA
ATOM     10  H   UNL     1     -36.894  21.167   6.445  0.00  0.00    +0.297 HD
ENDBRANCH   7   9
ENDBRANCH   4   6
BRANCH   4  11
ATOM     11  C   UNL     1     -36.491  22.403   2.069  0.00  0.00    +0.058 C 
BRANCH  11  12
ATOM     12  C   UNL     1     -35.306  21.620   1.557  0.00  0.00    -0.020 C 
ATOM     13  C   UNL     1     -35.101  20.309   1.983  0.00  0.00    -0.004 C 
ATOM     14  C   UNL     1     -34.418  22.209   0.656  0.00  0.00    -0.004 C 
ATOM     15  C   UNL     1     -34.005  19.585   1.509  0.00  0.00    -0.000 C 
ATOM     16  C   UNL     1     -33.324  21.485   0.183  0.00  0.00    -0.000 C 
ATOM     17  C   UNL     1     -33.117  20.174   0.609  0.00  0.00    -0.000 C 
ENDBRANCH  11  12
ENDBRANCH   4  11
ENDBRANCH   3   4
ENDBRANCH   1   3
BRANCH   1  19
ATOM     18  O   UNL     1     -36.284  26.106   5.624  0.00  0.00    -0.248 OA
ATOM     19  C   UNL     1     -35.723  26.004   4.538  0.00  0.00    +0.342 C 
BRANCH  19  20
ATOM     20  C   UNL     1     -34.278  26.444   4.322  0.00  0.00    +0.179 C 
BRANCH  20  22
ATOM     21  O   UNL     1     -32.475  28.620   5.067  0.00  0.00    -0.227 OA
ATOM     22  N   UNL     1     -33.565  26.622   5.563  0.00  0.00    -0.262 N 
ATOM     23  C   UNL     1     -32.733  27.690   5.821  0.00  0.00    +0.399 C 
ATOM     24  H   UNL     1     -33.681  25.943   6.266  0.00  0.00    +0.153 HD
BRANCH  23  25
ATOM     25  O   UNL     1     -32.201  27.593   7.068  0.00  0.00    -0.466 OA
ATOM     26  H   UNL     1     -32.440  26.879   7.626  0.00  0.00    +0.297 HD
ENDBRANCH  23  25
ENDBRANCH  20  22
BRANCH  20  27
ATOM     27  C   UNL     1     -33.510  25.524   3.364  0.00  0.00    +0.058 C 
BRANCH  27  28
ATOM     28  C   UNL     1     -33.127  26.148   2.042  0.00  0.00    -0.020 C 
ATOM     29  C   UNL     1     -33.459  27.476   1.774  0.00  0.00    -0.004 C 
ATOM     30  C   UNL     1     -32.441  25.395   1.089  0.00  0.00    -0.004 C 
ATOM     31  C   UNL     1     -33.105  28.051   0.554  0.00  0.00    -0.000 C 
ATOM     32  C   UNL     1     -32.087  25.970  -0.131  0.00  0.00    -0.000 C 
ATOM     33  C   UNL     1     -32.419  27.298  -0.399  0.00  0.00    -0.000 C 
ENDBRANCH  27  28
ENDBRANCH  20  27
ENDBRANCH  19  20
ENDBRANCH   1  19
TORSDOF 12
ENDMDL
