MODEL 1
REMARK VINA RESULT:      -5.7      0.000      0.000
REMARK  Name = 196732
REMARK  6 active torsions:
REMARK  status: ('A' for Active; 'I' for Inactive)
REMARK    1  A    between atoms: C_2  and  C_20
REMARK    2  A    between atoms: C_3  and  O_18
REMARK    3  A    between atoms: C_4  and  N_6
REMARK    4  A    between atoms: C_20  and  O_21
REMARK    5  A    between atoms: O_21  and  P_22
REMARK    6  A    between atoms: P_22  and  O_25
REMARK                            x       y       z     vdW  Elec       q    Type
REMARK                         _______ _______ _______ _____ _____    ______ ____
ROOT
ATOM      1  O   UNL     1     -39.176  24.746   2.465  0.00  0.00    -0.335 OA
ATOM      2  C   UNL     1     -39.605  25.312   1.205  0.00  0.00    +0.174 C 
ATOM      3  C   UNL     1     -38.448  26.156   0.669  0.00  0.00    +0.144 C 
ATOM      4  C   UNL     1     -37.781  24.902   2.485  0.00  0.00    +0.197 C 
ATOM      5  C   UNL     1     -37.319  25.678   1.501  0.00  0.00    +0.083 C 
ENDROOT
BRANCH   4   6
ATOM      6  N   UNL     1     -37.037  24.277   3.502  0.00  0.00    -0.249 N 
ATOM      7  N   UNL     1     -36.009  23.989   5.477  0.00  0.00    -0.242 NA
ATOM      8  N   UNL     1     -36.530  22.130   2.476  0.00  0.00    -0.228 NA
ATOM      9  N   UNL     1     -35.213  20.710   3.961  0.00  0.00    -0.229 NA
ATOM     10  C   UNL     1     -36.479  23.020   3.479  0.00  0.00    +0.152 C 
ATOM     11  C   UNL     1     -36.719  24.812   4.734  0.00  0.00    +0.223 C 
ATOM     12  C   UNL     1     -35.851  22.865   4.705  0.00  0.00    +0.140 C 
ATOM     13  C   UNL     1     -35.202  21.656   4.931  0.00  0.00    +0.143 C 
ATOM     14  C   UNL     1     -35.868  21.002   2.811  0.00  0.00    +0.253 C 
ATOM     15  N   UNL     1     -34.540  21.412   6.147  0.00  0.00    -0.342 N 
ATOM     16  H   UNL     1     -34.084  20.552   6.295  0.00  0.00    +0.144 HD
ATOM     17  H   UNL     1     -34.534  22.101   6.850  0.00  0.00    +0.144 HD
ENDBRANCH   4   6
BRANCH   3  18
ATOM     18  O   UNL     1     -38.668  27.539   0.910  0.00  0.00    -0.382 OA
ATOM     19  H   UNL     1     -39.609  27.690   1.094  0.00  0.00    +0.210 HD
ENDBRANCH   3  18
BRANCH   2  20
ATOM     20  C   UNL     1     -39.975  24.159   0.277  0.00  0.00    +0.183 C 
BRANCH  20  21
ATOM     21  O   UNL     1     -40.512  23.102   1.054  0.00  0.00    -0.291 OA
BRANCH  21  22
ATOM     22  P   UNL     1     -40.020  21.578   0.837  0.00  0.00    +0.341 P 
ATOM     23  O   UNL     1     -41.106  20.633   0.415  0.00  0.00    -0.258 OA
ATOM     24  C   UNL     1     -38.663  21.670  -0.314  0.00  0.00    +0.129 C 
BRANCH  22  25
ATOM     25  O   UNL     1     -39.309  21.184   2.236  0.00  0.00    -0.323 OA
ATOM     26  H   UNL     1     -39.969  21.194   2.948  0.00  0.00    +0.220 HD
ENDBRANCH  22  25
ENDBRANCH  21  22
ENDBRANCH  20  21
ENDBRANCH   2  20
TORSDOF 6
ENDMDL
MODEL 2
REMARK VINA RESULT:      -5.7      3.401      6.361
REMARK  Name = 196732
REMARK  6 active torsions:
REMARK  status: ('A' for Active; 'I' for Inactive)
REMARK    1  A    between atoms: C_2  and  C_20
REMARK    2  A    between atoms: C_3  and  O_18
REMARK    3  A    between atoms: C_4  and  N_6
REMARK    4  A    between atoms: C_20  and  O_21
REMARK    5  A    between atoms: O_21  and  P_22
REMARK    6  A    between atoms: P_22  and  O_25
REMARK                            x       y       z     vdW  Elec       q    Type
REMARK                         _______ _______ _______ _____ _____    ______ ____
ROOT
ATOM      1  O   UNL     1     -36.672  23.571   4.705  0.00  0.00    -0.335 OA
ATOM      2  C   UNL     1     -35.500  23.239   5.484  0.00  0.00    +0.174 C 
ATOM      3  C   UNL     1     -35.004  21.876   4.999  0.00  0.00    +0.144 C 
ATOM      4  C   UNL     1     -36.645  22.700   3.605  0.00  0.00    +0.197 C 
ATOM      5  C   UNL     1     -35.729  21.735   3.714  0.00  0.00    +0.083 C 
ENDROOT
BRANCH   4   6
ATOM      6  N   UNL     1     -37.555  22.900   2.551  0.00  0.00    -0.249 N 
ATOM      7  N   UNL     1     -38.513  22.675   0.533  0.00  0.00    -0.242 NA
ATOM      8  N   UNL     1     -39.067  24.538   3.526  0.00  0.00    -0.228 NA
ATOM      9  N   UNL     1     -40.840  25.166   1.970  0.00  0.00    -0.229 NA
ATOM     10  C   UNL     1     -38.647  23.737   2.535  0.00  0.00    +0.152 C 
ATOM     11  C   UNL     1     -37.528  22.287   1.315  0.00  0.00    +0.223 C 
ATOM     12  C   UNL     1     -39.221  23.582   1.283  0.00  0.00    +0.140 C 
ATOM     13  C   UNL     1     -40.359  24.334   1.015  0.00  0.00    +0.143 C 
ATOM     14  C   UNL     1     -40.173  25.214   3.149  0.00  0.00    +0.253 C 
ATOM     15  N   UNL     1     -41.006  24.240  -0.229  0.00  0.00    -0.342 N 
ATOM     16  H   UNL     1     -41.812  24.777  -0.407  0.00  0.00    +0.144 HD
ATOM     17  H   UNL     1     -40.655  23.635  -0.922  0.00  0.00    +0.144 HD
ENDBRANCH   4   6
BRANCH   3  18
ATOM     18  O   UNL     1     -35.400  20.840   5.888  0.00  0.00    -0.382 OA
ATOM     19  H   UNL     1     -35.790  21.231   6.686  0.00  0.00    +0.210 HD
ENDBRANCH   3  18
BRANCH   2  20
ATOM     20  C   UNL     1     -34.473  24.348   5.281  0.00  0.00    +0.183 C 
BRANCH  20  21
ATOM     21  O   UNL     1     -35.149  25.592   5.232  0.00  0.00    -0.291 OA
BRANCH  21  22
ATOM     22  P   UNL     1     -35.173  26.474   3.878  0.00  0.00    +0.341 P 
ATOM     23  O   UNL     1     -34.560  27.836   4.017  0.00  0.00    -0.258 OA
ATOM     24  C   UNL     1     -34.399  25.463   2.633  0.00  0.00    +0.129 C 
BRANCH  22  25
ATOM     25  O   UNL     1     -36.730  26.493   3.440  0.00  0.00    -0.323 OA
ATOM     26  H   UNL     1     -37.271  26.813   4.181  0.00  0.00    +0.220 HD
ENDBRANCH  22  25
ENDBRANCH  21  22
ENDBRANCH  20  21
ENDBRANCH   2  20
TORSDOF 6
ENDMDL
MODEL 3
REMARK VINA RESULT:      -5.7      3.594      6.551
REMARK  Name = 196732
REMARK  6 active torsions:
REMARK  status: ('A' for Active; 'I' for Inactive)
REMARK    1  A    between atoms: C_2  and  C_20
REMARK    2  A    between atoms: C_3  and  O_18
REMARK    3  A    between atoms: C_4  and  N_6
REMARK    4  A    between atoms: C_20  and  O_21
REMARK    5  A    between atoms: O_21  and  P_22
REMARK    6  A    between atoms: P_22  and  O_25
REMARK                            x       y       z     vdW  Elec       q    Type
REMARK                         _______ _______ _______ _____ _____    ______ ____
ROOT
ATOM      1  O   UNL     1     -36.960  23.201   4.358  0.00  0.00    -0.335 OA
ATOM      2  C   UNL     1     -35.723  22.475   4.542  0.00  0.00    +0.174 C 
ATOM      3  C   UNL     1     -35.469  21.680   3.261  0.00  0.00    +0.144 C 
ATOM      4  C   UNL     1     -37.210  23.165   2.978  0.00  0.00    +0.197 C 
ATOM      5  C   UNL     1     -36.402  22.334   2.314  0.00  0.00    +0.083 C 
ENDROOT
BRANCH   4   6
ATOM      6  N   UNL     1     -38.249  23.951   2.449  0.00  0.00    -0.249 N 
ATOM      7  N   UNL     1     -40.320  24.542   1.813  0.00  0.00    -0.242 NA
ATOM      8  N   UNL     1     -37.048  25.967   1.807  0.00  0.00    -0.228 NA
ATOM      9  N   UNL     1     -38.539  27.629   0.820  0.00  0.00    -0.229 NA
ATOM     10  C   UNL     1     -38.156  25.219   1.924  0.00  0.00    +0.152 C 
ATOM     11  C   UNL     1     -39.580  23.598   2.354  0.00  0.00    +0.223 C 
ATOM     12  C   UNL     1     -39.443  25.562   1.538  0.00  0.00    +0.140 C 
ATOM     13  C   UNL     1     -39.615  26.819   0.969  0.00  0.00    +0.143 C 
ATOM     14  C   UNL     1     -37.340  27.159   1.243  0.00  0.00    +0.253 C 
ATOM     15  N   UNL     1     -40.886  27.250   0.550  0.00  0.00    -0.342 N 
ATOM     16  H   UNL     1     -40.996  28.142   0.148  0.00  0.00    +0.144 HD
ATOM     17  H   UNL     1     -41.666  26.660   0.659  0.00  0.00    +0.144 HD
ENDBRANCH   4   6
BRANCH   3  18
ATOM     18  O   UNL     1     -35.831  20.315   3.424  0.00  0.00    -0.382 OA
ATOM     19  H   UNL     1     -35.092  19.831   3.824  0.00  0.00    +0.210 HD
ENDBRANCH   3  18
BRANCH   2  20
ATOM     20  C   UNL     1     -34.624  23.491   4.835  0.00  0.00    +0.183 C 
BRANCH  20  21
ATOM     21  O   UNL     1     -35.222  24.686   5.309  0.00  0.00    -0.291 OA
BRANCH  21  22
ATOM     22  P   UNL     1     -34.594  26.131   4.946  0.00  0.00    +0.341 P 
ATOM     23  O   UNL     1     -33.765  26.736   6.040  0.00  0.00    -0.258 OA
ATOM     24  C   UNL     1     -33.707  25.899   3.419  0.00  0.00    +0.129 C 
BRANCH  22  25
ATOM     25  O   UNL     1     -35.871  27.025   4.514  0.00  0.00    -0.323 OA
ATOM     26  H   UNL     1     -35.711  27.417   3.640  0.00  0.00    +0.220 HD
ENDBRANCH  22  25
ENDBRANCH  21  22
ENDBRANCH  20  21
ENDBRANCH   2  20
TORSDOF 6
ENDMDL
MODEL 4
REMARK VINA RESULT:      -5.6      4.654      6.679
REMARK  Name = 196732
REMARK  6 active torsions:
REMARK  status: ('A' for Active; 'I' for Inactive)
REMARK    1  A    between atoms: C_2  and  C_20
REMARK    2  A    between atoms: C_3  and  O_18
REMARK    3  A    between atoms: C_4  and  N_6
REMARK    4  A    between atoms: C_20  and  O_21
REMARK    5  A    between atoms: O_21  and  P_22
REMARK    6  A    between atoms: P_22  and  O_25
REMARK                            x       y       z     vdW  Elec       q    Type
REMARK                         _______ _______ _______ _____ _____    ______ ____
ROOT
ATOM      1  O   UNL     1     -35.235  25.204   3.199  0.00  0.00    -0.335 OA
ATOM      2  C   UNL     1     -34.969  26.355   4.033  0.00  0.00    +0.174 C 
ATOM      3  C   UNL     1     -35.523  26.045   5.424  0.00  0.00    +0.144 C 
ATOM      4  C   UNL     1     -35.549  24.166   4.089  0.00  0.00    +0.197 C 
ATOM      5  C   UNL     1     -35.717  24.577   5.348  0.00  0.00    +0.083 C 
ENDROOT
BRANCH   4   6
ATOM      6  N   UNL     1     -35.673  22.855   3.594  0.00  0.00    -0.249 N 
ATOM      7  N   UNL     1     -35.435  20.625   3.472  0.00  0.00    -0.242 NA
ATOM      8  N   UNL     1     -36.982  23.224   1.577  0.00  0.00    -0.228 NA
ATOM      9  N   UNL     1     -37.425  21.135   0.395  0.00  0.00    -0.229 NA
ATOM     10  C   UNL     1     -36.327  22.448   2.454  0.00  0.00    +0.152 C 
ATOM     11  C   UNL     1     -35.156  21.709   4.165  0.00  0.00    +0.223 C 
ATOM     12  C   UNL     1     -36.167  21.072   2.400  0.00  0.00    +0.140 C 
ATOM     13  C   UNL     1     -36.748  20.414   1.321  0.00  0.00    +0.143 C 
ATOM     14  C   UNL     1     -37.499  22.476   0.579  0.00  0.00    +0.253 C 
ATOM     15  N   UNL     1     -36.637  19.020   1.186  0.00  0.00    -0.342 N 
ATOM     16  H   UNL     1     -37.052  18.564   0.418  0.00  0.00    +0.144 HD
ATOM     17  H   UNL     1     -36.144  18.498   1.860  0.00  0.00    +0.144 HD
ENDBRANCH   4   6
BRANCH   3  18
ATOM     18  O   UNL     1     -36.776  26.683   5.631  0.00  0.00    -0.382 OA
ATOM     19  H   UNL     1     -37.046  27.135   4.816  0.00  0.00    +0.210 HD
ENDBRANCH   3  18
BRANCH   2  20
ATOM     20  C   UNL     1     -33.461  26.591   4.037  0.00  0.00    +0.183 C 
BRANCH  20  21
ATOM     21  O   UNL     1     -33.196  27.832   4.669  0.00  0.00    -0.291 OA
BRANCH  21  22
ATOM     22  P   UNL     1     -31.781  28.108   5.400  0.00  0.00    +0.341 P 
ATOM     23  O   UNL     1     -30.580  27.797   4.557  0.00  0.00    -0.258 OA
ATOM     24  C   UNL     1     -31.849  29.800   5.954  0.00  0.00    +0.129 C 
BRANCH  22  25
ATOM     25  O   UNL     1     -31.865  27.253   6.771  0.00  0.00    -0.323 OA
ATOM     26  H   UNL     1     -31.257  26.498   6.719  0.00  0.00    +0.220 HD
ENDBRANCH  22  25
ENDBRANCH  21  22
ENDBRANCH  20  21
ENDBRANCH   2  20
TORSDOF 6
ENDMDL
MODEL 5
REMARK VINA RESULT:      -5.6      4.037      5.557
REMARK  Name = 196732
REMARK  6 active torsions:
REMARK  status: ('A' for Active; 'I' for Inactive)
REMARK    1  A    between atoms: C_2  and  C_20
REMARK    2  A    between atoms: C_3  and  O_18
REMARK    3  A    between atoms: C_4  and  N_6
REMARK    4  A    between atoms: C_20  and  O_21
REMARK    5  A    between atoms: O_21  and  P_22
REMARK    6  A    between atoms: P_22  and  O_25
REMARK                            x       y       z     vdW  Elec       q    Type
REMARK                         _______ _______ _______ _____ _____    ______ ____
ROOT
ATOM      1  O   UNL     1     -35.489  21.016   3.407  0.00  0.00    -0.335 OA
ATOM      2  C   UNL     1     -36.033  20.324   2.260  0.00  0.00    +0.174 C 
ATOM      3  C   UNL     1     -37.159  21.193   1.698  0.00  0.00    +0.144 C 
ATOM      4  C   UNL     1     -35.960  22.334   3.302  0.00  0.00    +0.197 C 
ATOM      5  C   UNL     1     -36.893  22.492   2.360  0.00  0.00    +0.083 C 
ENDROOT
BRANCH   4   6
ATOM      6  N   UNL     1     -35.449  23.315   4.171  0.00  0.00    -0.249 N 
ATOM      7  N   UNL     1     -35.064  24.436   6.078  0.00  0.00    -0.242 NA
ATOM      8  N   UNL     1     -34.145  24.682   2.639  0.00  0.00    -0.228 NA
ATOM      9  N   UNL     1     -33.066  26.545   3.789  0.00  0.00    -0.229 NA
ATOM     10  C   UNL     1     -34.628  24.371   3.852  0.00  0.00    +0.152 C 
ATOM     11  C   UNL     1     -35.677  23.408   5.529  0.00  0.00    +0.223 C 
ATOM     12  C   UNL     1     -34.404  25.047   5.041  0.00  0.00    +0.140 C 
ATOM     13  C   UNL     1     -33.589  26.172   4.982  0.00  0.00    +0.143 C 
ATOM     14  C   UNL     1     -33.372  25.787   2.708  0.00  0.00    +0.253 C 
ATOM     15  N   UNL     1     -33.308  26.918   6.139  0.00  0.00    -0.342 N 
ATOM     16  H   UNL     1     -32.730  27.712   6.085  0.00  0.00    +0.144 HD
ATOM     17  H   UNL     1     -33.689  26.644   7.005  0.00  0.00    +0.144 HD
ENDBRANCH   4   6
BRANCH   3  18
ATOM     18  O   UNL     1     -38.432  20.704   2.097  0.00  0.00    -0.382 OA
ATOM     19  H   UNL     1     -39.023  20.674   1.328  0.00  0.00    +0.210 HD
ENDBRANCH   3  18
BRANCH   2  20
ATOM     20  C   UNL     1     -34.899  20.108   1.263  0.00  0.00    +0.183 C 
BRANCH  20  21
ATOM     21  O   UNL     1     -33.884  19.341   1.887  0.00  0.00    -0.291 OA
BRANCH  21  22
ATOM     22  P   UNL     1     -32.884  18.417   1.015  0.00  0.00    +0.341 P 
ATOM     23  O   UNL     1     -31.838  17.707   1.822  0.00  0.00    -0.258 OA
ATOM     24  C   UNL     1     -33.935  17.322   0.082  0.00  0.00    +0.129 C 
BRANCH  22  25
ATOM     25  O   UNL     1     -32.286  19.419  -0.105  0.00  0.00    -0.323 OA
ATOM     26  H   UNL     1     -32.596  19.144  -0.983  0.00  0.00    +0.220 HD
ENDBRANCH  22  25
ENDBRANCH  21  22
ENDBRANCH  20  21
ENDBRANCH   2  20
TORSDOF 6
ENDMDL
MODEL 6
REMARK VINA RESULT:      -5.5      3.616      5.659
REMARK  Name = 196732
REMARK  6 active torsions:
REMARK  status: ('A' for Active; 'I' for Inactive)
REMARK    1  A    between atoms: C_2  and  C_20
REMARK    2  A    between atoms: C_3  and  O_18
REMARK    3  A    between atoms: C_4  and  N_6
REMARK    4  A    between atoms: C_20  and  O_21
REMARK    5  A    between atoms: O_21  and  P_22
REMARK    6  A    between atoms: P_22  and  O_25
REMARK                            x       y       z     vdW  Elec       q    Type
REMARK                         _______ _______ _______ _____ _____    ______ ____
ROOT
ATOM      1  O   UNL     1     -34.784  23.457   3.505  0.00  0.00    -0.335 OA
ATOM      2  C   UNL     1     -35.602  22.279   3.689  0.00  0.00    +0.174 C 
ATOM      3  C   UNL     1     -35.733  22.048   5.195  0.00  0.00    +0.144 C 
ATOM      4  C   UNL     1     -34.764  24.093   4.755  0.00  0.00    +0.197 C 
ATOM      5  C   UNL     1     -35.287  23.353   5.736  0.00  0.00    +0.083 C 
ENDROOT
BRANCH   4   6
ATOM      6  N   UNL     1     -34.204  25.379   4.860  0.00  0.00    -0.249 N 
ATOM      7  N   UNL     1     -33.187  27.158   5.778  0.00  0.00    -0.242 NA
ATOM      8  N   UNL     1     -34.561  26.244   2.614  0.00  0.00    -0.228 NA
ATOM      9  N   UNL     1     -33.704  28.517   2.377  0.00  0.00    -0.229 NA
ATOM     10  C   UNL     1     -34.121  26.339   3.878  0.00  0.00    +0.152 C 
ATOM     11  C   UNL     1     -33.624  25.933   5.983  0.00  0.00    +0.223 C 
ATOM     12  C   UNL     1     -33.491  27.425   4.466  0.00  0.00    +0.140 C 
ATOM     13  C   UNL     1     -33.285  28.543   3.665  0.00  0.00    +0.143 C 
ATOM     14  C   UNL     1     -34.306  27.384   1.938  0.00  0.00    +0.253 C 
ATOM     15  N   UNL     1     -32.654  29.689   4.179  0.00  0.00    -0.342 N 
ATOM     16  H   UNL     1     -32.514  30.474   3.602  0.00  0.00    +0.144 HD
ATOM     17  H   UNL     1     -32.351  29.705   5.115  0.00  0.00    +0.144 HD
ENDBRANCH   4   6
BRANCH   3  18
ATOM     18  O   UNL     1     -34.856  21.021   5.635  0.00  0.00    -0.382 OA
ATOM     19  H   UNL     1     -34.089  21.419   6.077  0.00  0.00    +0.210 HD
ENDBRANCH   3  18
BRANCH   2  20
ATOM     20  C   UNL     1     -36.944  22.531   3.010  0.00  0.00    +0.183 C 
BRANCH  20  21
ATOM     21  O   UNL     1     -37.633  23.544   3.723  0.00  0.00    -0.291 OA
BRANCH  21  22
ATOM     22  P   UNL     1     -38.122  24.896   2.985  0.00  0.00    +0.341 P 
ATOM     23  O   UNL     1     -37.691  25.007   1.552  0.00  0.00    -0.258 OA
ATOM     24  C   UNL     1     -39.888  24.953   3.208  0.00  0.00    +0.129 C 
BRANCH  22  25
ATOM     25  O   UNL     1     -37.578  26.089   3.933  0.00  0.00    -0.323 OA
ATOM     26  H   UNL     1     -38.040  26.060   4.786  0.00  0.00    +0.220 HD
ENDBRANCH  22  25
ENDBRANCH  21  22
ENDBRANCH  20  21
ENDBRANCH   2  20
TORSDOF 6
ENDMDL
MODEL 7
REMARK VINA RESULT:      -5.4      4.153      5.887
REMARK  Name = 196732
REMARK  6 active torsions:
REMARK  status: ('A' for Active; 'I' for Inactive)
REMARK    1  A    between atoms: C_2  and  C_20
REMARK    2  A    between atoms: C_3  and  O_18
REMARK    3  A    between atoms: C_4  and  N_6
REMARK    4  A    between atoms: C_20  and  O_21
REMARK    5  A    between atoms: O_21  and  P_22
REMARK    6  A    between atoms: P_22  and  O_25
REMARK                            x       y       z     vdW  Elec       q    Type
REMARK                         _______ _______ _______ _____ _____    ______ ____
ROOT
ATOM      1  O   UNL     1     -34.595  23.683   3.518  0.00  0.00    -0.335 OA
ATOM      2  C   UNL     1     -35.453  22.648   4.051  0.00  0.00    +0.174 C 
ATOM      3  C   UNL     1     -35.904  23.103   5.440  0.00  0.00    +0.144 C 
ATOM      4  C   UNL     1     -34.828  24.808   4.323  0.00  0.00    +0.197 C 
ATOM      5  C   UNL     1     -35.558  24.544   5.409  0.00  0.00    +0.083 C 
ENDROOT
BRANCH   4   6
ATOM      6  N   UNL     1     -34.280  26.047   3.943  0.00  0.00    -0.249 N 
ATOM      7  N   UNL     1     -33.778  27.813   2.651  0.00  0.00    -0.242 NA
ATOM      8  N   UNL     1     -33.141  26.716   5.986  0.00  0.00    -0.228 NA
ATOM      9  N   UNL     1     -32.032  28.875   5.734  0.00  0.00    -0.229 NA
ATOM     10  C   UNL     1     -33.518  26.897   4.711  0.00  0.00    +0.152 C 
ATOM     11  C   UNL     1     -34.401  26.655   2.710  0.00  0.00    +0.223 C 
ATOM     12  C   UNL     1     -33.221  27.977   3.895  0.00  0.00    +0.140 C 
ATOM     13  C   UNL     1     -32.448  28.992   4.450  0.00  0.00    +0.143 C 
ATOM     14  C   UNL     1     -32.399  27.761   6.412  0.00  0.00    +0.253 C 
ATOM     15  N   UNL     1     -32.100  30.124   3.695  0.00  0.00    -0.342 N 
ATOM     16  H   UNL     1     -31.553  30.836   4.099  0.00  0.00    +0.144 HD
ATOM     17  H   UNL     1     -32.404  30.207   2.762  0.00  0.00    +0.144 HD
ENDBRANCH   4   6
BRANCH   3  18
ATOM     18  O   UNL     1     -35.157  22.453   6.459  0.00  0.00    -0.382 OA
ATOM     19  H   UNL     1     -35.150  23.004   7.257  0.00  0.00    +0.210 HD
ENDBRANCH   3  18
BRANCH   2  20
ATOM     20  C   UNL     1     -36.618  22.464   3.083  0.00  0.00    +0.183 C 
BRANCH  20  21
ATOM     21  O   UNL     1     -36.112  21.992   1.846  0.00  0.00    -0.291 OA
BRANCH  21  22
ATOM     22  P   UNL     1     -36.147  20.418   1.479  0.00  0.00    +0.341 P 
ATOM     23  O   UNL     1     -36.751  20.110   0.141  0.00  0.00    -0.258 OA
ATOM     24  C   UNL     1     -34.468  19.847   1.656  0.00  0.00    +0.129 C 
BRANCH  22  25
ATOM     25  O   UNL     1     -36.917  19.733   2.725  0.00  0.00    -0.323 OA
ATOM     26  H   UNL     1     -37.251  20.425   3.319  0.00  0.00    +0.220 HD
ENDBRANCH  22  25
ENDBRANCH  21  22
ENDBRANCH  20  21
ENDBRANCH   2  20
TORSDOF 6
ENDMDL
MODEL 8
REMARK VINA RESULT:      -5.4      3.951      5.892
REMARK  Name = 196732
REMARK  6 active torsions:
REMARK  status: ('A' for Active; 'I' for Inactive)
REMARK    1  A    between atoms: C_2  and  C_20
REMARK    2  A    between atoms: C_3  and  O_18
REMARK    3  A    between atoms: C_4  and  N_6
REMARK    4  A    between atoms: C_20  and  O_21
REMARK    5  A    between atoms: O_21  and  P_22
REMARK    6  A    between atoms: P_22  and  O_25
REMARK                            x       y       z     vdW  Elec       q    Type
REMARK                         _______ _______ _______ _____ _____    ______ ____
ROOT
ATOM      1  O   UNL     1     -34.795  23.508   3.305  0.00  0.00    -0.335 OA
ATOM      2  C   UNL     1     -35.566  22.433   3.889  0.00  0.00    +0.174 C 
ATOM      3  C   UNL     1     -35.556  22.639   5.405  0.00  0.00    +0.144 C 
ATOM      4  C   UNL     1     -34.676  24.472   4.318  0.00  0.00    +0.197 C 
ATOM      5  C   UNL     1     -35.090  24.042   5.512  0.00  0.00    +0.083 C 
ENDROOT
BRANCH   4   6
ATOM      6  N   UNL     1     -34.137  25.732   4.003  0.00  0.00    -0.249 N 
ATOM      7  N   UNL     1     -33.575  27.530   2.781  0.00  0.00    -0.242 NA
ATOM      8  N   UNL     1     -33.222  26.414   6.152  0.00  0.00    -0.228 NA
ATOM      9  N   UNL     1     -32.169  28.612   6.027  0.00  0.00    -0.229 NA
ATOM     10  C   UNL     1     -33.482  26.598   4.848  0.00  0.00    +0.152 C 
ATOM     11  C   UNL     1     -34.161  26.351   2.770  0.00  0.00    +0.223 C 
ATOM     12  C   UNL     1     -33.145  27.697   4.074  0.00  0.00    +0.140 C 
ATOM     13  C   UNL     1     -32.465  28.730   4.710  0.00  0.00    +0.143 C 
ATOM     14  C   UNL     1     -32.561  27.478   6.656  0.00  0.00    +0.253 C 
ATOM     15  N   UNL     1     -32.084  29.883   4.002  0.00  0.00    -0.342 N 
ATOM     16  H   UNL     1     -31.603  30.608   4.463  0.00  0.00    +0.144 HD
ATOM     17  H   UNL     1     -32.301  29.966   3.045  0.00  0.00    +0.144 HD
ENDBRANCH   4   6
BRANCH   3  18
ATOM     18  O   UNL     1     -34.619  21.774   6.033  0.00  0.00    -0.382 OA
ATOM     19  H   UNL     1     -34.017  21.410   5.365  0.00  0.00    +0.210 HD
ENDBRANCH   3  18
BRANCH   2  20
ATOM     20  C   UNL     1     -36.970  22.489   3.295  0.00  0.00    +0.183 C 
BRANCH  20  21
ATOM     21  O   UNL     1     -37.058  23.615   2.438  0.00  0.00    -0.291 OA
BRANCH  21  22
ATOM     22  P   UNL     1     -38.213  24.727   2.642  0.00  0.00    +0.341 P 
ATOM     23  O   UNL     1     -38.032  25.964   1.813  0.00  0.00    -0.258 OA
ATOM     24  C   UNL     1     -39.752  23.882   2.339  0.00  0.00    +0.129 C 
BRANCH  22  25
ATOM     25  O   UNL     1     -38.233  24.997   4.237  0.00  0.00    -0.323 OA
ATOM     26  H   UNL     1     -38.928  24.459   4.647  0.00  0.00    +0.220 HD
ENDBRANCH  22  25
ENDBRANCH  21  22
ENDBRANCH  20  21
ENDBRANCH   2  20
TORSDOF 6
ENDMDL
MODEL 9
REMARK VINA RESULT:      -5.2      4.232      6.166
REMARK  Name = 196732
REMARK  6 active torsions:
REMARK  status: ('A' for Active; 'I' for Inactive)
REMARK    1  A    between atoms: C_2  and  C_20
REMARK    2  A    between atoms: C_3  and  O_18
REMARK    3  A    between atoms: C_4  and  N_6
REMARK    4  A    between atoms: C_20  and  O_21
REMARK    5  A    between atoms: O_21  and  P_22
REMARK    6  A    between atoms: P_22  and  O_25
REMARK                            x       y       z     vdW  Elec       q    Type
REMARK                         _______ _______ _______ _____ _____    ______ ____
ROOT
ATOM      1  O   UNL     1     -34.684  20.336   2.757  0.00  0.00    -0.335 OA
ATOM      2  C   UNL     1     -34.671  19.511   1.570  0.00  0.00    +0.174 C 
ATOM      3  C   UNL     1     -35.995  19.743   0.841  0.00  0.00    +0.144 C 
ATOM      4  C   UNL     1     -35.719  21.261   2.554  0.00  0.00    +0.197 C 
ATOM      5  C   UNL     1     -36.481  20.982   1.494  0.00  0.00    +0.083 C 
ENDROOT
BRANCH   4   6
ATOM      6  N   UNL     1     -35.865  22.333   3.454  0.00  0.00    -0.249 N 
ATOM      7  N   UNL     1     -35.946  23.441   5.405  0.00  0.00    -0.242 NA
ATOM      8  N   UNL     1     -36.332  24.175   1.934  0.00  0.00    -0.228 NA
ATOM      9  N   UNL     1     -36.658  26.274   3.135  0.00  0.00    -0.229 NA
ATOM     10  C   UNL     1     -36.142  23.647   3.153  0.00  0.00    +0.152 C 
ATOM     11  C   UNL     1     -35.758  22.273   4.828  0.00  0.00    +0.223 C 
ATOM     12  C   UNL     1     -36.188  24.310   4.369  0.00  0.00    +0.140 C 
ATOM     13  C   UNL     1     -36.456  25.674   4.333  0.00  0.00    +0.143 C 
ATOM     14  C   UNL     1     -36.583  25.498   2.027  0.00  0.00    +0.253 C 
ATOM     15  N   UNL     1     -36.520  26.425   5.519  0.00  0.00    -0.342 N 
ATOM     16  H   UNL     1     -36.710  27.390   5.481  0.00  0.00    +0.144 HD
ATOM     17  H   UNL     1     -36.373  25.986   6.388  0.00  0.00    +0.144 HD
ENDBRANCH   4   6
BRANCH   3  18
ATOM     18  O   UNL     1     -36.908  18.683   1.086  0.00  0.00    -0.382 OA
ATOM     19  H   UNL     1     -37.710  18.817   0.556  0.00  0.00    +0.210 HD
ENDBRANCH   3  18
BRANCH   2  20
ATOM     20  C   UNL     1     -33.458  19.911   0.735  0.00  0.00    +0.183 C 
BRANCH  20  21
ATOM     21  O   UNL     1     -33.201  18.890  -0.213  0.00  0.00    -0.291 OA
BRANCH  21  22
ATOM     22  P   UNL     1     -32.465  17.517   0.221  0.00  0.00    +0.341 P 
ATOM     23  O   UNL     1     -31.838  17.557   1.583  0.00  0.00    -0.258 OA
ATOM     24  C   UNL     1     -33.689  16.236   0.033  0.00  0.00    +0.129 C 
BRANCH  22  25
ATOM     25  O   UNL     1     -31.420  17.227  -0.979  0.00  0.00    -0.323 OA
ATOM     26  H   UNL     1     -31.850  17.402  -1.832  0.00  0.00    +0.220 HD
ENDBRANCH  22  25
ENDBRANCH  21  22
ENDBRANCH  20  21
ENDBRANCH   2  20
TORSDOF 6
ENDMDL
