MODEL 1
REMARK VINA RESULT:      -5.8      0.000      0.000
REMARK  Name = 5497105
REMARK  14 active torsions:
REMARK  status: ('A' for Active; 'I' for Inactive)
REMARK    1  A    between atoms: C_1  and  C_3
REMARK    2  A    between atoms: C_1  and  C_16
REMARK    3  A    between atoms: C_2  and  C_5
REMARK    4  A    between atoms: C_5  and  C_6
REMARK    5  A    between atoms: C_6  and  C_8
REMARK    6  A    between atoms: C_7  and  C_10
REMARK    7  A    between atoms: C_10  and  C_11
REMARK    8  A    between atoms: C_11  and  C_12
REMARK    9  A    between atoms: C_16  and  C_17
REMARK   10  A    between atoms: C_18  and  C_20
REMARK   11  A    between atoms: C_20  and  O_21
REMARK   12  A    between atoms: O_21  and  P_22
REMARK   13  A    between atoms: P_22  and  O_25
REMARK   14  A    between atoms: O_25  and  P_26
REMARK                            x       y       z     vdW  Elec       q    Type
REMARK                         _______ _______ _______ _____ _____    ______ ____
ROOT
ATOM      1  C   UNL     1     -37.380  23.194   2.005  0.00  0.00    +0.030 C 
ENDROOT
BRANCH   1   3
ATOM      2  C   UNL     1     -35.868  21.966   3.671  0.00  0.00    -0.048 C 
ATOM      3  C   UNL     1     -36.753  22.928   3.346  0.00  0.00    -0.034 C 
ATOM      4  C   UNL     1     -35.396  20.994   2.620  0.00  0.00    +0.026 C 
BRANCH   2   5
ATOM      5  C   UNL     1     -35.317  21.728   5.061  0.00  0.00    +0.026 C 
BRANCH   5   6
ATOM      6  C   UNL     1     -35.353  22.959   5.979  0.00  0.00    +0.030 C 
BRANCH   6   8
ATOM      7  C   UNL     1     -34.730  25.348   5.314  0.00  0.00    -0.048 C 
ATOM      8  C   UNL     1     -34.425  24.053   5.528  0.00  0.00    -0.034 C 
ATOM      9  C   UNL     1     -36.138  25.840   5.529  0.00  0.00    +0.026 C 
BRANCH   7  10
ATOM     10  C   UNL     1     -33.749  26.385   4.808  0.00  0.00    +0.026 C 
BRANCH  10  11
ATOM     11  C   UNL     1     -33.930  26.769   3.333  0.00  0.00    +0.030 C 
BRANCH  11  12
ATOM     12  C   UNL     1     -34.245  25.593   2.451  0.00  0.00    -0.034 C 
ATOM     13  C   UNL     1     -33.516  25.089   1.437  0.00  0.00    -0.048 C 
ATOM     14  C   UNL     1     -34.010  23.890   0.670  0.00  0.00    +0.026 C 
ATOM     15  C   UNL     1     -32.191  25.616   0.965  0.00  0.00    +0.026 C 
ENDBRANCH  11  12
ENDBRANCH  10  11
ENDBRANCH   7  10
ENDBRANCH   6   8
ENDBRANCH   5   6
ENDBRANCH   2   5
ENDBRANCH   1   3
BRANCH   1  16
ATOM     16  C   UNL     1     -37.839  24.653   1.893  0.00  0.00    +0.026 C 
BRANCH  16  17
ATOM     17  C   UNL     1     -39.252  24.843   2.394  0.00  0.00    -0.045 C 
ATOM     18  C   UNL     1     -39.667  25.904   3.114  0.00  0.00    -0.002 C 
ATOM     19  C   UNL     1     -40.209  23.732   2.053  0.00  0.00    +0.026 C 
BRANCH  18  20
ATOM     20  C   UNL     1     -41.039  26.149   3.657  0.00  0.00    +0.179 C 
BRANCH  20  21
ATOM     21  O   UNL     1     -41.331  27.536   3.535  0.00  0.00    -0.267 OA
BRANCH  21  22
ATOM     22  P   UNL     1     -42.880  28.036   3.681  0.00  0.00    +0.514 P 
ATOM     23  O   UNL     1     -43.745  26.877   4.126  0.00  0.00    -0.116 OA
ATOM     24  O   UNL     1     -43.231  28.834   2.444  0.00  0.00    -0.224 OA
BRANCH  22  25
ATOM     25  O   UNL     1     -42.703  29.075   4.931  0.00  0.00    -0.181 OA
BRANCH  25  26
ATOM     26  P   UNL     1     -43.822  30.014   5.696  0.00  0.00    +0.540 P 
ATOM     27  O   UNL     1     -43.775  31.340   4.944  0.00  0.00    -0.114 OA
ATOM     28  O   UNL     1     -43.312  30.091   7.131  0.00  0.00    -0.114 OA
ATOM     29  O   UNL     1     -45.129  29.245   5.536  0.00  0.00    -0.222 OA
ENDBRANCH  25  26
ENDBRANCH  22  25
ENDBRANCH  21  22
ENDBRANCH  20  21
ENDBRANCH  18  20
ENDBRANCH  16  17
ENDBRANCH   1  16
TORSDOF 14
ENDMDL
MODEL 2
REMARK VINA RESULT:      -5.6      1.681      3.343
REMARK  Name = 5497105
REMARK  14 active torsions:
REMARK  status: ('A' for Active; 'I' for Inactive)
REMARK    1  A    between atoms: C_1  and  C_3
REMARK    2  A    between atoms: C_1  and  C_16
REMARK    3  A    between atoms: C_2  and  C_5
REMARK    4  A    between atoms: C_5  and  C_6
REMARK    5  A    between atoms: C_6  and  C_8
REMARK    6  A    between atoms: C_7  and  C_10
REMARK    7  A    between atoms: C_10  and  C_11
REMARK    8  A    between atoms: C_11  and  C_12
REMARK    9  A    between atoms: C_16  and  C_17
REMARK   10  A    between atoms: C_18  and  C_20
REMARK   11  A    between atoms: C_20  and  O_21
REMARK   12  A    between atoms: O_21  and  P_22
REMARK   13  A    between atoms: P_22  and  O_25
REMARK   14  A    between atoms: O_25  and  P_26
REMARK                            x       y       z     vdW  Elec       q    Type
REMARK                         _______ _______ _______ _____ _____    ______ ____
ROOT
ATOM      1  C   UNL     1     -35.261  24.050  -0.960  0.00  0.00    +0.030 C 
ENDROOT
BRANCH   1   3
ATOM      2  C   UNL     1     -35.119  21.875   0.389  0.00  0.00    -0.048 C 
ATOM      3  C   UNL     1     -34.673  23.099   0.046  0.00  0.00    -0.034 C 
ATOM      4  C   UNL     1     -36.354  21.314  -0.270  0.00  0.00    +0.026 C 
BRANCH   2   5
ATOM      5  C   UNL     1     -34.500  20.994   1.453  0.00  0.00    +0.026 C 
BRANCH   5   6
ATOM      6  C   UNL     1     -35.334  20.865   2.737  0.00  0.00    +0.030 C 
BRANCH   6   8
ATOM      7  C   UNL     1     -35.499  22.484   4.709  0.00  0.00    -0.048 C 
ATOM      8  C   UNL     1     -35.600  22.190   3.398  0.00  0.00    -0.034 C 
ATOM      9  C   UNL     1     -35.078  21.425   5.693  0.00  0.00    +0.026 C 
BRANCH   7  10
ATOM     10  C   UNL     1     -35.835  23.833   5.310  0.00  0.00    +0.026 C 
BRANCH  10  11
ATOM     11  C   UNL     1     -34.638  24.786   5.448  0.00  0.00    +0.030 C 
BRANCH  11  12
ATOM     12  C   UNL     1     -34.820  26.076   4.698  0.00  0.00    -0.034 C 
ATOM     13  C   UNL     1     -34.386  26.393   3.463  0.00  0.00    -0.048 C 
ATOM     14  C   UNL     1     -34.677  27.753   2.883  0.00  0.00    +0.026 C 
ATOM     15  C   UNL     1     -33.606  25.491   2.551  0.00  0.00    +0.026 C 
ENDBRANCH  11  12
ENDBRANCH  10  11
ENDBRANCH   7  10
ENDBRANCH   6   8
ENDBRANCH   5   6
ENDBRANCH   2   5
ENDBRANCH   1   3
BRANCH   1  16
ATOM     16  C   UNL     1     -35.941  25.235  -0.262  0.00  0.00    +0.026 C 
BRANCH  16  17
ATOM     17  C   UNL     1     -37.200  24.820   0.463  0.00  0.00    -0.045 C 
ATOM     18  C   UNL     1     -37.329  24.783   1.803  0.00  0.00    -0.002 C 
ATOM     19  C   UNL     1     -38.347  24.414  -0.424  0.00  0.00    +0.026 C 
BRANCH  18  20
ATOM     20  C   UNL     1     -38.533  24.366   2.586  0.00  0.00    +0.179 C 
BRANCH  20  21
ATOM     21  O   UNL     1     -39.137  25.530   3.138  0.00  0.00    -0.267 OA
BRANCH  21  22
ATOM     22  P   UNL     1     -40.419  26.196   2.374  0.00  0.00    +0.514 P 
ATOM     23  O   UNL     1     -41.357  25.101   1.913  0.00  0.00    -0.116 OA
ATOM     24  O   UNL     1     -39.897  27.229   1.399  0.00  0.00    -0.224 OA
BRANCH  22  25
ATOM     25  O   UNL     1     -41.100  26.978   3.638  0.00  0.00    -0.181 OA
BRANCH  25  26
ATOM     26  P   UNL     1     -42.490  27.861   3.715  0.00  0.00    +0.540 P 
ATOM     27  O   UNL     1     -42.711  28.339   2.284  0.00  0.00    -0.114 OA
ATOM     28  O   UNL     1     -42.160  28.975   4.703  0.00  0.00    -0.114 OA
ATOM     29  O   UNL     1     -43.536  26.870   4.215  0.00  0.00    -0.222 OA
ENDBRANCH  25  26
ENDBRANCH  22  25
ENDBRANCH  21  22
ENDBRANCH  20  21
ENDBRANCH  18  20
ENDBRANCH  16  17
ENDBRANCH   1  16
TORSDOF 14
ENDMDL
MODEL 3
REMARK VINA RESULT:      -5.5      1.525      3.819
REMARK  Name = 5497105
REMARK  14 active torsions:
REMARK  status: ('A' for Active; 'I' for Inactive)
REMARK    1  A    between atoms: C_1  and  C_3
REMARK    2  A    between atoms: C_1  and  C_16
REMARK    3  A    between atoms: C_2  and  C_5
REMARK    4  A    between atoms: C_5  and  C_6
REMARK    5  A    between atoms: C_6  and  C_8
REMARK    6  A    between atoms: C_7  and  C_10
REMARK    7  A    between atoms: C_10  and  C_11
REMARK    8  A    between atoms: C_11  and  C_12
REMARK    9  A    between atoms: C_16  and  C_17
REMARK   10  A    between atoms: C_18  and  C_20
REMARK   11  A    between atoms: C_20  and  O_21
REMARK   12  A    between atoms: O_21  and  P_22
REMARK   13  A    between atoms: P_22  and  O_25
REMARK   14  A    between atoms: O_25  and  P_26
REMARK                            x       y       z     vdW  Elec       q    Type
REMARK                         _______ _______ _______ _____ _____    ______ ____
ROOT
ATOM      1  C   UNL     1     -38.933  26.406   1.224  0.00  0.00    +0.030 C 
ENDROOT
BRANCH   1   3
ATOM      2  C   UNL     1     -36.389  26.147   1.397  0.00  0.00    -0.048 C 
ATOM      3  C   UNL     1     -37.619  25.684   1.099  0.00  0.00    -0.034 C 
ATOM      4  C   UNL     1     -36.221  27.548   1.927  0.00  0.00    +0.026 C 
BRANCH   2   5
ATOM      5  C   UNL     1     -35.102  25.376   1.195  0.00  0.00    +0.026 C 
BRANCH   5   6
ATOM      6  C   UNL     1     -35.287  23.861   1.025  0.00  0.00    +0.030 C 
BRANCH   6   8
ATOM      7  C   UNL     1     -35.881  22.616   3.178  0.00  0.00    -0.048 C 
ATOM      8  C   UNL     1     -34.992  23.090   2.283  0.00  0.00    -0.034 C 
ATOM      9  C   UNL     1     -37.357  22.838   2.972  0.00  0.00    +0.026 C 
BRANCH   7  10
ATOM     10  C   UNL     1     -35.505  21.890   4.453  0.00  0.00    +0.026 C 
BRANCH  10  11
ATOM     11  C   UNL     1     -35.376  22.794   5.688  0.00  0.00    +0.030 C 
BRANCH  11  12
ATOM     12  C   UNL     1     -34.515  24.003   5.448  0.00  0.00    -0.034 C 
ATOM     13  C   UNL     1     -34.899  25.279   5.258  0.00  0.00    -0.048 C 
ATOM     14  C   UNL     1     -33.870  26.356   5.035  0.00  0.00    +0.026 C 
ATOM     15  C   UNL     1     -36.317  25.774   5.247  0.00  0.00    +0.026 C 
ENDBRANCH  11  12
ENDBRANCH  10  11
ENDBRANCH   7  10
ENDBRANCH   6   8
ENDBRANCH   5   6
ENDBRANCH   2   5
ENDBRANCH   1   3
BRANCH   1  16
ATOM     16  C   UNL     1     -39.686  25.959   2.483  0.00  0.00    +0.026 C 
BRANCH  16  17
ATOM     17  C   UNL     1     -41.173  26.209   2.373  0.00  0.00    -0.045 C 
ATOM     18  C   UNL     1     -41.949  26.637   3.387  0.00  0.00    -0.002 C 
ATOM     19  C   UNL     1     -41.773  25.923   1.022  0.00  0.00    +0.026 C 
BRANCH  18  20
ATOM     20  C   UNL     1     -43.424  26.887   3.356  0.00  0.00    +0.179 C 
BRANCH  20  21
ATOM     21  O   UNL     1     -43.811  27.455   4.601  0.00  0.00    -0.267 OA
BRANCH  21  22
ATOM     22  P   UNL     1     -43.746  29.077   4.786  0.00  0.00    +0.514 P 
ATOM     23  O   UNL     1     -44.482  29.746   3.645  0.00  0.00    -0.116 OA
ATOM     24  O   UNL     1     -42.317  29.454   5.111  0.00  0.00    -0.224 OA
BRANCH  22  25
ATOM     25  O   UNL     1     -44.639  29.221   6.148  0.00  0.00    -0.181 OA
BRANCH  25  26
ATOM     26  P   UNL     1     -44.650  30.412   7.289  0.00  0.00    +0.540 P 
ATOM     27  O   UNL     1     -46.015  30.279   7.956  0.00  0.00    -0.114 OA
ATOM     28  O   UNL     1     -44.471  31.692   6.481  0.00  0.00    -0.114 OA
ATOM     29  O   UNL     1     -43.472  30.072   8.196  0.00  0.00    -0.222 OA
ENDBRANCH  25  26
ENDBRANCH  22  25
ENDBRANCH  21  22
ENDBRANCH  20  21
ENDBRANCH  18  20
ENDBRANCH  16  17
ENDBRANCH   1  16
TORSDOF 14
ENDMDL
MODEL 4
REMARK VINA RESULT:      -5.4      9.418     10.872
REMARK  Name = 5497105
REMARK  14 active torsions:
REMARK  status: ('A' for Active; 'I' for Inactive)
REMARK    1  A    between atoms: C_1  and  C_3
REMARK    2  A    between atoms: C_1  and  C_16
REMARK    3  A    between atoms: C_2  and  C_5
REMARK    4  A    between atoms: C_5  and  C_6
REMARK    5  A    between atoms: C_6  and  C_8
REMARK    6  A    between atoms: C_7  and  C_10
REMARK    7  A    between atoms: C_10  and  C_11
REMARK    8  A    between atoms: C_11  and  C_12
REMARK    9  A    between atoms: C_16  and  C_17
REMARK   10  A    between atoms: C_18  and  C_20
REMARK   11  A    between atoms: C_20  and  O_21
REMARK   12  A    between atoms: O_21  and  P_22
REMARK   13  A    between atoms: P_22  and  O_25
REMARK   14  A    between atoms: O_25  and  P_26
REMARK                            x       y       z     vdW  Elec       q    Type
REMARK                         _______ _______ _______ _____ _____    ______ ____
ROOT
ATOM      1  C   UNL     1     -35.366  21.278   2.781  0.00  0.00    +0.030 C 
ENDROOT
BRANCH   1   3
ATOM      2  C   UNL     1     -35.369  22.661   4.939  0.00  0.00    -0.048 C 
ATOM      3  C   UNL     1     -35.491  22.532   3.604  0.00  0.00    -0.034 C 
ATOM      4  C   UNL     1     -35.070  21.452   5.788  0.00  0.00    +0.026 C 
BRANCH   2   5
ATOM      5  C   UNL     1     -35.560  23.953   5.705  0.00  0.00    +0.026 C 
BRANCH   5   6
ATOM      6  C   UNL     1     -36.334  25.038   4.942  0.00  0.00    +0.030 C 
BRANCH   6   8
ATOM      7  C   UNL     1     -34.877  26.614   3.551  0.00  0.00    -0.048 C 
ATOM      8  C   UNL     1     -35.515  26.274   4.689  0.00  0.00    -0.034 C 
ATOM      9  C   UNL     1     -34.941  25.710   2.348  0.00  0.00    +0.026 C 
BRANCH   7  10
ATOM     10  C   UNL     1     -34.025  27.855   3.388  0.00  0.00    +0.026 C 
BRANCH  10  11
ATOM     11  C   UNL     1     -32.538  27.656   3.713  0.00  0.00    +0.030 C 
BRANCH  11  12
ATOM     12  C   UNL     1     -32.035  28.594   4.776  0.00  0.00    -0.034 C 
ATOM     13  C   UNL     1     -32.071  28.438   6.112  0.00  0.00    -0.048 C 
ATOM     14  C   UNL     1     -31.506  29.503   7.016  0.00  0.00    +0.026 C 
ATOM     15  C   UNL     1     -32.640  27.253   6.841  0.00  0.00    +0.026 C 
ENDBRANCH  11  12
ENDBRANCH  10  11
ENDBRANCH   7  10
ENDBRANCH   6   8
ENDBRANCH   5   6
ENDBRANCH   2   5
ENDBRANCH   1   3
BRANCH   1  16
ATOM     16  C   UNL     1     -35.062  21.612   1.316  0.00  0.00    +0.026 C 
BRANCH  16  17
ATOM     17  C   UNL     1     -34.200  20.557   0.661  0.00  0.00    -0.045 C 
ATOM     18  C   UNL     1     -33.040  20.810   0.025  0.00  0.00    -0.002 C 
ATOM     19  C   UNL     1     -34.735  19.152   0.739  0.00  0.00    +0.026 C 
BRANCH  18  20
ATOM     20  C   UNL     1     -32.148  19.823  -0.660  0.00  0.00    +0.179 C 
BRANCH  20  21
ATOM     21  O   UNL     1     -31.100  19.467   0.234  0.00  0.00    -0.267 OA
BRANCH  21  22
ATOM     22  P   UNL     1     -30.962  17.912   0.715  0.00  0.00    +0.514 P 
ATOM     23  O   UNL     1     -31.758  17.704   1.985  0.00  0.00    -0.116 OA
ATOM     24  O   UNL     1     -29.500  17.530   0.647  0.00  0.00    -0.224 OA
BRANCH  22  25
ATOM     25  O   UNL     1     -31.744  17.185  -0.523  0.00  0.00    -0.181 OA
BRANCH  25  26
ATOM     26  P   UNL     1     -32.369  15.663  -0.636  0.00  0.00    +0.540 P 
ATOM     27  O   UNL     1     -33.791  15.802  -0.101  0.00  0.00    -0.114 OA
ATOM     28  O   UNL     1     -31.448  14.825   0.244  0.00  0.00    -0.114 OA
ATOM     29  O   UNL     1     -32.286  15.334  -2.123  0.00  0.00    -0.222 OA
ENDBRANCH  25  26
ENDBRANCH  22  25
ENDBRANCH  21  22
ENDBRANCH  20  21
ENDBRANCH  18  20
ENDBRANCH  16  17
ENDBRANCH   1  16
TORSDOF 14
ENDMDL
MODEL 5
REMARK VINA RESULT:      -5.4      1.637      3.390
REMARK  Name = 5497105
REMARK  14 active torsions:
REMARK  status: ('A' for Active; 'I' for Inactive)
REMARK    1  A    between atoms: C_1  and  C_3
REMARK    2  A    between atoms: C_1  and  C_16
REMARK    3  A    between atoms: C_2  and  C_5
REMARK    4  A    between atoms: C_5  and  C_6
REMARK    5  A    between atoms: C_6  and  C_8
REMARK    6  A    between atoms: C_7  and  C_10
REMARK    7  A    between atoms: C_10  and  C_11
REMARK    8  A    between atoms: C_11  and  C_12
REMARK    9  A    between atoms: C_16  and  C_17
REMARK   10  A    between atoms: C_18  and  C_20
REMARK   11  A    between atoms: C_20  and  O_21
REMARK   12  A    between atoms: O_21  and  P_22
REMARK   13  A    between atoms: P_22  and  O_25
REMARK   14  A    between atoms: O_25  and  P_26
REMARK                            x       y       z     vdW  Elec       q    Type
REMARK                         _______ _______ _______ _____ _____    ______ ____
ROOT
ATOM      1  C   UNL     1     -38.209  24.807   2.311  0.00  0.00    +0.030 C 
ENDROOT
BRANCH   1   3
ATOM      2  C   UNL     1     -36.553  25.750   4.025  0.00  0.00    -0.048 C 
ATOM      3  C   UNL     1     -37.580  24.954   3.669  0.00  0.00    -0.034 C 
ATOM      4  C   UNL     1     -35.898  26.636   2.996  0.00  0.00    +0.026 C 
BRANCH   2   5
ATOM      5  C   UNL     1     -35.938  25.806   5.407  0.00  0.00    +0.026 C 
BRANCH   5   6
ATOM      6  C   UNL     1     -34.742  24.864   5.610  0.00  0.00    +0.030 C 
BRANCH   6   8
ATOM      7  C   UNL     1     -35.159  22.395   5.092  0.00  0.00    -0.048 C 
ATOM      8  C   UNL     1     -34.802  23.644   4.732  0.00  0.00    -0.034 C 
ATOM      9  C   UNL     1     -35.560  22.101   6.514  0.00  0.00    +0.026 C 
BRANCH   7  10
ATOM     10  C   UNL     1     -35.146  21.201   4.160  0.00  0.00    +0.026 C 
BRANCH  10  11
ATOM     11  C   UNL     1     -35.472  21.531   2.696  0.00  0.00    +0.030 C 
BRANCH  11  12
ATOM     12  C   UNL     1     -36.215  20.429   1.994  0.00  0.00    -0.034 C 
ATOM     13  C   UNL     1     -36.250  20.151   0.677  0.00  0.00    -0.048 C 
ATOM     14  C   UNL     1     -37.062  18.989   0.168  0.00  0.00    +0.026 C 
ATOM     15  C   UNL     1     -35.526  20.911  -0.398  0.00  0.00    +0.026 C 
ENDBRANCH  11  12
ENDBRANCH  10  11
ENDBRANCH   7  10
ENDBRANCH   6   8
ENDBRANCH   5   6
ENDBRANCH   2   5
ENDBRANCH   1   3
BRANCH   1  16
ATOM     16  C   UNL     1     -39.582  24.129   2.412  0.00  0.00    +0.026 C 
BRANCH  16  17
ATOM     17  C   UNL     1     -40.710  25.083   2.093  0.00  0.00    -0.045 C 
ATOM     18  C   UNL     1     -40.892  26.273   2.696  0.00  0.00    -0.002 C 
ATOM     19  C   UNL     1     -41.673  24.607   1.038  0.00  0.00    +0.026 C 
BRANCH  18  20
ATOM     20  C   UNL     1     -41.992  27.256   2.446  0.00  0.00    +0.179 C 
BRANCH  20  21
ATOM     21  O   UNL     1     -42.059  28.149   3.551  0.00  0.00    -0.267 OA
BRANCH  21  22
ATOM     22  P   UNL     1     -43.523  28.616   4.106  0.00  0.00    +0.514 P 
ATOM     23  O   UNL     1     -44.266  27.413   4.644  0.00  0.00    -0.116 OA
ATOM     24  O   UNL     1     -44.154  29.513   3.063  0.00  0.00    -0.224 OA
BRANCH  22  25
ATOM     25  O   UNL     1     -43.042  29.546   5.362  0.00  0.00    -0.181 OA
BRANCH  25  26
ATOM     26  P   UNL     1     -43.917  30.547   6.337  0.00  0.00    +0.540 P 
ATOM     27  O   UNL     1     -45.366  30.138   6.091  0.00  0.00    -0.114 OA
ATOM     28  O   UNL     1     -43.568  31.943   5.834  0.00  0.00    -0.114 OA
ATOM     29  O   UNL     1     -43.408  30.241   7.742  0.00  0.00    -0.222 OA
ENDBRANCH  25  26
ENDBRANCH  22  25
ENDBRANCH  21  22
ENDBRANCH  20  21
ENDBRANCH  18  20
ENDBRANCH  16  17
ENDBRANCH   1  16
TORSDOF 14
ENDMDL
MODEL 6
REMARK VINA RESULT:      -5.4      1.662      3.066
REMARK  Name = 5497105
REMARK  14 active torsions:
REMARK  status: ('A' for Active; 'I' for Inactive)
REMARK    1  A    between atoms: C_1  and  C_3
REMARK    2  A    between atoms: C_1  and  C_16
REMARK    3  A    between atoms: C_2  and  C_5
REMARK    4  A    between atoms: C_5  and  C_6
REMARK    5  A    between atoms: C_6  and  C_8
REMARK    6  A    between atoms: C_7  and  C_10
REMARK    7  A    between atoms: C_10  and  C_11
REMARK    8  A    between atoms: C_11  and  C_12
REMARK    9  A    between atoms: C_16  and  C_17
REMARK   10  A    between atoms: C_18  and  C_20
REMARK   11  A    between atoms: C_20  and  O_21
REMARK   12  A    between atoms: O_21  and  P_22
REMARK   13  A    between atoms: P_22  and  O_25
REMARK   14  A    between atoms: O_25  and  P_26
REMARK                            x       y       z     vdW  Elec       q    Type
REMARK                         _______ _______ _______ _____ _____    ______ ____
ROOT
ATOM      1  C   UNL     1     -39.031  25.168   2.716  0.00  0.00    +0.030 C 
ENDROOT
BRANCH   1   3
ATOM      2  C   UNL     1     -37.372  23.394   1.897  0.00  0.00    -0.048 C 
ATOM      3  C   UNL     1     -38.336  23.834   2.729  0.00  0.00    -0.034 C 
ATOM      4  C   UNL     1     -36.871  24.286   0.790  0.00  0.00    +0.026 C 
BRANCH   2   5
ATOM      5  C   UNL     1     -36.754  22.013   1.940  0.00  0.00    +0.026 C 
BRANCH   5   6
ATOM      6  C   UNL     1     -35.879  21.746   3.173  0.00  0.00    +0.030 C 
BRANCH   6   8
ATOM      7  C   UNL     1     -35.044  23.326   5.002  0.00  0.00    -0.048 C 
ATOM      8  C   UNL     1     -35.227  22.991   3.710  0.00  0.00    -0.034 C 
ATOM      9  C   UNL     1     -35.515  22.406   6.098  0.00  0.00    +0.026 C 
BRANCH   7  10
ATOM     10  C   UNL     1     -34.423  24.627   5.468  0.00  0.00    +0.026 C 
BRANCH  10  11
ATOM     11  C   UNL     1     -35.415  25.789   5.620  0.00  0.00    +0.030 C 
BRANCH  11  12
ATOM     12  C   UNL     1     -35.894  26.333   4.303  0.00  0.00    -0.034 C 
ATOM     13  C   UNL     1     -35.195  27.017   3.377  0.00  0.00    -0.048 C 
ATOM     14  C   UNL     1     -35.865  27.477   2.108  0.00  0.00    +0.026 C 
ATOM     15  C   UNL     1     -33.743  27.387   3.473  0.00  0.00    +0.026 C 
ENDBRANCH  11  12
ENDBRANCH  10  11
ENDBRANCH   7  10
ENDBRANCH   6   8
ENDBRANCH   5   6
ENDBRANCH   2   5
ENDBRANCH   1   3
BRANCH   1  16
ATOM     16  C   UNL     1     -40.367  25.098   3.466  0.00  0.00    +0.026 C 
BRANCH  16  17
ATOM     17  C   UNL     1     -41.248  26.289   3.168  0.00  0.00    -0.045 C 
ATOM     18  C   UNL     1     -41.738  27.125   4.104  0.00  0.00    -0.002 C 
ATOM     19  C   UNL     1     -41.582  26.493   1.714  0.00  0.00    +0.026 C 
BRANCH  18  20
ATOM     20  C   UNL     1     -42.627  28.308   3.885  0.00  0.00    +0.179 C 
BRANCH  20  21
ATOM     21  O   UNL     1     -42.437  29.220   4.961  0.00  0.00    -0.267 OA
BRANCH  21  22
ATOM     22  P   UNL     1     -43.747  29.876   5.684  0.00  0.00    +0.514 P 
ATOM     23  O   UNL     1     -43.439  30.141   7.142  0.00  0.00    -0.116 OA
ATOM     24  O   UNL     1     -44.958  29.063   5.285  0.00  0.00    -0.224 OA
BRANCH  22  25
ATOM     25  O   UNL     1     -43.798  31.303   4.887  0.00  0.00    -0.181 OA
BRANCH  25  26
ATOM     26  P   UNL     1     -44.971  32.462   4.861  0.00  0.00    +0.540 P 
ATOM     27  O   UNL     1     -45.792  32.136   3.618  0.00  0.00    -0.114 OA
ATOM     28  O   UNL     1     -44.190  33.768   4.770  0.00  0.00    -0.114 OA
ATOM     29  O   UNL     1     -45.718  32.269   6.176  0.00  0.00    -0.222 OA
ENDBRANCH  25  26
ENDBRANCH  22  25
ENDBRANCH  21  22
ENDBRANCH  20  21
ENDBRANCH  18  20
ENDBRANCH  16  17
ENDBRANCH   1  16
TORSDOF 14
ENDMDL
MODEL 7
REMARK VINA RESULT:      -5.4      5.808      8.316
REMARK  Name = 5497105
REMARK  14 active torsions:
REMARK  status: ('A' for Active; 'I' for Inactive)
REMARK    1  A    between atoms: C_1  and  C_3
REMARK    2  A    between atoms: C_1  and  C_16
REMARK    3  A    between atoms: C_2  and  C_5
REMARK    4  A    between atoms: C_5  and  C_6
REMARK    5  A    between atoms: C_6  and  C_8
REMARK    6  A    between atoms: C_7  and  C_10
REMARK    7  A    between atoms: C_10  and  C_11
REMARK    8  A    between atoms: C_11  and  C_12
REMARK    9  A    between atoms: C_16  and  C_17
REMARK   10  A    between atoms: C_18  and  C_20
REMARK   11  A    between atoms: C_20  and  O_21
REMARK   12  A    between atoms: O_21  and  P_22
REMARK   13  A    between atoms: P_22  and  O_25
REMARK   14  A    between atoms: O_25  and  P_26
REMARK                            x       y       z     vdW  Elec       q    Type
REMARK                         _______ _______ _______ _____ _____    ______ ____
ROOT
ATOM      1  C   UNL     1     -35.088  22.586   1.591  0.00  0.00    +0.030 C 
ENDROOT
BRANCH   1   3
ATOM      2  C   UNL     1     -33.129  22.379  -0.049  0.00  0.00    -0.048 C 
ATOM      3  C   UNL     1     -34.132  21.859   0.685  0.00  0.00    -0.034 C 
ATOM      4  C   UNL     1     -32.863  23.862  -0.014  0.00  0.00    +0.026 C 
BRANCH   2   5
ATOM      5  C   UNL     1     -32.238  21.587  -0.982  0.00  0.00    +0.026 C 
BRANCH   5   6
ATOM      6  C   UNL     1     -31.602  20.340  -0.349  0.00  0.00    +0.030 C 
BRANCH   6   8
ATOM      7  C   UNL     1     -32.995  18.255   0.154  0.00  0.00    -0.048 C 
ATOM      8  C   UNL     1     -32.335  19.071  -0.691  0.00  0.00    -0.034 C 
ATOM      9  C   UNL     1     -33.054  18.576   1.625  0.00  0.00    +0.026 C 
BRANCH   7  10
ATOM     10  C   UNL     1     -33.669  16.963  -0.257  0.00  0.00    +0.026 C 
BRANCH  10  11
ATOM     11  C   UNL     1     -34.931  17.146  -1.113  0.00  0.00    +0.030 C 
BRANCH  11  12
ATOM     12  C   UNL     1     -35.964  18.023  -0.462  0.00  0.00    -0.034 C 
ATOM     13  C   UNL     1     -36.335  19.271  -0.804  0.00  0.00    -0.048 C 
ATOM     14  C   UNL     1     -37.403  19.987  -0.018  0.00  0.00    +0.026 C 
ATOM     15  C   UNL     1     -35.775  20.070  -1.946  0.00  0.00    +0.026 C 
ENDBRANCH  11  12
ENDBRANCH  10  11
ENDBRANCH   7  10
ENDBRANCH   6   8
ENDBRANCH   5   6
ENDBRANCH   2   5
ENDBRANCH   1   3
BRANCH   1  16
ATOM     16  C   UNL     1     -35.517  21.694   2.763  0.00  0.00    +0.026 C 
BRANCH  16  17
ATOM     17  C   UNL     1     -35.517  22.444   4.076  0.00  0.00    -0.045 C 
ATOM     18  C   UNL     1     -35.714  23.771   4.193  0.00  0.00    -0.002 C 
ATOM     19  C   UNL     1     -35.254  21.602   5.296  0.00  0.00    +0.026 C 
BRANCH  18  20
ATOM     20  C   UNL     1     -35.709  24.580   5.451  0.00  0.00    +0.179 C 
BRANCH  20  21
ATOM     21  O   UNL     1     -34.401  25.105   5.645  0.00  0.00    -0.267 OA
BRANCH  21  22
ATOM     22  P   UNL     1     -33.894  26.339   4.703  0.00  0.00    +0.514 P 
ATOM     23  O   UNL     1     -35.080  27.193   4.308  0.00  0.00    -0.116 OA
ATOM     24  O   UNL     1     -32.963  25.773   3.653  0.00  0.00    -0.224 OA
BRANCH  22  25
ATOM     25  O   UNL     1     -32.998  27.155   5.800  0.00  0.00    -0.181 OA
BRANCH  25  26
ATOM     26  P   UNL     1     -32.010  28.461   5.604  0.00  0.00    +0.540 P 
ATOM     27  O   UNL     1     -31.906  29.066   7.000  0.00  0.00    -0.114 OA
ATOM     28  O   UNL     1     -32.755  29.333   4.599  0.00  0.00    -0.114 OA
ATOM     29  O   UNL     1     -30.707  27.869   5.076  0.00  0.00    -0.222 OA
ENDBRANCH  25  26
ENDBRANCH  22  25
ENDBRANCH  21  22
ENDBRANCH  20  21
ENDBRANCH  18  20
ENDBRANCH  16  17
ENDBRANCH   1  16
TORSDOF 14
ENDMDL
MODEL 8
REMARK VINA RESULT:      -5.4      5.476      8.185
REMARK  Name = 5497105
REMARK  14 active torsions:
REMARK  status: ('A' for Active; 'I' for Inactive)
REMARK    1  A    between atoms: C_1  and  C_3
REMARK    2  A    between atoms: C_1  and  C_16
REMARK    3  A    between atoms: C_2  and  C_5
REMARK    4  A    between atoms: C_5  and  C_6
REMARK    5  A    between atoms: C_6  and  C_8
REMARK    6  A    between atoms: C_7  and  C_10
REMARK    7  A    between atoms: C_10  and  C_11
REMARK    8  A    between atoms: C_11  and  C_12
REMARK    9  A    between atoms: C_16  and  C_17
REMARK   10  A    between atoms: C_18  and  C_20
REMARK   11  A    between atoms: C_20  and  O_21
REMARK   12  A    between atoms: O_21  and  P_22
REMARK   13  A    between atoms: P_22  and  O_25
REMARK   14  A    between atoms: O_25  and  P_26
REMARK                            x       y       z     vdW  Elec       q    Type
REMARK                         _______ _______ _______ _____ _____    ______ ____
ROOT
ATOM      1  C   UNL     1     -34.851  20.852   1.648  0.00  0.00    +0.030 C 
ENDROOT
BRANCH   1   3
ATOM      2  C   UNL     1     -32.971  19.200   1.095  0.00  0.00    -0.048 C 
ATOM      3  C   UNL     1     -34.121  19.537   1.709  0.00  0.00    -0.034 C 
ATOM      4  C   UNL     1     -32.262  20.204   0.222  0.00  0.00    +0.026 C 
BRANCH   2   5
ATOM      5  C   UNL     1     -32.321  17.834   1.163  0.00  0.00    +0.026 C 
BRANCH   5   6
ATOM      6  C   UNL     1     -32.683  16.898  -0.001  0.00  0.00    +0.030 C 
BRANCH   6   8
ATOM      7  C   UNL     1     -35.051  16.943  -0.964  0.00  0.00    -0.048 C 
ATOM      8  C   UNL     1     -34.147  16.556  -0.043  0.00  0.00    -0.034 C 
ATOM      9  C   UNL     1     -34.632  17.817  -2.117  0.00  0.00    +0.026 C 
BRANCH   7  10
ATOM     10  C   UNL     1     -36.525  16.599  -0.912  0.00  0.00    +0.026 C 
BRANCH  10  11
ATOM     11  C   UNL     1     -37.450  17.655  -1.535  0.00  0.00    +0.030 C 
BRANCH  11  12
ATOM     12  C   UNL     1     -37.970  18.649  -0.535  0.00  0.00    -0.034 C 
ATOM     13  C   UNL     1     -37.749  19.976  -0.484  0.00  0.00    -0.048 C 
ATOM     14  C   UNL     1     -38.371  20.807   0.609  0.00  0.00    +0.026 C 
ATOM     15  C   UNL     1     -36.911  20.763  -1.450  0.00  0.00    +0.026 C 
ENDBRANCH  11  12
ENDBRANCH  10  11
ENDBRANCH   7  10
ENDBRANCH   6   8
ENDBRANCH   5   6
ENDBRANCH   2   5
ENDBRANCH   1   3
BRANCH   1  16
ATOM     16  C   UNL     1     -35.520  21.170   2.991  0.00  0.00    +0.026 C 
BRANCH  16  17
ATOM     17  C   UNL     1     -35.695  22.657   3.199  0.00  0.00    -0.045 C 
ATOM     18  C   UNL     1     -36.177  23.215   4.326  0.00  0.00    -0.002 C 
ATOM     19  C   UNL     1     -35.307  23.519   2.027  0.00  0.00    +0.026 C 
BRANCH  18  20
ATOM     20  C   UNL     1     -36.395  24.671   4.595  0.00  0.00    +0.179 C 
BRANCH  20  21
ATOM     21  O   UNL     1     -35.495  25.081   5.616  0.00  0.00    -0.267 OA
BRANCH  21  22
ATOM     22  P   UNL     1     -34.178  25.958   5.208  0.00  0.00    +0.514 P 
ATOM     23  O   UNL     1     -33.213  25.089   4.431  0.00  0.00    -0.116 OA
ATOM     24  O   UNL     1     -33.721  26.714   6.437  0.00  0.00    -0.224 OA
BRANCH  22  25
ATOM     25  O   UNL     1     -34.879  27.019   4.181  0.00  0.00    -0.181 OA
BRANCH  25  26
ATOM     26  P   UNL     1     -34.194  28.081   3.122  0.00  0.00    +0.540 P 
ATOM     27  O   UNL     1     -33.473  27.193   2.114  0.00  0.00    -0.114 OA
ATOM     28  O   UNL     1     -33.266  28.919   3.995  0.00  0.00    -0.114 OA
ATOM     29  O   UNL     1     -35.378  28.852   2.546  0.00  0.00    -0.222 OA
ENDBRANCH  25  26
ENDBRANCH  22  25
ENDBRANCH  21  22
ENDBRANCH  20  21
ENDBRANCH  18  20
ENDBRANCH  16  17
ENDBRANCH   1  16
TORSDOF 14
ENDMDL
MODEL 9
REMARK VINA RESULT:      -5.4      1.802      3.809
REMARK  Name = 5497105
REMARK  14 active torsions:
REMARK  status: ('A' for Active; 'I' for Inactive)
REMARK    1  A    between atoms: C_1  and  C_3
REMARK    2  A    between atoms: C_1  and  C_16
REMARK    3  A    between atoms: C_2  and  C_5
REMARK    4  A    between atoms: C_5  and  C_6
REMARK    5  A    between atoms: C_6  and  C_8
REMARK    6  A    between atoms: C_7  and  C_10
REMARK    7  A    between atoms: C_10  and  C_11
REMARK    8  A    between atoms: C_11  and  C_12
REMARK    9  A    between atoms: C_16  and  C_17
REMARK   10  A    between atoms: C_18  and  C_20
REMARK   11  A    between atoms: C_20  and  O_21
REMARK   12  A    between atoms: O_21  and  P_22
REMARK   13  A    between atoms: P_22  and  O_25
REMARK   14  A    between atoms: O_25  and  P_26
REMARK                            x       y       z     vdW  Elec       q    Type
REMARK                         _______ _______ _______ _____ _____    ______ ____
ROOT
ATOM      1  C   UNL     1     -38.798  21.839   0.636  0.00  0.00    +0.030 C 
ENDROOT
BRANCH   1   3
ATOM      2  C   UNL     1     -36.571  23.080   0.368  0.00  0.00    -0.048 C 
ATOM      3  C   UNL     1     -37.325  22.068   0.839  0.00  0.00    -0.034 C 
ATOM      4  C   UNL     1     -37.203  24.159  -0.474  0.00  0.00    +0.026 C 
BRANCH   2   5
ATOM      5  C   UNL     1     -35.077  23.216   0.573  0.00  0.00    +0.026 C 
BRANCH   5   6
ATOM      6  C   UNL     1     -34.583  24.663   0.719  0.00  0.00    +0.030 C 
BRANCH   6   8
ATOM      7  C   UNL     1     -35.198  25.963   2.834  0.00  0.00    -0.048 C 
ATOM      8  C   UNL     1     -34.432  25.087   2.155  0.00  0.00    -0.034 C 
ATOM      9  C   UNL     1     -36.360  26.639   2.154  0.00  0.00    +0.026 C 
BRANCH   7  10
ATOM     10  C   UNL     1     -34.952  26.380   4.269  0.00  0.00    +0.026 C 
BRANCH  10  11
ATOM     11  C   UNL     1     -35.873  25.707   5.297  0.00  0.00    +0.030 C 
BRANCH  11  12
ATOM     12  C   UNL     1     -35.331  24.403   5.811  0.00  0.00    -0.034 C 
ATOM     13  C   UNL     1     -35.536  23.164   5.327  0.00  0.00    -0.048 C 
ATOM     14  C   UNL     1     -34.894  21.973   5.991  0.00  0.00    +0.026 C 
ATOM     15  C   UNL     1     -36.376  22.819   4.129  0.00  0.00    +0.026 C 
ENDBRANCH  11  12
ENDBRANCH  10  11
ENDBRANCH   7  10
ENDBRANCH   6   8
ENDBRANCH   5   6
ENDBRANCH   2   5
ENDBRANCH   1   3
BRANCH   1  16
ATOM     16  C   UNL     1     -39.586  22.178   1.907  0.00  0.00    +0.026 C 
BRANCH  16  17
ATOM     17  C   UNL     1     -39.998  23.632   1.948  0.00  0.00    -0.045 C 
ATOM     18  C   UNL     1     -39.589  24.512   2.881  0.00  0.00    -0.002 C 
ATOM     19  C   UNL     1     -40.946  24.061   0.860  0.00  0.00    +0.026 C 
BRANCH  18  20
ATOM     20  C   UNL     1     -39.969  25.955   2.995  0.00  0.00    +0.179 C 
BRANCH  20  21
ATOM     21  O   UNL     1     -41.101  26.057   3.850  0.00  0.00    -0.267 OA
BRANCH  21  22
ATOM     22  P   UNL     1     -42.176  27.261   3.601  0.00  0.00    +0.514 P 
ATOM     23  O   UNL     1     -41.817  28.447   4.470  0.00  0.00    -0.116 OA
ATOM     24  O   UNL     1     -43.565  26.663   3.644  0.00  0.00    -0.224 OA
BRANCH  22  25
ATOM     25  O   UNL     1     -41.816  27.617   2.046  0.00  0.00    -0.181 OA
BRANCH  25  26
ATOM     26  P   UNL     1     -42.473  28.742   1.036  0.00  0.00    +0.540 P 
ATOM     27  O   UNL     1     -42.321  30.058   1.791  0.00  0.00    -0.114 OA
ATOM     28  O   UNL     1     -43.917  28.281   0.867  0.00  0.00    -0.114 OA
ATOM     29  O   UNL     1     -41.631  28.643  -0.232  0.00  0.00    -0.222 OA
ENDBRANCH  25  26
ENDBRANCH  22  25
ENDBRANCH  21  22
ENDBRANCH  20  21
ENDBRANCH  18  20
ENDBRANCH  16  17
ENDBRANCH   1  16
TORSDOF 14
ENDMDL
