MODEL 1
REMARK VINA RESULT:      -5.0      0.000      0.000
REMARK  Name = 21144719
REMARK  10 active torsions:
REMARK  status: ('A' for Active; 'I' for Inactive)
REMARK    1  A    between atoms: C_1  and  N_3
REMARK    2  A    between atoms: C_1  and  C_12
REMARK    3  A    between atoms: C_1  and  C_22
REMARK    4  A    between atoms: C_4  and  CA_6
REMARK    5  A    between atoms: CA_6  and  N_8
REMARK    6  A    between atoms: C_12  and  O_13
REMARK    7  A    between atoms: C_12  and  C_15
REMARK    8  A    between atoms: C_15  and  N_16
REMARK    9  A    between atoms: C_15  and  C_21
REMARK   10  A    between atoms: C_22  and  O_23
REMARK                            x       y       z     vdW  Elec       q    Type
REMARK                         _______ _______ _______ _____ _____    ______ ____
ROOT
ATOM      1  C   UNK A   2     -35.932  23.225   4.913  0.00  0.00    +0.126 C 
ENDROOT
BRANCH   1   3
ATOM      2  O   ALA A   1     -38.186  23.868   3.240  0.00  0.00    -0.277 OA
ATOM      3  N   UNK A   2     -36.477  22.419   3.840  0.00  0.00    -0.303 N 
ATOM      4  C   ALA A   1     -37.572  22.815   3.086  0.00  0.00    +0.202 C 
ATOM      5  H   UNK A   2     -36.054  21.553   3.638  0.00  0.00    +0.149 HD
BRANCH   4   6
ATOM      6  CA  ALA A   1     -37.945  21.776   2.037  0.00  0.00    +0.013 C 
ATOM      7  CB  ALA A   1     -39.458  21.624   1.960  0.00  0.00    -0.015 C 
BRANCH   6   8
ATOM      8  N   ALA A   1     -37.327  20.505   2.408  0.00  0.00    +0.387 N 
ATOM      9  H1  ALA A   1     -37.663  20.220   3.328  0.00  0.00    -0.089 HD
ATOM     10  H2  ALA A   1     -36.314  20.614   2.434  0.00  0.00    -0.089 HD
ATOM     11  H3  ALA A   1     -37.576  19.793   1.721  0.00  0.00    -0.089 HD
ENDBRANCH   6   8
ENDBRANCH   4   6
ENDBRANCH   1   3
BRANCH   1  12
ATOM     12  C   UNK A   2     -34.946  24.285   4.372  0.00  0.00    +0.118 C 
BRANCH  12  13
ATOM     13  O   UNK A   2     -33.659  24.018   4.943  0.00  0.00    -0.384 OA
ATOM     14  H   UNK A   2     -32.971  24.171   4.276  0.00  0.00    +0.210 HD
ENDBRANCH  12  13
BRANCH  12  15
ATOM     15  C   UNK A   2     -35.335  25.743   4.686  0.00  0.00    +0.030 C 
BRANCH  15  16
ATOM     16  N   ALA A   1     -36.737  25.875   5.066  0.00  0.00    +0.388 N 
ATOM     17  H1  ALA A   1     -36.800  26.308   5.988  0.00  0.00    -0.089 HD
ATOM     18  H2  ALA A   1     -37.171  24.951   5.094  0.00  0.00    -0.089 HD
ATOM     19  H3  ALA A   1     -37.221  26.457   4.383  0.00  0.00    -0.089 HD
ENDBRANCH  15  16
BRANCH  15  21
ATOM     20  O   ALA A   1     -33.525  26.945   5.743  0.00  0.00    -0.291 OA
ATOM     21  C   ALA A   1     -34.532  26.252   5.864  0.00  0.00    +0.188 C 
ENDBRANCH  15  21
ENDBRANCH  12  15
ENDBRANCH   1  12
BRANCH   1  22
ATOM     22  C   UNK A   2     -35.272  22.316   5.953  0.00  0.00    +0.159 C 
BRANCH  22  23
ATOM     23  O   UNK A   2     -35.389  20.960   5.535  0.00  0.00    -0.380 OA
ATOM     24  H   UNK A   2     -36.328  20.730   5.444  0.00  0.00    +0.211 HD
ENDBRANCH  22  23
ENDBRANCH   1  22
TORSDOF 10
ENDMDL
MODEL 2
REMARK VINA RESULT:      -4.8      2.272      4.971
REMARK  Name = 21144719
REMARK  10 active torsions:
REMARK  status: ('A' for Active; 'I' for Inactive)
REMARK    1  A    between atoms: C_1  and  N_3
REMARK    2  A    between atoms: C_1  and  C_12
REMARK    3  A    between atoms: C_1  and  C_22
REMARK    4  A    between atoms: C_4  and  CA_6
REMARK    5  A    between atoms: CA_6  and  N_8
REMARK    6  A    between atoms: C_12  and  O_13
REMARK    7  A    between atoms: C_12  and  C_15
REMARK    8  A    between atoms: C_15  and  N_16
REMARK    9  A    between atoms: C_15  and  C_21
REMARK   10  A    between atoms: C_22  and  O_23
REMARK                            x       y       z     vdW  Elec       q    Type
REMARK                         _______ _______ _______ _____ _____    ______ ____
ROOT
ATOM      1  C   UNK A   2     -37.287  21.870   2.084  0.00  0.00    +0.126 C 
ENDROOT
BRANCH   1   3
ATOM      2  O   ALA A   1     -34.874  23.367   2.555  0.00  0.00    -0.277 OA
ATOM      3  N   UNK A   2     -36.707  22.202   3.369  0.00  0.00    -0.303 N 
ATOM      4  C   ALA A   1     -35.534  22.932   3.496  0.00  0.00    +0.202 C 
ATOM      5  H   UNK A   2     -37.162  21.897   4.186  0.00  0.00    +0.149 HD
BRANCH   4   6
ATOM      6  CA  ALA A   1     -35.141  23.126   4.954  0.00  0.00    +0.013 C 
ATOM      7  CB  ALA A   1     -35.185  21.796   5.694  0.00  0.00    -0.015 C 
BRANCH   6   8
ATOM      8  N   ALA A   1     -36.073  24.074   5.560  0.00  0.00    +0.387 N 
ATOM      9  H1  ALA A   1     -35.596  24.958   5.733  0.00  0.00    -0.089 HD
ATOM     10  H2  ALA A   1     -36.419  23.694   6.441  0.00  0.00    -0.089 HD
ATOM     11  H3  ALA A   1     -36.858  24.231   4.927  0.00  0.00    -0.089 HD
ENDBRANCH   6   8
ENDBRANCH   4   6
ENDBRANCH   1   3
BRANCH   1  12
ATOM     12  C   UNK A   2     -38.830  21.909   2.139  0.00  0.00    +0.118 C 
BRANCH  12  13
ATOM     13  O   UNK A   2     -39.325  20.845   1.316  0.00  0.00    -0.384 OA
ATOM     14  H   UNK A   2     -39.267  20.007   1.802  0.00  0.00    +0.210 HD
ENDBRANCH  12  13
BRANCH  12  15
ATOM     15  C   UNK A   2     -39.455  23.235   1.663  0.00  0.00    +0.030 C 
BRANCH  15  16
ATOM     16  N   ALA A   1     -40.779  23.049   1.078  0.00  0.00    +0.388 N 
ATOM     17  H1  ALA A   1     -40.825  22.136   0.624  0.00  0.00    -0.089 HD
ATOM     18  H2  ALA A   1     -40.951  23.781   0.388  0.00  0.00    -0.089 HD
ATOM     19  H3  ALA A   1     -41.485  23.100   1.812  0.00  0.00    -0.089 HD
ENDBRANCH  15  16
BRANCH  15  21
ATOM     20  O   ALA A   1     -38.755  24.428   3.644  0.00  0.00    -0.291 OA
ATOM     21  C   ALA A   1     -39.645  24.170   2.839  0.00  0.00    +0.188 C 
ENDBRANCH  15  21
ENDBRANCH  12  15
ENDBRANCH   1  12
BRANCH   1  22
ATOM     22  C   UNK A   2     -36.770  20.502   1.627  0.00  0.00    +0.159 C 
BRANCH  22  23
ATOM     23  O   UNK A   2     -36.900  19.569   2.695  0.00  0.00    -0.380 OA
ATOM     24  H   UNK A   2     -37.588  18.921   2.475  0.00  0.00    +0.211 HD
ENDBRANCH  22  23
ENDBRANCH   1  22
TORSDOF 10
ENDMDL
MODEL 3
REMARK VINA RESULT:      -4.7      1.286      1.356
REMARK  Name = 21144719
REMARK  10 active torsions:
REMARK  status: ('A' for Active; 'I' for Inactive)
REMARK    1  A    between atoms: C_1  and  N_3
REMARK    2  A    between atoms: C_1  and  C_12
REMARK    3  A    between atoms: C_1  and  C_22
REMARK    4  A    between atoms: C_4  and  CA_6
REMARK    5  A    between atoms: CA_6  and  N_8
REMARK    6  A    between atoms: C_12  and  O_13
REMARK    7  A    between atoms: C_12  and  C_15
REMARK    8  A    between atoms: C_15  and  N_16
REMARK    9  A    between atoms: C_15  and  C_21
REMARK   10  A    between atoms: C_22  and  O_23
REMARK                            x       y       z     vdW  Elec       q    Type
REMARK                         _______ _______ _______ _____ _____    ______ ____
ROOT
ATOM      1  C   UNK A   2     -36.058  22.586   4.267  0.00  0.00    +0.126 C 
ENDROOT
BRANCH   1   3
ATOM      2  O   ALA A   1     -38.267  22.492   2.423  0.00  0.00    -0.277 OA
ATOM      3  N   UNK A   2     -36.177  21.743   3.095  0.00  0.00    -0.303 N 
ATOM      4  C   ALA A   1     -37.287  21.769   2.262  0.00  0.00    +0.202 C 
ATOM      5  H   UNK A   2     -35.442  21.125   2.880  0.00  0.00    +0.149 HD
BRANCH   4   6
ATOM      6  CA  ALA A   1     -37.160  20.775   1.116  0.00  0.00    +0.013 C 
ATOM      7  CB  ALA A   1     -38.478  20.670   0.360  0.00  0.00    -0.015 C 
BRANCH   6   8
ATOM      8  N   ALA A   1     -36.792  19.475   1.672  0.00  0.00    +0.387 N 
ATOM      9  H1  ALA A   1     -35.911  19.167   1.262  0.00  0.00    -0.089 HD
ATOM     10  H2  ALA A   1     -37.522  18.796   1.462  0.00  0.00    -0.089 HD
ATOM     11  H3  ALA A   1     -36.684  19.557   2.684  0.00  0.00    -0.089 HD
ENDBRANCH   6   8
ENDBRANCH   4   6
ENDBRANCH   1   3
BRANCH   1  12
ATOM     12  C   UNK A   2     -35.367  23.925   3.926  0.00  0.00    +0.118 C 
BRANCH  12  13
ATOM     13  O   UNK A   2     -34.217  24.052   4.771  0.00  0.00    -0.384 OA
ATOM     14  H   UNK A   2     -34.313  24.838   5.332  0.00  0.00    +0.210 HD
ENDBRANCH  12  13
BRANCH  12  15
ATOM     15  C   UNK A   2     -36.257  25.170   4.109  0.00  0.00    +0.030 C 
BRANCH  15  16
ATOM     16  N   ALA A   1     -37.660  24.827   4.312  0.00  0.00    +0.388 N 
ATOM     17  H1  ALA A   1     -37.807  24.556   5.284  0.00  0.00    -0.089 HD
ATOM     18  H2  ALA A   1     -37.912  24.050   3.700  0.00  0.00    -0.089 HD
ATOM     19  H3  ALA A   1     -38.242  25.635   4.092  0.00  0.00    -0.089 HD
ENDBRANCH  15  16
BRANCH  15  21
ATOM     20  O   ALA A   1     -34.874  26.705   5.363  0.00  0.00    -0.291 OA
ATOM     21  C   ALA A   1     -35.831  25.936   5.345  0.00  0.00    +0.188 C 
ENDBRANCH  15  21
ENDBRANCH  12  15
ENDBRANCH   1  12
BRANCH   1  22
ATOM     22  C   UNK A   2     -35.313  21.827   5.369  0.00  0.00    +0.159 C 
BRANCH  22  23
ATOM     23  O   UNK A   2     -35.873  22.165   6.634  0.00  0.00    -0.380 OA
ATOM     24  H   UNK A   2     -36.667  22.708   6.501  0.00  0.00    +0.211 HD
ENDBRANCH  22  23
ENDBRANCH   1  22
TORSDOF 10
ENDMDL
MODEL 4
REMARK VINA RESULT:      -4.6      2.253      3.001
REMARK  Name = 21144719
REMARK  10 active torsions:
REMARK  status: ('A' for Active; 'I' for Inactive)
REMARK    1  A    between atoms: C_1  and  N_3
REMARK    2  A    between atoms: C_1  and  C_12
REMARK    3  A    between atoms: C_1  and  C_22
REMARK    4  A    between atoms: C_4  and  CA_6
REMARK    5  A    between atoms: CA_6  and  N_8
REMARK    6  A    between atoms: C_12  and  O_13
REMARK    7  A    between atoms: C_12  and  C_15
REMARK    8  A    between atoms: C_15  and  N_16
REMARK    9  A    between atoms: C_15  and  C_21
REMARK   10  A    between atoms: C_22  and  O_23
REMARK                            x       y       z     vdW  Elec       q    Type
REMARK                         _______ _______ _______ _____ _____    ______ ____
ROOT
ATOM      1  C   UNK A   2     -36.576  24.361   3.352  0.00  0.00    +0.126 C 
ENDROOT
BRANCH   1   3
ATOM      2  O   ALA A   1     -34.717  22.743   1.863  0.00  0.00    -0.277 OA
ATOM      3  N   UNK A   2     -36.512  22.914   3.322  0.00  0.00    -0.303 N 
ATOM      4  C   ALA A   1     -35.576  22.221   2.570  0.00  0.00    +0.202 C 
ATOM      5  H   UNK A   2     -37.161  22.402   3.857  0.00  0.00    +0.149 HD
BRANCH   4   6
ATOM      6  CA  ALA A   1     -35.740  20.713   2.708  0.00  0.00    +0.013 C 
ATOM      7  CB  ALA A   1     -34.749  19.989   1.807  0.00  0.00    -0.015 C 
BRANCH   6   8
ATOM      8  N   ALA A   1     -37.110  20.364   2.337  0.00  0.00    +0.387 N 
ATOM      9  H1  ALA A   1     -37.231  19.353   2.396  0.00  0.00    -0.089 HD
ATOM     10  H2  ALA A   1     -37.293  20.674   1.383  0.00  0.00    -0.089 HD
ATOM     11  H3  ALA A   1     -37.762  20.822   2.974  0.00  0.00    -0.089 HD
ENDBRANCH   6   8
ENDBRANCH   4   6
ENDBRANCH   1   3
BRANCH   1  12
ATOM     12  C   UNK A   2     -36.169  24.912   4.737  0.00  0.00    +0.118 C 
BRANCH  12  13
ATOM     13  O   UNK A   2     -36.638  26.263   4.826  0.00  0.00    -0.384 OA
ATOM     14  H   UNK A   2     -35.946  26.820   5.217  0.00  0.00    +0.210 HD
ENDBRANCH  12  13
BRANCH  12  15
ATOM     15  C   UNK A   2     -34.654  24.893   5.014  0.00  0.00    +0.030 C 
BRANCH  15  16
ATOM     16  N   ALA A   1     -33.863  25.061   3.800  0.00  0.00    +0.388 N 
ATOM     17  H1  ALA A   1     -33.537  24.150   3.478  0.00  0.00    -0.089 HD
ATOM     18  H2  ALA A   1     -33.059  25.659   3.998  0.00  0.00    -0.089 HD
ATOM     19  H3  ALA A   1     -34.438  25.493   3.077  0.00  0.00    -0.089 HD
ENDBRANCH  15  16
BRANCH  15  21
ATOM     20  O   ALA A   1     -33.757  27.081   5.514  0.00  0.00    -0.291 OA
ATOM     21  C   ALA A   1     -34.278  26.047   5.922  0.00  0.00    +0.188 C 
ENDBRANCH  15  21
ENDBRANCH  12  15
ENDBRANCH   1  12
BRANCH   1  22
ATOM     22  C   UNK A   2     -37.981  24.820   2.949  0.00  0.00    +0.159 C 
BRANCH  22  23
ATOM     23  O   UNK A   2     -38.830  24.792   4.091  0.00  0.00    -0.380 OA
ATOM     24  H   UNK A   2     -39.682  25.203   3.870  0.00  0.00    +0.211 HD
ENDBRANCH  22  23
ENDBRANCH   1  22
TORSDOF 10
ENDMDL
MODEL 5
REMARK VINA RESULT:      -4.5      2.124      3.571
REMARK  Name = 21144719
REMARK  10 active torsions:
REMARK  status: ('A' for Active; 'I' for Inactive)
REMARK    1  A    between atoms: C_1  and  N_3
REMARK    2  A    between atoms: C_1  and  C_12
REMARK    3  A    between atoms: C_1  and  C_22
REMARK    4  A    between atoms: C_4  and  CA_6
REMARK    5  A    between atoms: CA_6  and  N_8
REMARK    6  A    between atoms: C_12  and  O_13
REMARK    7  A    between atoms: C_12  and  C_15
REMARK    8  A    between atoms: C_15  and  N_16
REMARK    9  A    between atoms: C_15  and  C_21
REMARK   10  A    between atoms: C_22  and  O_23
REMARK                            x       y       z     vdW  Elec       q    Type
REMARK                         _______ _______ _______ _____ _____    ______ ____
ROOT
ATOM      1  C   UNK A   2     -37.370  24.024   2.561  0.00  0.00    +0.126 C 
ENDROOT
BRANCH   1   3
ATOM      2  O   ALA A   1     -34.913  22.761   1.753  0.00  0.00    -0.277 OA
ATOM      3  N   UNK A   2     -36.999  22.638   2.760  0.00  0.00    -0.303 N 
ATOM      4  C   ALA A   1     -35.786  22.119   2.333  0.00  0.00    +0.202 C 
ATOM      5  H   UNK A   2     -37.634  22.040   3.215  0.00  0.00    +0.149 HD
BRANCH   4   6
ATOM      6  CA  ALA A   1     -35.658  20.635   2.653  0.00  0.00    +0.013 C 
ATOM      7  CB  ALA A   1     -34.556  20.006   1.813  0.00  0.00    -0.015 C 
BRANCH   6   8
ATOM      8  N   ALA A   1     -36.939  19.992   2.371  0.00  0.00    +0.387 N 
ATOM      9  H1  ALA A   1     -37.560  20.104   3.172  0.00  0.00    -0.089 HD
ATOM     10  H2  ALA A   1     -36.790  18.999   2.192  0.00  0.00    -0.089 HD
ATOM     11  H3  ALA A   1     -37.363  20.425   1.550  0.00  0.00    -0.089 HD
ENDBRANCH   6   8
ENDBRANCH   4   6
ENDBRANCH   1   3
BRANCH   1  12
ATOM     12  C   UNK A   2     -37.495  24.769   3.909  0.00  0.00    +0.118 C 
BRANCH  12  13
ATOM     13  O   UNK A   2     -38.360  25.894   3.710  0.00  0.00    -0.384 OA
ATOM     14  H   UNK A   2     -37.952  26.687   4.091  0.00  0.00    +0.210 HD
ENDBRANCH  12  13
BRANCH  12  15
ATOM     15  C   UNK A   2     -36.159  25.268   4.492  0.00  0.00    +0.030 C 
BRANCH  15  16
ATOM     16  N   ALA A   1     -36.309  26.503   5.253  0.00  0.00    +0.388 N 
ATOM     17  H1  ALA A   1     -35.421  26.741   5.695  0.00  0.00    -0.089 HD
ATOM     18  H2  ALA A   1     -37.023  26.375   5.971  0.00  0.00    -0.089 HD
ATOM     19  H3  ALA A   1     -36.590  27.257   4.625  0.00  0.00    -0.089 HD
ENDBRANCH  15  16
BRANCH  15  21
ATOM     20  O   ALA A   1     -36.123  23.153   5.659  0.00  0.00    -0.291 OA
ATOM     21  C   ALA A   1     -35.601  24.245   5.460  0.00  0.00    +0.188 C 
ENDBRANCH  15  21
ENDBRANCH  12  15
ENDBRANCH   1  12
BRANCH   1  22
ATOM     22  C   UNK A   2     -38.669  24.096   1.751  0.00  0.00    +0.159 C 
BRANCH  22  23
ATOM     23  O   UNK A   2     -39.735  23.554   2.523  0.00  0.00    -0.380 OA
ATOM     24  H   UNK A   2     -39.649  23.849   3.444  0.00  0.00    +0.211 HD
ENDBRANCH  22  23
ENDBRANCH   1  22
TORSDOF 10
ENDMDL
MODEL 6
REMARK VINA RESULT:      -4.5      1.989      3.053
REMARK  Name = 21144719
REMARK  10 active torsions:
REMARK  status: ('A' for Active; 'I' for Inactive)
REMARK    1  A    between atoms: C_1  and  N_3
REMARK    2  A    between atoms: C_1  and  C_12
REMARK    3  A    between atoms: C_1  and  C_22
REMARK    4  A    between atoms: C_4  and  CA_6
REMARK    5  A    between atoms: CA_6  and  N_8
REMARK    6  A    between atoms: C_12  and  O_13
REMARK    7  A    between atoms: C_12  and  C_15
REMARK    8  A    between atoms: C_15  and  N_16
REMARK    9  A    between atoms: C_15  and  C_21
REMARK   10  A    between atoms: C_22  and  O_23
REMARK                            x       y       z     vdW  Elec       q    Type
REMARK                         _______ _______ _______ _____ _____    ______ ____
ROOT
ATOM      1  C   UNK A   2     -36.432  25.125   3.251  0.00  0.00    +0.126 C 
ENDROOT
BRANCH   1   3
ATOM      2  O   ALA A   1     -36.514  22.291   2.748  0.00  0.00    -0.277 OA
ATOM      3  N   UNK A   2     -37.520  24.379   2.653  0.00  0.00    -0.303 N 
ATOM      4  C   ALA A   1     -37.467  23.008   2.451  0.00  0.00    +0.202 C 
ATOM      5  H   UNK A   2     -38.331  24.865   2.379  0.00  0.00    +0.149 HD
BRANCH   4   6
ATOM      6  CA  ALA A   1     -38.736  22.481   1.794  0.00  0.00    +0.013 C 
ATOM      7  CB  ALA A   1     -39.930  23.340   2.186  0.00  0.00    -0.015 C 
BRANCH   6   8
ATOM      8  N   ALA A   1     -38.941  21.101   2.231  0.00  0.00    +0.387 N 
ATOM      9  H1  ALA A   1     -39.845  21.022   2.696  0.00  0.00    -0.089 HD
ATOM     10  H2  ALA A   1     -38.200  20.836   2.880  0.00  0.00    -0.089 HD
ATOM     11  H3  ALA A   1     -38.921  20.482   1.421  0.00  0.00    -0.089 HD
ENDBRANCH   6   8
ENDBRANCH   4   6
ENDBRANCH   1   3
BRANCH   1  12
ATOM     12  C   UNK A   2     -36.571  25.185   4.788  0.00  0.00    +0.118 C 
BRANCH  12  13
ATOM     13  O   UNK A   2     -36.427  26.554   5.188  0.00  0.00    -0.384 OA
ATOM     14  H   UNK A   2     -35.503  26.724   5.429  0.00  0.00    +0.210 HD
ENDBRANCH  12  13
BRANCH  12  15
ATOM     15  C   UNK A   2     -35.545  24.333   5.559  0.00  0.00    +0.030 C 
BRANCH  15  16
ATOM     16  N   ALA A   1     -35.952  22.936   5.671  0.00  0.00    +0.388 N 
ATOM     17  H1  ALA A   1     -35.249  22.418   6.198  0.00  0.00    -0.089 HD
ATOM     18  H2  ALA A   1     -36.043  22.533   4.737  0.00  0.00    -0.089 HD
ATOM     19  H3  ALA A   1     -36.849  22.881   6.154  0.00  0.00    -0.089 HD
ENDBRANCH  15  16
BRANCH  15  21
ATOM     20  O   ALA A   1     -33.486  25.306   4.752  0.00  0.00    -0.291 OA
ATOM     21  C   ALA A   1     -34.220  24.325   4.825  0.00  0.00    +0.188 C 
ENDBRANCH  15  21
ENDBRANCH  12  15
ENDBRANCH   1  12
BRANCH   1  22
ATOM     22  C   UNK A   2     -36.370  26.524   2.632  0.00  0.00    +0.159 C 
BRANCH  22  23
ATOM     23  O   UNK A   2     -35.047  27.036   2.757  0.00  0.00    -0.380 OA
ATOM     24  H   UNK A   2     -34.773  27.432   1.915  0.00  0.00    +0.211 HD
ENDBRANCH  22  23
ENDBRANCH   1  22
TORSDOF 10
ENDMDL
MODEL 7
REMARK VINA RESULT:      -4.5      2.001      5.263
REMARK  Name = 21144719
REMARK  10 active torsions:
REMARK  status: ('A' for Active; 'I' for Inactive)
REMARK    1  A    between atoms: C_1  and  N_3
REMARK    2  A    between atoms: C_1  and  C_12
REMARK    3  A    between atoms: C_1  and  C_22
REMARK    4  A    between atoms: C_4  and  CA_6
REMARK    5  A    between atoms: CA_6  and  N_8
REMARK    6  A    between atoms: C_12  and  O_13
REMARK    7  A    between atoms: C_12  and  C_15
REMARK    8  A    between atoms: C_15  and  N_16
REMARK    9  A    between atoms: C_15  and  C_21
REMARK   10  A    between atoms: C_22  and  O_23
REMARK                            x       y       z     vdW  Elec       q    Type
REMARK                         _______ _______ _______ _____ _____    ______ ____
ROOT
ATOM      1  C   UNK A   2     -34.927  22.515   4.413  0.00  0.00    +0.126 C 
ENDROOT
BRANCH   1   3
ATOM      2  O   ALA A   1     -33.921  24.888   3.129  0.00  0.00    -0.277 OA
ATOM      3  N   UNK A   2     -35.048  23.878   4.888  0.00  0.00    -0.303 N 
ATOM      4  C   ALA A   1     -34.528  24.962   4.196  0.00  0.00    +0.202 C 
ATOM      5  H   UNK A   2     -35.517  24.043   5.737  0.00  0.00    +0.149 HD
BRANCH   4   6
ATOM      6  CA  ALA A   1     -34.782  26.276   4.923  0.00  0.00    +0.013 C 
ATOM      7  CB  ALA A   1     -33.883  26.384   6.147  0.00  0.00    -0.015 C 
BRANCH   6   8
ATOM      8  N   ALA A   1     -36.187  26.316   5.322  0.00  0.00    +0.387 N 
ATOM      9  H1  ALA A   1     -36.271  26.781   6.226  0.00  0.00    -0.089 HD
ATOM     10  H2  ALA A   1     -36.547  25.364   5.394  0.00  0.00    -0.089 HD
ATOM     11  H3  ALA A   1     -36.724  26.831   4.624  0.00  0.00    -0.089 HD
ENDBRANCH   6   8
ENDBRANCH   4   6
ENDBRANCH   1   3
BRANCH   1  12
ATOM     12  C   UNK A   2     -35.927  22.228   3.271  0.00  0.00    +0.118 C 
BRANCH  12  13
ATOM     13  O   UNK A   2     -37.234  22.591   3.732  0.00  0.00    -0.384 OA
ATOM     14  H   UNK A   2     -37.213  22.725   4.693  0.00  0.00    +0.210 HD
ENDBRANCH  12  13
BRANCH  12  15
ATOM     15  C   UNK A   2     -35.958  20.762   2.798  0.00  0.00    +0.030 C 
BRANCH  15  16
ATOM     16  N   ALA A   1     -37.237  20.395   2.202  0.00  0.00    +0.388 N 
ATOM     17  H1  ALA A   1     -37.733  21.239   1.916  0.00  0.00    -0.089 HD
ATOM     18  H2  ALA A   1     -37.798  19.886   2.887  0.00  0.00    -0.089 HD
ATOM     19  H3  ALA A   1     -37.075  19.803   1.388  0.00  0.00    -0.089 HD
ENDBRANCH  15  16
BRANCH  15  21
ATOM     20  O   ALA A   1     -34.629  19.434   1.278  0.00  0.00    -0.291 OA
ATOM     21  C   ALA A   1     -34.915  20.542   1.721  0.00  0.00    +0.188 C 
ENDBRANCH  15  21
ENDBRANCH  12  15
ENDBRANCH   1  12
BRANCH   1  22
ATOM     22  C   UNK A   2     -35.111  21.546   5.585  0.00  0.00    +0.159 C 
BRANCH  22  23
ATOM     23  O   UNK A   2     -36.180  22.001   6.407  0.00  0.00    -0.380 OA
ATOM     24  H   UNK A   2     -36.912  22.306   5.847  0.00  0.00    +0.211 HD
ENDBRANCH  22  23
ENDBRANCH   1  22
TORSDOF 10
ENDMDL
MODEL 8
REMARK VINA RESULT:      -4.5      2.135      3.770
REMARK  Name = 21144719
REMARK  10 active torsions:
REMARK  status: ('A' for Active; 'I' for Inactive)
REMARK    1  A    between atoms: C_1  and  N_3
REMARK    2  A    between atoms: C_1  and  C_12
REMARK    3  A    between atoms: C_1  and  C_22
REMARK    4  A    between atoms: C_4  and  CA_6
REMARK    5  A    between atoms: CA_6  and  N_8
REMARK    6  A    between atoms: C_12  and  O_13
REMARK    7  A    between atoms: C_12  and  C_15
REMARK    8  A    between atoms: C_15  and  N_16
REMARK    9  A    between atoms: C_15  and  C_21
REMARK   10  A    between atoms: C_22  and  O_23
REMARK                            x       y       z     vdW  Elec       q    Type
REMARK                         _______ _______ _______ _____ _____    ______ ____
ROOT
ATOM      1  C   UNK A   2     -36.931  22.527   3.172  0.00  0.00    +0.126 C 
ENDROOT
BRANCH   1   3
ATOM      2  O   ALA A   1     -38.884  24.562   3.750  0.00  0.00    -0.277 OA
ATOM      3  N   UNK A   2     -36.853  23.932   2.825  0.00  0.00    -0.303 N 
ATOM      4  C   ALA A   1     -37.849  24.840   3.148  0.00  0.00    +0.202 C 
ATOM      5  H   UNK A   2     -36.060  24.254   2.339  0.00  0.00    +0.149 HD
BRANCH   4   6
ATOM      6  CA  ALA A   1     -37.522  26.243   2.654  0.00  0.00    +0.013 C 
ATOM      7  CB  ALA A   1     -37.306  26.234   1.146  0.00  0.00    -0.015 C 
BRANCH   6   8
ATOM      8  N   ALA A   1     -36.313  26.700   3.334  0.00  0.00    +0.387 N 
ATOM      9  H1  ALA A   1     -35.514  26.151   3.015  0.00  0.00    -0.089 HD
ATOM     10  H2  ALA A   1     -36.425  26.584   4.341  0.00  0.00    -0.089 HD
ATOM     11  H3  ALA A   1     -36.155  27.685   3.121  0.00  0.00    -0.089 HD
ENDBRANCH   6   8
ENDBRANCH   4   6
ENDBRANCH   1   3
BRANCH   1  12
ATOM     12  C   UNK A   2     -35.641  22.052   3.877  0.00  0.00    +0.118 C 
BRANCH  12  13
ATOM     13  O   UNK A   2     -35.562  20.628   3.734  0.00  0.00    -0.384 OA
ATOM     14  H   UNK A   2     -35.516  20.217   4.612  0.00  0.00    +0.210 HD
ENDBRANCH  12  13
BRANCH  12  15
ATOM     15  C   UNK A   2     -35.563  22.404   5.376  0.00  0.00    +0.030 C 
BRANCH  15  16
ATOM     16  N   ALA A   1     -34.885  21.375   6.156  0.00  0.00    +0.388 N 
ATOM     17  H1  ALA A   1     -35.570  20.702   6.500  0.00  0.00    -0.089 HD
ATOM     18  H2  ALA A   1     -34.406  21.808   6.946  0.00  0.00    -0.089 HD
ATOM     19  H3  ALA A   1     -34.204  20.896   5.567  0.00  0.00    -0.089 HD
ENDBRANCH  15  16
BRANCH  15  21
ATOM     20  O   ALA A   1     -34.612  24.518   4.689  0.00  0.00    -0.291 OA
ATOM     21  C   ALA A   1     -34.758  23.674   5.569  0.00  0.00    +0.188 C 
ENDBRANCH  15  21
ENDBRANCH  12  15
ENDBRANCH   1  12
BRANCH   1  22
ATOM     22  C   UNK A   2     -37.225  21.704   1.914  0.00  0.00    +0.159 C 
BRANCH  22  23
ATOM     23  O   UNK A   2     -38.091  20.625   2.250  0.00  0.00    -0.380 OA
ATOM     24  H   UNK A   2     -37.833  20.260   3.112  0.00  0.00    +0.211 HD
ENDBRANCH  22  23
ENDBRANCH   1  22
TORSDOF 10
ENDMDL
MODEL 9
REMARK VINA RESULT:      -4.4      2.378      5.464
REMARK  Name = 21144719
REMARK  10 active torsions:
REMARK  status: ('A' for Active; 'I' for Inactive)
REMARK    1  A    between atoms: C_1  and  N_3
REMARK    2  A    between atoms: C_1  and  C_12
REMARK    3  A    between atoms: C_1  and  C_22
REMARK    4  A    between atoms: C_4  and  CA_6
REMARK    5  A    between atoms: CA_6  and  N_8
REMARK    6  A    between atoms: C_12  and  O_13
REMARK    7  A    between atoms: C_12  and  C_15
REMARK    8  A    between atoms: C_15  and  N_16
REMARK    9  A    between atoms: C_15  and  C_21
REMARK   10  A    between atoms: C_22  and  O_23
REMARK                            x       y       z     vdW  Elec       q    Type
REMARK                         _______ _______ _______ _____ _____    ______ ____
ROOT
ATOM      1  C   UNK A   2     -36.844  22.691   2.965  0.00  0.00    +0.126 C 
ENDROOT
BRANCH   1   3
ATOM      2  O   ALA A   1     -36.013  23.475   5.607  0.00  0.00    -0.277 OA
ATOM      3  N   UNK A   2     -36.342  23.989   3.369  0.00  0.00    -0.303 N 
ATOM      4  C   ALA A   1     -35.965  24.273   4.674  0.00  0.00    +0.202 C 
ATOM      5  H   UNK A   2     -36.267  24.698   2.692  0.00  0.00    +0.149 HD
BRANCH   4   6
ATOM      6  CA  ALA A   1     -35.490  25.712   4.827  0.00  0.00    +0.013 C 
ATOM      7  CB  ALA A   1     -34.286  25.774   5.757  0.00  0.00    -0.015 C 
BRANCH   6   8
ATOM      8  N   ALA A   1     -36.591  26.503   5.372  0.00  0.00    +0.387 N 
ATOM      9  H1  ALA A   1     -37.366  26.510   4.709  0.00  0.00    -0.089 HD
ATOM     10  H2  ALA A   1     -36.274  27.458   5.536  0.00  0.00    -0.089 HD
ATOM     11  H3  ALA A   1     -36.902  26.092   6.252  0.00  0.00    -0.089 HD
ENDBRANCH   6   8
ENDBRANCH   4   6
ENDBRANCH   1   3
BRANCH   1  12
ATOM     12  C   UNK A   2     -35.861  21.985   2.004  0.00  0.00    +0.118 C 
BRANCH  12  13
ATOM     13  O   UNK A   2     -36.430  22.022   0.690  0.00  0.00    -0.384 OA
ATOM     14  H   UNK A   2     -37.026  22.784   0.616  0.00  0.00    +0.210 HD
ENDBRANCH  12  13
BRANCH  12  15
ATOM     15  C   UNK A   2     -35.548  20.521   2.369  0.00  0.00    +0.030 C 
BRANCH  15  16
ATOM     16  N   ALA A   1     -36.733  19.672   2.330  0.00  0.00    +0.388 N 
ATOM     17  H1  ALA A   1     -36.514  18.762   2.737  0.00  0.00    -0.089 HD
ATOM     18  H2  ALA A   1     -37.032  19.549   1.362  0.00  0.00    -0.089 HD
ATOM     19  H3  ALA A   1     -37.483  20.111   2.864  0.00  0.00    -0.089 HD
ENDBRANCH  15  16
BRANCH  15  21
ATOM     20  O   ALA A   1     -33.630  20.558   0.899  0.00  0.00    -0.291 OA
ATOM     21  C   ALA A   1     -34.578  19.932   1.365  0.00  0.00    +0.188 C 
ENDBRANCH  15  21
ENDBRANCH  12  15
ENDBRANCH   1  12
BRANCH   1  22
ATOM     22  C   UNK A   2     -38.232  22.851   2.338  0.00  0.00    +0.159 C 
BRANCH  22  23
ATOM     23  O   UNK A   2     -38.903  21.596   2.354  0.00  0.00    -0.380 OA
ATOM     24  H   UNK A   2     -39.838  21.727   2.129  0.00  0.00    +0.211 HD
ENDBRANCH  22  23
ENDBRANCH   1  22
TORSDOF 10
ENDMDL
