MODEL 1
REMARK VINA RESULT:      -6.7      0.000      0.000
REMARK  Name = 54682465
REMARK  8 active torsions:
REMARK  status: ('A' for Active; 'I' for Inactive)
REMARK    1  A    between atoms: O_1  and  C_4
REMARK    2  A    between atoms: O_1  and  C_24
REMARK    3  A    between atoms: C_11  and  O_17
REMARK    4  A    between atoms: C_12  and  N_14
REMARK    5  A    between atoms: C_21  and  O_27
REMARK    6  A    between atoms: C_22  and  O_31
REMARK    7  A    between atoms: C_23  and  O_29
REMARK    8  A    between atoms: O_31  and  C_34
REMARK                            x       y       z     vdW  Elec       q    Type
REMARK                         _______ _______ _______ _____ _____    ______ ____
ROOT
ATOM      1  O   UNL     1     -35.949  25.728   5.250  0.00  0.00    -0.451 OA
ENDROOT
BRANCH   1   4
ATOM      2  O   UNL     1     -37.963  22.586   2.252  0.00  0.00    -0.420 OA
ATOM      3  O   UNL     1     -39.014  21.097   0.889  0.00  0.00    -0.243 OA
ATOM      4  C   UNL     1     -35.938  24.511   4.621  0.00  0.00    +0.140 C 
ATOM      5  C   UNL     1     -36.949  24.152   3.736  0.00  0.00    +0.047 C 
ATOM      6  C   UNL     1     -34.899  23.620   4.880  0.00  0.00    +0.037 C 
ATOM      7  C   UNL     1     -36.899  22.901   3.119  0.00  0.00    +0.151 A 
ATOM      8  C   UNL     1     -35.867  21.993   3.345  0.00  0.00    +0.070 A 
ATOM      9  C   UNL     1     -34.865  22.369   4.250  0.00  0.00    +0.009 C 
ATOM     10  C   UNL     1     -38.074  25.096   3.461  0.00  0.00    +0.037 C 
ATOM     11  C   UNL     1     -35.919  20.710   2.635  0.00  0.00    +0.156 A 
ATOM     12  C   UNL     1     -36.945  20.396   1.826  0.00  0.00    +0.153 A 
ATOM     13  C   UNL     1     -38.056  21.360   1.610  0.00  0.00    +0.362 A 
BRANCH  12  14
ATOM     14  N   UNL     1     -37.075  19.219   1.141  0.00  0.00    -0.350 N 
ATOM     15  H   UNL     1     -36.338  18.567   1.139  0.00  0.00    +0.143 HD
ATOM     16  H   UNL     1     -37.906  19.024   0.651  0.00  0.00    +0.143 HD
ENDBRANCH  12  14
BRANCH  11  17
ATOM     17  O   UNL     1     -34.854  19.867   2.875  0.00  0.00    -0.504 OA
ATOM     18  H   UNL     1     -34.182  20.121   3.478  0.00  0.00    +0.292 HD
ENDBRANCH  11  17
ENDBRANCH   1   4
BRANCH   1  24
ATOM     19  O   UNL     1     -35.067  26.673   3.309  0.00  0.00    -0.321 OA
ATOM     20  C   UNL     1     -34.211  27.616   2.643  0.00  0.00    +0.125 C 
ATOM     21  C   UNL     1     -32.753  27.497   3.162  0.00  0.00    +0.183 C 
ATOM     22  C   UNL     1     -32.649  27.485   4.692  0.00  0.00    +0.232 C 
ATOM     23  C   UNL     1     -33.656  26.503   5.293  0.00  0.00    +0.224 C 
ATOM     24  C   UNL     1     -35.063  26.727   4.736  0.00  0.00    +0.319 C 
ATOM     25  C   UNL     1     -34.776  29.039   2.790  0.00  0.00    +0.032 C 
ATOM     26  C   UNL     1     -34.284  27.248   1.149  0.00  0.00    +0.032 C 
BRANCH  21  27
ATOM     27  O   UNL     1     -32.150  26.291   2.680  0.00  0.00    -0.347 OA
ATOM     28  C   UNL     1     -30.839  26.528   2.191  0.00  0.00    +0.174 C 
ENDBRANCH  21  27
BRANCH  23  29
ATOM     29  O   UNL     1     -33.665  26.621   6.712  0.00  0.00    -0.376 OA
ATOM     30  H   UNL     1     -33.892  27.531   6.960  0.00  0.00    +0.211 HD
ENDBRANCH  23  29
BRANCH  22  31
ATOM     31  O   UNL     1     -32.890  28.789   5.211  0.00  0.00    -0.433 OA
BRANCH  31  34
ATOM     32  O   UNL     1     -31.135  30.274   5.298  0.00  0.00    -0.227 OA
ATOM     33  N   UNL     1     -31.634  28.905   7.076  0.00  0.00    -0.295 N 
ATOM     34  C   UNL     1     -31.826  29.401   5.811  0.00  0.00    +0.399 C 
ATOM     35  H   UNL     1     -32.230  28.202   7.425  0.00  0.00    +0.148 HD
ATOM     36  H   UNL     1     -30.901  29.251   7.635  0.00  0.00    +0.148 HD
ENDBRANCH  31  34
ENDBRANCH  22  31
ENDBRANCH   1  24
TORSDOF 8
ENDMDL
MODEL 2
REMARK VINA RESULT:      -6.7      2.093      3.449
REMARK  Name = 54682465
REMARK  8 active torsions:
REMARK  status: ('A' for Active; 'I' for Inactive)
REMARK    1  A    between atoms: O_1  and  C_4
REMARK    2  A    between atoms: O_1  and  C_24
REMARK    3  A    between atoms: C_11  and  O_17
REMARK    4  A    between atoms: C_12  and  N_14
REMARK    5  A    between atoms: C_21  and  O_27
REMARK    6  A    between atoms: C_22  and  O_31
REMARK    7  A    between atoms: C_23  and  O_29
REMARK    8  A    between atoms: O_31  and  C_34
REMARK                            x       y       z     vdW  Elec       q    Type
REMARK                         _______ _______ _______ _____ _____    ______ ____
ROOT
ATOM      1  O   UNL     1     -34.375  27.284   4.011  0.00  0.00    -0.451 OA
ENDROOT
BRANCH   1   4
ATOM      2  O   UNL     1     -36.271  23.564   1.672  0.00  0.00    -0.420 OA
ATOM      3  O   UNL     1     -37.269  21.851   0.552  0.00  0.00    -0.243 OA
ATOM      4  C   UNL     1     -34.685  25.951   3.952  0.00  0.00    +0.140 C 
ATOM      5  C   UNL     1     -35.314  25.410   2.836  0.00  0.00    +0.047 C 
ATOM      6  C   UNL     1     -34.370  25.130   5.032  0.00  0.00    +0.037 C 
ATOM      7  C   UNL     1     -35.614  24.047   2.819  0.00  0.00    +0.151 A 
ATOM      8  C   UNL     1     -35.299  23.196   3.876  0.00  0.00    +0.070 A 
ATOM      9  C   UNL     1     -34.677  23.764   4.997  0.00  0.00    +0.009 C 
ATOM     10  C   UNL     1     -35.667  26.285   1.678  0.00  0.00    +0.037 C 
ATOM     11  C   UNL     1     -35.659  21.780   3.743  0.00  0.00    +0.156 A 
ATOM     12  C   UNL     1     -36.309  21.319   2.660  0.00  0.00    +0.153 A 
ATOM     13  C   UNL     1     -36.663  22.238   1.547  0.00  0.00    +0.362 A 
BRANCH  12  14
ATOM     14  N   UNL     1     -36.691  20.020   2.466  0.00  0.00    -0.350 N 
ATOM     15  H   UNL     1     -37.053  19.497   3.216  0.00  0.00    +0.143 HD
ATOM     16  H   UNL     1     -36.604  19.609   1.576  0.00  0.00    +0.143 HD
ENDBRANCH  12  14
BRANCH  11  17
ATOM     17  O   UNL     1     -35.293  20.983   4.807  0.00  0.00    -0.504 OA
ATOM     18  H   UNL     1     -35.880  20.867   5.529  0.00  0.00    +0.292 HD
ENDBRANCH  11  17
ENDBRANCH   1   4
BRANCH   1  24
ATOM     19  O   UNL     1     -32.951  28.804   5.060  0.00  0.00    -0.321 OA
ATOM     20  C   UNL     1     -31.635  29.273   5.394  0.00  0.00    +0.125 C 
ATOM     21  C   UNL     1     -30.776  29.461   4.114  0.00  0.00    +0.183 C 
ATOM     22  C   UNL     1     -30.821  28.256   3.168  0.00  0.00    +0.232 C 
ATOM     23  C   UNL     1     -32.263  27.798   2.946  0.00  0.00    +0.224 C 
ATOM     24  C   UNL     1     -33.007  27.616   4.269  0.00  0.00    +0.319 C 
ATOM     25  C   UNL     1     -30.979  28.325   6.413  0.00  0.00    +0.032 C 
ATOM     26  C   UNL     1     -31.852  30.624   6.102  0.00  0.00    +0.032 C 
BRANCH  21  27
ATOM     27  O   UNL     1     -31.223  30.604   3.378  0.00  0.00    -0.347 OA
ATOM     28  C   UNL     1     -30.294  30.965   2.368  0.00  0.00    +0.174 C 
ENDBRANCH  21  27
BRANCH  23  29
ATOM     29  O   UNL     1     -32.280  26.584   2.201  0.00  0.00    -0.376 OA
ATOM     30  H   UNL     1     -31.390  26.199   2.189  0.00  0.00    +0.211 HD
ENDBRANCH  23  29
BRANCH  22  31
ATOM     31  O   UNL     1     -30.059  27.179   3.707  0.00  0.00    -0.433 OA
BRANCH  31  34
ATOM     32  O   UNL     1     -28.388  25.695   3.160  0.00  0.00    -0.227 OA
ATOM     33  N   UNL     1     -29.038  27.354   1.708  0.00  0.00    -0.295 N 
ATOM     34  C   UNL     1     -29.100  26.656   2.888  0.00  0.00    +0.399 C 
ATOM     35  H   UNL     1     -29.642  28.118   1.555  0.00  0.00    +0.148 HD
ATOM     36  H   UNL     1     -28.391  27.092   1.014  0.00  0.00    +0.148 HD
ENDBRANCH  31  34
ENDBRANCH  22  31
ENDBRANCH   1  24
TORSDOF 8
ENDMDL
MODEL 3
REMARK VINA RESULT:      -6.6      2.348      3.874
REMARK  Name = 54682465
REMARK  8 active torsions:
REMARK  status: ('A' for Active; 'I' for Inactive)
REMARK    1  A    between atoms: O_1  and  C_4
REMARK    2  A    between atoms: O_1  and  C_24
REMARK    3  A    between atoms: C_11  and  O_17
REMARK    4  A    between atoms: C_12  and  N_14
REMARK    5  A    between atoms: C_21  and  O_27
REMARK    6  A    between atoms: C_22  and  O_31
REMARK    7  A    between atoms: C_23  and  O_29
REMARK    8  A    between atoms: O_31  and  C_34
REMARK                            x       y       z     vdW  Elec       q    Type
REMARK                         _______ _______ _______ _____ _____    ______ ____
ROOT
ATOM      1  O   UNL     1     -33.241  27.577   3.184  0.00  0.00    -0.451 OA
ENDROOT
BRANCH   1   4
ATOM      2  O   UNL     1     -34.683  23.341   1.485  0.00  0.00    -0.420 OA
ATOM      3  O   UNL     1     -35.427  21.380   0.599  0.00  0.00    -0.243 OA
ATOM      4  C   UNL     1     -33.846  26.363   3.377  0.00  0.00    +0.140 C 
ATOM      5  C   UNL     1     -33.956  25.444   2.340  0.00  0.00    +0.047 C 
ATOM      6  C   UNL     1     -34.363  26.052   4.632  0.00  0.00    +0.037 C 
ATOM      7  C   UNL     1     -34.582  24.219   2.580  0.00  0.00    +0.151 A 
ATOM      8  C   UNL     1     -35.096  23.871   3.827  0.00  0.00    +0.070 A 
ATOM      9  C   UNL     1     -34.986  24.818   4.856  0.00  0.00    +0.009 C 
ATOM     10  C   UNL     1     -33.415  25.772   0.986  0.00  0.00    +0.037 C 
ATOM     11  C   UNL     1     -35.728  22.554   3.962  0.00  0.00    +0.156 A 
ATOM     12  C   UNL     1     -35.849  21.723   2.913  0.00  0.00    +0.153 A 
ATOM     13  C   UNL     1     -35.320  22.111   1.579  0.00  0.00    +0.362 A 
BRANCH  12  14
ATOM     14  N   UNL     1     -36.435  20.487   2.952  0.00  0.00    -0.350 N 
ATOM     15  H   UNL     1     -35.876  19.677   2.956  0.00  0.00    +0.143 HD
ATOM     16  H   UNL     1     -37.416  20.408   2.977  0.00  0.00    +0.143 HD
ENDBRANCH  12  14
BRANCH  11  17
ATOM     17  O   UNL     1     -36.189  22.255   5.227  0.00  0.00    -0.504 OA
ATOM     18  H   UNL     1     -37.074  22.456   5.463  0.00  0.00    +0.292 HD
ENDBRANCH  11  17
ENDBRANCH   1   4
BRANCH   1  24
ATOM     19  O   UNL     1     -32.597  29.217   4.710  0.00  0.00    -0.321 OA
ATOM     20  C   UNL     1     -31.681  29.742   5.684  0.00  0.00    +0.125 C 
ATOM     21  C   UNL     1     -30.244  29.824   5.099  0.00  0.00    +0.183 C 
ATOM     22  C   UNL     1     -29.795  28.533   4.405  0.00  0.00    +0.232 C 
ATOM     23  C   UNL     1     -30.878  28.028   3.451  0.00  0.00    +0.224 C 
ATOM     24  C   UNL     1     -32.244  27.959   4.136  0.00  0.00    +0.319 C 
ATOM     25  C   UNL     1     -31.747  28.909   6.975  0.00  0.00    +0.032 C 
ATOM     26  C   UNL     1     -32.206  31.150   6.021  0.00  0.00    +0.032 C 
BRANCH  21  27
ATOM     27  O   UNL     1     -30.157  30.882   4.140  0.00  0.00    -0.347 OA
ATOM     28  C   UNL     1     -28.890  31.520   4.186  0.00  0.00    +0.174 C 
ENDBRANCH  21  27
BRANCH  23  29
ATOM     29  O   UNL     1     -30.520  26.748   2.939  0.00  0.00    -0.376 OA
ATOM     30  H   UNL     1     -30.537  26.771   1.970  0.00  0.00    +0.211 HD
ENDBRANCH  23  29
BRANCH  22  31
ATOM     31  O   UNL     1     -29.510  27.528   5.374  0.00  0.00    -0.433 OA
BRANCH  31  34
ATOM     32  O   UNL     1     -27.217  27.729   5.375  0.00  0.00    -0.227 OA
ATOM     33  N   UNL     1     -28.400  27.513   7.334  0.00  0.00    -0.295 N 
ATOM     34  C   UNL     1     -28.282  27.601   5.969  0.00  0.00    +0.399 C 
ATOM     35  H   UNL     1     -29.290  27.412   7.746  0.00  0.00    +0.148 HD
ATOM     36  H   UNL     1     -27.597  27.552   7.901  0.00  0.00    +0.148 HD
ENDBRANCH  31  34
ENDBRANCH  22  31
ENDBRANCH   1  24
TORSDOF 8
ENDMDL
MODEL 4
REMARK VINA RESULT:      -6.4      3.879      8.700
REMARK  Name = 54682465
REMARK  8 active torsions:
REMARK  status: ('A' for Active; 'I' for Inactive)
REMARK    1  A    between atoms: O_1  and  C_4
REMARK    2  A    between atoms: O_1  and  C_24
REMARK    3  A    between atoms: C_11  and  O_17
REMARK    4  A    between atoms: C_12  and  N_14
REMARK    5  A    between atoms: C_21  and  O_27
REMARK    6  A    between atoms: C_22  and  O_31
REMARK    7  A    between atoms: C_23  and  O_29
REMARK    8  A    between atoms: O_31  and  C_34
REMARK                            x       y       z     vdW  Elec       q    Type
REMARK                         _______ _______ _______ _____ _____    ______ ____
ROOT
ATOM      1  O   UNL     1     -36.445  19.854   0.861  0.00  0.00    -0.451 OA
ENDROOT
BRANCH   1   4
ATOM      2  O   UNL     1     -37.691  24.254   2.275  0.00  0.00    -0.420 OA
ATOM      3  O   UNL     1     -38.247  26.386   2.850  0.00  0.00    -0.243 OA
ATOM      4  C   UNL     1     -36.363  20.879   1.767  0.00  0.00    +0.140 C 
ATOM      5  C   UNL     1     -37.077  22.057   1.583  0.00  0.00    +0.047 C 
ATOM      6  C   UNL     1     -35.544  20.736   2.885  0.00  0.00    +0.037 C 
ATOM      7  C   UNL     1     -36.962  23.077   2.529  0.00  0.00    +0.151 A 
ATOM      8  C   UNL     1     -36.164  22.960   3.665  0.00  0.00    +0.070 A 
ATOM      9  C   UNL     1     -35.442  21.769   3.825  0.00  0.00    +0.009 C 
ATOM     10  C   UNL     1     -37.948  22.226   0.381  0.00  0.00    +0.037 C 
ATOM     11  C   UNL     1     -36.126  24.096   4.593  0.00  0.00    +0.156 A 
ATOM     12  C   UNL     1     -36.800  25.231   4.341  0.00  0.00    +0.153 A 
ATOM     13  C   UNL     1     -37.630  25.358   3.115  0.00  0.00    +0.362 A 
BRANCH  12  14
ATOM     14  N   UNL     1     -36.806  26.337   5.146  0.00  0.00    -0.350 N 
ATOM     15  H   UNL     1     -36.045  26.514   5.744  0.00  0.00    +0.143 HD
ATOM     16  H   UNL     1     -37.571  26.956   5.126  0.00  0.00    +0.143 HD
ENDBRANCH  12  14
BRANCH  11  17
ATOM     17  O   UNL     1     -35.344  23.908   5.713  0.00  0.00    -0.504 OA
ATOM     18  H   UNL     1     -35.437  23.127   6.224  0.00  0.00    +0.292 HD
ENDBRANCH  11  17
ENDBRANCH   1   4
BRANCH   1  24
ATOM     19  O   UNL     1     -34.344  20.115  -0.113  0.00  0.00    -0.321 OA
ATOM     20  C   UNL     1     -33.070  19.590  -0.522  0.00  0.00    +0.125 C 
ATOM     21  C   UNL     1     -33.255  18.340  -1.425  0.00  0.00    +0.183 C 
ATOM     22  C   UNL     1     -34.233  17.311  -0.848  0.00  0.00    +0.232 C 
ATOM     23  C   UNL     1     -35.519  17.993  -0.378  0.00  0.00    +0.224 C 
ATOM     24  C   UNL     1     -35.223  19.191   0.526  0.00  0.00    +0.319 C 
ATOM     25  C   UNL     1     -32.196  19.305   0.711  0.00  0.00    +0.032 C 
ATOM     26  C   UNL     1     -32.393  20.729  -1.309  0.00  0.00    +0.032 C 
BRANCH  21  27
ATOM     27  O   UNL     1     -33.744  18.725  -2.714  0.00  0.00    -0.347 OA
ATOM     28  C   UNL     1     -33.634  17.663  -3.648  0.00  0.00    +0.174 C 
ENDBRANCH  21  27
BRANCH  23  29
ATOM     29  O   UNL     1     -36.348  17.056   0.303  0.00  0.00    -0.376 OA
ATOM     30  H   UNL     1     -37.265  17.161   0.007  0.00  0.00    +0.211 HD
ENDBRANCH  23  29
BRANCH  22  31
ATOM     31  O   UNL     1     -33.634  16.623   0.246  0.00  0.00    -0.433 OA
BRANCH  31  34
ATOM     32  O   UNL     1     -31.508  15.741   0.250  0.00  0.00    -0.227 OA
ATOM     33  N   UNL     1     -33.242  14.682  -0.826  0.00  0.00    -0.295 N 
ATOM     34  C   UNL     1     -32.689  15.691  -0.078  0.00  0.00    +0.399 C 
ATOM     35  H   UNL     1     -34.200  14.705  -1.054  0.00  0.00    +0.148 HD
ATOM     36  H   UNL     1     -32.681  13.934  -1.136  0.00  0.00    +0.148 HD
ENDBRANCH  31  34
ENDBRANCH  22  31
ENDBRANCH   1  24
TORSDOF 8
ENDMDL
MODEL 5
REMARK VINA RESULT:      -6.4      1.868      7.672
REMARK  Name = 54682465
REMARK  8 active torsions:
REMARK  status: ('A' for Active; 'I' for Inactive)
REMARK    1  A    between atoms: O_1  and  C_4
REMARK    2  A    between atoms: O_1  and  C_24
REMARK    3  A    between atoms: C_11  and  O_17
REMARK    4  A    between atoms: C_12  and  N_14
REMARK    5  A    between atoms: C_21  and  O_27
REMARK    6  A    between atoms: C_22  and  O_31
REMARK    7  A    between atoms: C_23  and  O_29
REMARK    8  A    between atoms: O_31  and  C_34
REMARK                            x       y       z     vdW  Elec       q    Type
REMARK                         _______ _______ _______ _____ _____    ______ ____
ROOT
ATOM      1  O   UNL     1     -36.901  25.385   3.583  0.00  0.00    -0.451 OA
ENDROOT
BRANCH   1   4
ATOM      2  O   UNL     1     -33.427  28.679   3.586  0.00  0.00    -0.420 OA
ATOM      3  O   UNL     1     -31.747  30.212   3.485  0.00  0.00    -0.243 OA
ATOM      4  C   UNL     1     -35.781  25.931   4.154  0.00  0.00    +0.140 C 
ATOM      5  C   UNL     1     -35.162  27.044   3.597  0.00  0.00    +0.047 C 
ATOM      6  C   UNL     1     -35.255  25.354   5.308  0.00  0.00    +0.037 C 
ATOM      7  C   UNL     1     -34.022  27.566   4.211  0.00  0.00    +0.151 A 
ATOM      8  C   UNL     1     -33.479  27.022   5.373  0.00  0.00    +0.070 A 
ATOM      9  C   UNL     1     -34.112  25.892   5.911  0.00  0.00    +0.009 C 
ATOM     10  C   UNL     1     -35.711  27.663   2.353  0.00  0.00    +0.037 C 
ATOM     11  C   UNL     1     -32.281  27.660   5.930  0.00  0.00    +0.156 A 
ATOM     12  C   UNL     1     -31.696  28.706   5.324  0.00  0.00    +0.153 A 
ATOM     13  C   UNL     1     -32.266  29.266   4.070  0.00  0.00    +0.362 A 
BRANCH  12  14
ATOM     14  N   UNL     1     -30.573  29.346   5.770  0.00  0.00    -0.350 N 
ATOM     15  H   UNL     1     -30.127  30.014   5.201  0.00  0.00    +0.143 HD
ATOM     16  H   UNL     1     -30.210  29.140   6.662  0.00  0.00    +0.143 HD
ENDBRANCH  12  14
BRANCH  11  17
ATOM     17  O   UNL     1     -31.811  27.096   7.098  0.00  0.00    -0.504 OA
ATOM     18  H   UNL     1     -30.918  27.227   7.355  0.00  0.00    +0.292 HD
ENDBRANCH  11  17
ENDBRANCH   1   4
BRANCH   1  24
ATOM     19  O   UNL     1     -37.223  24.880   1.330  0.00  0.00    -0.321 OA
ATOM     20  C   UNL     1     -37.096  23.993   0.207  0.00  0.00    +0.125 C 
ATOM     21  C   UNL     1     -37.708  22.603   0.532  0.00  0.00    +0.183 C 
ATOM     22  C   UNL     1     -37.241  22.031   1.875  0.00  0.00    +0.232 C 
ATOM     23  C   UNL     1     -37.349  23.085   2.978  0.00  0.00    +0.224 C 
ATOM     24  C   UNL     1     -36.691  24.402   2.565  0.00  0.00    +0.319 C 
ATOM     25  C   UNL     1     -35.625  23.902  -0.232  0.00  0.00    +0.032 C 
ATOM     26  C   UNL     1     -37.874  24.670  -0.938  0.00  0.00    +0.032 C 
BRANCH  21  27
ATOM     27  O   UNL     1     -39.136  22.685   0.573  0.00  0.00    -0.347 OA
ATOM     28  C   UNL     1     -39.728  21.396   0.621  0.00  0.00    +0.174 C 
ENDBRANCH  21  27
BRANCH  23  29
ATOM     29  O   UNL     1     -36.761  22.596   4.180  0.00  0.00    -0.376 OA
ATOM     30  H   UNL     1     -36.233  21.806   3.983  0.00  0.00    +0.211 HD
ENDBRANCH  23  29
BRANCH  22  31
ATOM     31  O   UNL     1     -35.891  21.585   1.776  0.00  0.00    -0.433 OA
BRANCH  31  34
ATOM     32  O   UNL     1     -34.632  19.843   2.599  0.00  0.00    -0.227 OA
ATOM     33  N   UNL     1     -36.765  19.510   1.810  0.00  0.00    -0.295 N 
ATOM     34  C   UNL     1     -35.667  20.278   2.106  0.00  0.00    +0.399 C 
ATOM     35  H   UNL     1     -37.566  19.926   1.415  0.00  0.00    +0.148 HD
ATOM     36  H   UNL     1     -36.754  18.543   1.994  0.00  0.00    +0.148 HD
ENDBRANCH  31  34
ENDBRANCH  22  31
ENDBRANCH   1  24
TORSDOF 8
ENDMDL
MODEL 6
REMARK VINA RESULT:      -6.4      6.611      9.145
REMARK  Name = 54682465
REMARK  8 active torsions:
REMARK  status: ('A' for Active; 'I' for Inactive)
REMARK    1  A    between atoms: O_1  and  C_4
REMARK    2  A    between atoms: O_1  and  C_24
REMARK    3  A    between atoms: C_11  and  O_17
REMARK    4  A    between atoms: C_12  and  N_14
REMARK    5  A    between atoms: C_21  and  O_27
REMARK    6  A    between atoms: C_22  and  O_31
REMARK    7  A    between atoms: C_23  and  O_29
REMARK    8  A    between atoms: O_31  and  C_34
REMARK                            x       y       z     vdW  Elec       q    Type
REMARK                         _______ _______ _______ _____ _____    ______ ____
ROOT
ATOM      1  O   UNL     1     -42.883  26.821   1.582  0.00  0.00    -0.451 OA
ENDROOT
BRANCH   1   4
ATOM      2  O   UNL     1     -40.753  22.620   0.729  0.00  0.00    -0.420 OA
ATOM      3  O   UNL     1     -39.836  20.572   0.347  0.00  0.00    -0.243 OA
ATOM      4  C   UNL     1     -41.876  25.927   1.834  0.00  0.00    +0.140 C 
ATOM      5  C   UNL     1     -41.802  24.719   1.149  0.00  0.00    +0.047 C 
ATOM      6  C   UNL     1     -40.916  26.234   2.796  0.00  0.00    +0.037 C 
ATOM      7  C   UNL     1     -40.759  23.836   1.438  0.00  0.00    +0.151 A 
ATOM      8  C   UNL     1     -39.776  24.120   2.384  0.00  0.00    +0.070 A 
ATOM      9  C   UNL     1     -39.877  25.337   3.072  0.00  0.00    +0.009 C 
ATOM     10  C   UNL     1     -42.832  24.374   0.124  0.00  0.00    +0.037 C 
ATOM     11  C   UNL     1     -38.727  23.117   2.599  0.00  0.00    +0.156 A 
ATOM     12  C   UNL     1     -38.730  21.945   1.942  0.00  0.00    +0.153 A 
ATOM     13  C   UNL     1     -39.797  21.639   0.953  0.00  0.00    +0.362 A 
BRANCH  12  14
ATOM     14  N   UNL     1     -37.799  20.955   2.096  0.00  0.00    -0.350 N 
ATOM     15  H   UNL     1     -37.895  20.297   2.820  0.00  0.00    +0.143 HD
ATOM     16  H   UNL     1     -37.032  20.901   1.481  0.00  0.00    +0.143 HD
ENDBRANCH  12  14
BRANCH  11  17
ATOM     17  O   UNL     1     -37.765  23.469   3.523  0.00  0.00    -0.504 OA
ATOM     18  H   UNL     1     -38.016  23.891   4.322  0.00  0.00    +0.292 HD
ENDBRANCH  11  17
ENDBRANCH   1   4
BRANCH   1  24
ATOM     19  O   UNL     1     -44.811  26.914   2.890  0.00  0.00    -0.321 OA
ATOM     20  C   UNL     1     -45.561  27.449   3.992  0.00  0.00    +0.125 C 
ATOM     21  C   UNL     1     -45.627  28.999   3.912  0.00  0.00    +0.183 C 
ATOM     22  C   UNL     1     -44.263  29.655   3.668  0.00  0.00    +0.232 C 
ATOM     23  C   UNL     1     -43.525  28.955   2.525  0.00  0.00    +0.224 C 
ATOM     24  C   UNL     1     -43.494  27.439   2.718  0.00  0.00    +0.319 C 
ATOM     25  C   UNL     1     -44.974  26.951   5.323  0.00  0.00    +0.032 C 
ATOM     26  C   UNL     1     -46.971  26.842   3.859  0.00  0.00    +0.032 C 
BRANCH  21  27
ATOM     27  O   UNL     1     -46.497  29.406   2.851  0.00  0.00    -0.347 OA
ATOM     28  C   UNL     1     -46.943  30.741   3.031  0.00  0.00    +0.174 C 
ENDBRANCH  21  27
BRANCH  23  29
ATOM     29  O   UNL     1     -42.199  29.464   2.418  0.00  0.00    -0.376 OA
ATOM     30  H   UNL     1     -41.704  28.943   1.766  0.00  0.00    +0.211 HD
ENDBRANCH  23  29
BRANCH  22  31
ATOM     31  O   UNL     1     -43.471  29.595   4.851  0.00  0.00    -0.433 OA
BRANCH  31  34
ATOM     32  O   UNL     1     -43.819  31.812   5.361  0.00  0.00    -0.227 OA
ATOM     33  N   UNL     1     -43.405  30.256   7.002  0.00  0.00    -0.295 N 
ATOM     34  C   UNL     1     -43.586  30.658   5.702  0.00  0.00    +0.399 C 
ATOM     35  H   UNL     1     -43.221  29.310   7.205  0.00  0.00    +0.148 HD
ATOM     36  H   UNL     1     -43.460  30.914   7.733  0.00  0.00    +0.148 HD
ENDBRANCH  31  34
ENDBRANCH  22  31
ENDBRANCH   1  24
TORSDOF 8
ENDMDL
MODEL 7
REMARK VINA RESULT:      -6.4      3.273      8.671
REMARK  Name = 54682465
REMARK  8 active torsions:
REMARK  status: ('A' for Active; 'I' for Inactive)
REMARK    1  A    between atoms: O_1  and  C_4
REMARK    2  A    between atoms: O_1  and  C_24
REMARK    3  A    between atoms: C_11  and  O_17
REMARK    4  A    between atoms: C_12  and  N_14
REMARK    5  A    between atoms: C_21  and  O_27
REMARK    6  A    between atoms: C_22  and  O_31
REMARK    7  A    between atoms: C_23  and  O_29
REMARK    8  A    between atoms: O_31  and  C_34
REMARK                            x       y       z     vdW  Elec       q    Type
REMARK                         _______ _______ _______ _____ _____    ______ ____
ROOT
ATOM      1  O   UNL     1     -36.330  20.473   2.280  0.00  0.00    -0.451 OA
ENDROOT
BRANCH   1   4
ATOM      2  O   UNL     1     -35.115  24.503   4.559  0.00  0.00    -0.420 OA
ATOM      3  O   UNL     1     -34.610  26.393   5.723  0.00  0.00    -0.243 OA
ATOM      4  C   UNL     1     -36.195  21.836   2.292  0.00  0.00    +0.140 C 
ATOM      5  C   UNL     1     -35.710  22.498   3.415  0.00  0.00    +0.047 C 
ATOM      6  C   UNL     1     -36.556  22.567   1.163  0.00  0.00    +0.037 C 
ATOM      7  C   UNL     1     -35.590  23.889   3.384  0.00  0.00    +0.151 A 
ATOM      8  C   UNL     1     -35.929  24.647   2.266  0.00  0.00    +0.070 A 
ATOM      9  C   UNL     1     -36.428  23.961   1.150  0.00  0.00    +0.009 C 
ATOM     10  C   UNL     1     -35.331  21.725   4.635  0.00  0.00    +0.037 C 
ATOM     11  C   UNL     1     -35.755  26.102   2.349  0.00  0.00    +0.156 A 
ATOM     12  C   UNL     1     -35.326  26.694   3.476  0.00  0.00    +0.153 A 
ATOM     13  C   UNL     1     -34.991  25.881   4.674  0.00  0.00    +0.362 A 
BRANCH  12  14
ATOM     14  N   UNL     1     -35.152  28.041   3.639  0.00  0.00    -0.350 N 
ATOM     15  H   UNL     1     -35.670  28.526   4.321  0.00  0.00    +0.143 HD
ATOM     16  H   UNL     1     -34.507  28.526   3.075  0.00  0.00    +0.143 HD
ENDBRANCH  12  14
BRANCH  11  17
ATOM     17  O   UNL     1     -36.077  26.794   1.200  0.00  0.00    -0.504 OA
ATOM     18  H   UNL     1     -35.397  27.092   0.627  0.00  0.00    +0.292 HD
ENDBRANCH  11  17
ENDBRANCH   1   4
BRANCH   1  24
ATOM     19  O   UNL     1     -34.370  20.623   1.027  0.00  0.00    -0.321 OA
ATOM     20  C   UNL     1     -33.351  20.031   0.205  0.00  0.00    +0.125 C 
ATOM     21  C   UNL     1     -33.983  19.290  -1.005  0.00  0.00    +0.183 C 
ATOM     22  C   UNL     1     -35.134  18.356  -0.614  0.00  0.00    +0.232 C 
ATOM     23  C   UNL     1     -36.114  19.070   0.320  0.00  0.00    +0.224 C 
ATOM     24  C   UNL     1     -35.390  19.739   1.490  0.00  0.00    +0.319 C 
ATOM     25  C   UNL     1     -32.452  19.117   1.054  0.00  0.00    +0.032 C 
ATOM     26  C   UNL     1     -32.482  21.208  -0.278  0.00  0.00    +0.032 C 
BRANCH  21  27
ATOM     27  O   UNL     1     -34.495  20.231  -1.954  0.00  0.00    -0.347 OA
ATOM     28  C   UNL     1     -34.867  19.595  -3.166  0.00  0.00    +0.174 C 
ENDBRANCH  21  27
BRANCH  23  29
ATOM     29  O   UNL     1     -37.084  18.147   0.805  0.00  0.00    -0.376 OA
ATOM     30  H   UNL     1     -37.802  18.632   1.242  0.00  0.00    +0.211 HD
ENDBRANCH  23  29
BRANCH  22  31
ATOM     31  O   UNL     1     -34.626  17.192   0.031  0.00  0.00    -0.433 OA
BRANCH  31  34
ATOM     32  O   UNL     1     -34.751  15.612  -1.637  0.00  0.00    -0.227 OA
ATOM     33  N   UNL     1     -35.739  15.272   0.410  0.00  0.00    -0.295 N 
ATOM     34  C   UNL     1     -35.012  15.995  -0.502  0.00  0.00    +0.399 C 
ATOM     35  H   UNL     1     -35.912  15.642   1.307  0.00  0.00    +0.148 HD
ATOM     36  H   UNL     1     -36.087  14.383   0.169  0.00  0.00    +0.148 HD
ENDBRANCH  31  34
ENDBRANCH  22  31
ENDBRANCH   1  24
TORSDOF 8
ENDMDL
MODEL 8
REMARK VINA RESULT:      -6.3      2.691      4.490
REMARK  Name = 54682465
REMARK  8 active torsions:
REMARK  status: ('A' for Active; 'I' for Inactive)
REMARK    1  A    between atoms: O_1  and  C_4
REMARK    2  A    between atoms: O_1  and  C_24
REMARK    3  A    between atoms: C_11  and  O_17
REMARK    4  A    between atoms: C_12  and  N_14
REMARK    5  A    between atoms: C_21  and  O_27
REMARK    6  A    between atoms: C_22  and  O_31
REMARK    7  A    between atoms: C_23  and  O_29
REMARK    8  A    between atoms: O_31  and  C_34
REMARK                            x       y       z     vdW  Elec       q    Type
REMARK                         _______ _______ _______ _____ _____    ______ ____
ROOT
ATOM      1  O   UNL     1     -32.611  27.639   2.628  0.00  0.00    -0.451 OA
ENDROOT
BRANCH   1   4
ATOM      2  O   UNL     1     -37.330  26.905   2.305  0.00  0.00    -0.420 OA
ATOM      3  O   UNL     1     -39.590  26.651   2.205  0.00  0.00    -0.243 OA
ATOM      4  C   UNL     1     -33.709  26.853   2.857  0.00  0.00    +0.140 C 
ATOM      5  C   UNL     1     -34.978  27.259   2.457  0.00  0.00    +0.047 C 
ATOM      6  C   UNL     1     -33.550  25.631   3.507  0.00  0.00    +0.037 C 
ATOM      7  C   UNL     1     -36.070  26.428   2.712  0.00  0.00    +0.151 A 
ATOM      8  C   UNL     1     -35.942  25.194   3.346  0.00  0.00    +0.070 A 
ATOM      9  C   UNL     1     -34.656  24.809   3.753  0.00  0.00    +0.009 C 
ATOM     10  C   UNL     1     -35.162  28.573   1.771  0.00  0.00    +0.037 C 
ATOM     11  C   UNL     1     -37.161  24.404   3.556  0.00  0.00    +0.156 A 
ATOM     12  C   UNL     1     -38.368  24.866   3.191  0.00  0.00    +0.153 A 
ATOM     13  C   UNL     1     -38.500  26.195   2.537  0.00  0.00    +0.362 A 
BRANCH  12  14
ATOM     14  N   UNL     1     -39.550  24.200   3.363  0.00  0.00    -0.350 N 
ATOM     15  H   UNL     1     -39.826  23.911   4.262  0.00  0.00    +0.143 HD
ATOM     16  H   UNL     1     -40.126  24.010   2.588  0.00  0.00    +0.143 HD
ENDBRANCH  12  14
BRANCH  11  17
ATOM     17  O   UNL     1     -36.965  23.179   4.159  0.00  0.00    -0.504 OA
ATOM     18  H   UNL     1     -37.613  22.506   4.074  0.00  0.00    +0.292 HD
ENDBRANCH  11  17
ENDBRANCH   1   4
BRANCH   1  24
ATOM     19  O   UNL     1     -32.269  29.135   4.383  0.00  0.00    -0.321 OA
ATOM     20  C   UNL     1     -31.535  29.578   5.536  0.00  0.00    +0.125 C 
ATOM     21  C   UNL     1     -30.027  29.739   5.200  0.00  0.00    +0.183 C 
ATOM     22  C   UNL     1     -29.433  28.528   4.471  0.00  0.00    +0.232 C 
ATOM     23  C   UNL     1     -30.336  28.100   3.312  0.00  0.00    +0.224 C 
ATOM     24  C   UNL     1     -31.790  27.944   3.759  0.00  0.00    +0.319 C 
ATOM     25  C   UNL     1     -31.778  28.623   6.717  0.00  0.00    +0.032 C 
ATOM     26  C   UNL     1     -32.151  30.939   5.914  0.00  0.00    +0.032 C 
BRANCH  21  27
ATOM     27  O   UNL     1     -29.822  30.886   4.369  0.00  0.00    -0.347 OA
ATOM     28  C   UNL     1     -28.562  31.488   4.619  0.00  0.00    +0.174 C 
ENDBRANCH  21  27
BRANCH  23  29
ATOM     29  O   UNL     1     -29.861  26.881   2.748  0.00  0.00    -0.376 OA
ATOM     30  H   UNL     1     -30.593  26.249   2.682  0.00  0.00    +0.211 HD
ENDBRANCH  23  29
BRANCH  22  31
ATOM     31  O   UNL     1     -29.274  27.439   5.375  0.00  0.00    -0.433 OA
BRANCH  31  34
ATOM     32  O   UNL     1     -27.017  27.759   5.695  0.00  0.00    -0.227 OA
ATOM     33  N   UNL     1     -28.376  27.028   7.399  0.00  0.00    -0.295 N 
ATOM     34  C   UNL     1     -28.124  27.438   6.114  0.00  0.00    +0.399 C 
ATOM     35  H   UNL     1     -29.292  26.785   7.668  0.00  0.00    +0.148 HD
ATOM     36  H   UNL     1     -27.642  26.976   8.053  0.00  0.00    +0.148 HD
ENDBRANCH  31  34
ENDBRANCH  22  31
ENDBRANCH   1  24
TORSDOF 8
ENDMDL
MODEL 9
REMARK VINA RESULT:      -6.3      4.174      6.347
REMARK  Name = 54682465
REMARK  8 active torsions:
REMARK  status: ('A' for Active; 'I' for Inactive)
REMARK    1  A    between atoms: O_1  and  C_4
REMARK    2  A    between atoms: O_1  and  C_24
REMARK    3  A    between atoms: C_11  and  O_17
REMARK    4  A    between atoms: C_12  and  N_14
REMARK    5  A    between atoms: C_21  and  O_27
REMARK    6  A    between atoms: C_22  and  O_31
REMARK    7  A    between atoms: C_23  and  O_29
REMARK    8  A    between atoms: O_31  and  C_34
REMARK                            x       y       z     vdW  Elec       q    Type
REMARK                         _______ _______ _______ _____ _____    ______ ____
ROOT
ATOM      1  O   UNL     1     -35.222  22.234   0.690  0.00  0.00    -0.451 OA
ENDROOT
BRANCH   1   4
ATOM      2  O   UNL     1     -31.907  18.786   0.866  0.00  0.00    -0.420 OA
ATOM      3  O   UNL     1     -30.337  17.150   1.061  0.00  0.00    -0.243 OA
ATOM      4  C   UNL     1     -33.977  21.766   0.364  0.00  0.00    +0.140 C 
ATOM      5  C   UNL     1     -33.559  20.502   0.764  0.00  0.00    +0.047 C 
ATOM      6  C   UNL     1     -33.116  22.575  -0.374  0.00  0.00    +0.037 C 
ATOM      7  C   UNL     1     -32.281  20.065   0.412  0.00  0.00    +0.151 A 
ATOM      8  C   UNL     1     -31.402  20.844  -0.338  0.00  0.00    +0.070 A 
ATOM      9  C   UNL     1     -31.838  22.120  -0.720  0.00  0.00    +0.009 C 
ATOM     10  C   UNL     1     -34.469  19.631   1.567  0.00  0.00    +0.037 C 
ATOM     11  C   UNL     1     -30.085  20.277  -0.652  0.00  0.00    +0.156 A 
ATOM     12  C   UNL     1     -29.716  19.067  -0.200  0.00  0.00    +0.153 A 
ATOM     13  C   UNL     1     -30.650  18.253   0.621  0.00  0.00    +0.362 A 
BRANCH  12  14
ATOM     14  N   UNL     1     -28.505  18.476  -0.436  0.00  0.00    -0.350 N 
ATOM     15  H   UNL     1     -28.333  18.033  -1.298  0.00  0.00    +0.143 HD
ATOM     16  H   UNL     1     -27.805  18.493   0.256  0.00  0.00    +0.143 HD
ENDBRANCH  12  14
BRANCH  11  17
ATOM     17  O   UNL     1     -29.273  21.082  -1.424  0.00  0.00    -0.504 OA
ATOM     18  H   UNL     1     -28.341  21.027  -1.338  0.00  0.00    +0.292 HD
ENDBRANCH  11  17
ENDBRANCH   1   4
BRANCH   1  24
ATOM     19  O   UNL     1     -35.347  22.879   2.927  0.00  0.00    -0.321 OA
ATOM     20  C   UNL     1     -35.419  23.890   3.945  0.00  0.00    +0.125 C 
ATOM     21  C   UNL     1     -36.602  24.859   3.675  0.00  0.00    +0.183 C 
ATOM     22  C   UNL     1     -36.648  25.376   2.232  0.00  0.00    +0.232 C 
ATOM     23  C   UNL     1     -36.487  24.223   1.240  0.00  0.00    +0.224 C 
ATOM     24  C   UNL     1     -35.278  23.351   1.582  0.00  0.00    +0.319 C 
ATOM     25  C   UNL     1     -34.071  24.621   4.060  0.00  0.00    +0.032 C 
ATOM     26  C   UNL     1     -35.638  23.125   5.264  0.00  0.00    +0.032 C 
BRANCH  21  27
ATOM     27  O   UNL     1     -37.849  24.208   3.939  0.00  0.00    -0.347 OA
ATOM     28  C   UNL     1     -38.941  24.952   3.422  0.00  0.00    +0.174 C 
ENDBRANCH  21  27
BRANCH  23  29
ATOM     29  O   UNL     1     -36.366  24.733  -0.085  0.00  0.00    -0.376 OA
ATOM     30  H   UNL     1     -35.435  24.715  -0.355  0.00  0.00    +0.211 HD
ENDBRANCH  23  29
BRANCH  22  31
ATOM     31  O   UNL     1     -35.614  26.333   2.020  0.00  0.00    -0.433 OA
BRANCH  31  34
ATOM     32  O   UNL     1     -36.774  28.269   1.568  0.00  0.00    -0.227 OA
ATOM     33  N   UNL     1     -35.255  28.158   3.290  0.00  0.00    -0.295 N 
ATOM     34  C   UNL     1     -35.956  27.639   2.229  0.00  0.00    +0.399 C 
ATOM     35  H   UNL     1     -34.612  27.594   3.779  0.00  0.00    +0.148 HD
ATOM     36  H   UNL     1     -35.396  29.094   3.563  0.00  0.00    +0.148 HD
ENDBRANCH  31  34
ENDBRANCH  22  31
ENDBRANCH   1  24
TORSDOF 8
ENDMDL
