MODEL 1
REMARK VINA RESULT:      -6.0      0.000      0.000
REMARK  Name = 5356884
REMARK  9 active torsions:
REMARK  status: ('A' for Active; 'I' for Inactive)
REMARK    1  A    between atoms: N_1  and  C_2
REMARK    2  A    between atoms: N_1  and  N_3
REMARK    3  A    between atoms: C_2  and  C_11
REMARK    4  A    between atoms: C_2  and  C_18
REMARK    5  A    between atoms: N_3  and  C_6
REMARK    6  A    between atoms: N_17  and  C_18
REMARK    7  A    between atoms: N_17  and  N_19
REMARK    8  A    between atoms: C_18  and  C_27
REMARK    9  A    between atoms: N_19  and  C_22
REMARK                            x       y       z     vdW  Elec       q    Type
REMARK                         _______ _______ _______ _____ _____    ______ ____
ROOT
ATOM      1  C   UNL     1     -36.209  22.161   2.086  0.00  0.00    +0.142 C 
ENDROOT
BRANCH   1   2
ATOM      2  C   UNL     1     -35.563  22.703   3.314  0.00  0.00    -0.003 C 
ATOM      3  C   UNL     1     -35.645  21.975   4.481  0.00  0.00    -0.003 C 
ATOM      4  C   UNL     1     -34.907  23.912   3.239  0.00  0.00    -0.003 C 
ATOM      5  C   UNL     1     -35.040  22.482   5.632  0.00  0.00    -0.000 C 
ATOM      6  C   UNL     1     -34.302  24.419   4.389  0.00  0.00    -0.000 C 
ATOM      7  C   UNL     1     -34.368  23.704   5.585  0.00  0.00    -0.000 C 
ENDBRANCH   1   2
BRANCH   1   8
ATOM      8  N   UNL     1     -37.125  22.841   1.464  0.00  0.00    -0.092 NA
BRANCH   8   9
ATOM      9  N   UNL     1     -38.230  23.157   2.247  0.00  0.00    -0.145 NA
BRANCH   9  12
ATOM     10  N   UNL     1     -40.387  22.946   1.385  0.00  0.00    -0.369 N 
ATOM     11  N   UNL     1     -39.388  21.059   2.201  0.00  0.00    -0.369 N 
ATOM     12  C   UNL     1     -39.265  22.411   1.968  0.00  0.00    +0.207 C 
ATOM     13  H   UNL     1     -40.420  23.906   1.169  0.00  0.00    +0.159 HD
ATOM     14  H   UNL     1     -41.159  22.370   1.181  0.00  0.00    +0.159 HD
ATOM     15  H   UNL     1     -38.647  20.562   2.617  0.00  0.00    +0.159 HD
ATOM     16  H   UNL     1     -40.216  20.590   1.951  0.00  0.00    +0.159 HD
ENDBRANCH   9  12
ENDBRANCH   8   9
ENDBRANCH   1   8
BRANCH   1  17
ATOM     17  C   UNL     1     -35.777  20.800   1.571  0.00  0.00    +0.142 C 
BRANCH  17  18
ATOM     18  C   UNL     1     -34.397  20.637   1.037  0.00  0.00    -0.003 C 
ATOM     19  C   UNL     1     -33.858  21.649   0.275  0.00  0.00    -0.003 C 
ATOM     20  C   UNL     1     -33.708  19.480   1.327  0.00  0.00    -0.003 C 
ATOM     21  C   UNL     1     -32.564  21.496  -0.225  0.00  0.00    -0.000 C 
ATOM     22  C   UNL     1     -32.414  19.327   0.827  0.00  0.00    -0.000 C 
ATOM     23  C   UNL     1     -31.842  20.335   0.052  0.00  0.00    -0.000 C 
ENDBRANCH  17  18
BRANCH  17  24
ATOM     24  N   UNL     1     -36.600  19.794   1.599  0.00  0.00    -0.092 NA
BRANCH  24  25
ATOM     25  N   UNL     1     -37.255  19.560   0.395  0.00  0.00    -0.145 NA
BRANCH  25  28
ATOM     26  N   UNL     1     -36.221  18.242  -1.229  0.00  0.00    -0.369 N 
ATOM     27  N   UNL     1     -37.395  17.169   0.411  0.00  0.00    -0.369 N 
ATOM     28  C   UNL     1     -36.985  18.380  -0.096  0.00  0.00    +0.207 C 
ATOM     29  H   UNL     1     -35.868  19.040  -1.686  0.00  0.00    +0.159 HD
ATOM     30  H   UNL     1     -36.027  17.346  -1.586  0.00  0.00    +0.159 HD
ATOM     31  H   UNL     1     -37.951  17.137   1.224  0.00  0.00    +0.159 HD
ATOM     32  H   UNL     1     -37.134  16.332  -0.039  0.00  0.00    +0.159 HD
ENDBRANCH  25  28
ENDBRANCH  24  25
ENDBRANCH  17  24
ENDBRANCH   1  17
TORSDOF 9
ENDMDL
MODEL 2
REMARK VINA RESULT:      -5.9      0.052      5.000
REMARK  Name = 5356884
REMARK  9 active torsions:
REMARK  status: ('A' for Active; 'I' for Inactive)
REMARK    1  A    between atoms: N_1  and  C_2
REMARK    2  A    between atoms: N_1  and  N_3
REMARK    3  A    between atoms: C_2  and  C_11
REMARK    4  A    between atoms: C_2  and  C_18
REMARK    5  A    between atoms: N_3  and  C_6
REMARK    6  A    between atoms: N_17  and  C_18
REMARK    7  A    between atoms: N_17  and  N_19
REMARK    8  A    between atoms: C_18  and  C_27
REMARK    9  A    between atoms: N_19  and  C_22
REMARK                            x       y       z     vdW  Elec       q    Type
REMARK                         _______ _______ _______ _____ _____    ______ ____
ROOT
ATOM      1  C   UNL     1     -35.801  20.839   1.581  0.00  0.00    +0.142 C 
ENDROOT
BRANCH   1   2
ATOM      2  C   UNL     1     -34.422  20.672   1.044  0.00  0.00    -0.003 C 
ATOM      3  C   UNL     1     -33.885  21.679   0.274  0.00  0.00    -0.003 C 
ATOM      4  C   UNL     1     -33.732  19.516   1.337  0.00  0.00    -0.003 C 
ATOM      5  C   UNL     1     -32.593  21.524  -0.229  0.00  0.00    -0.000 C 
ATOM      6  C   UNL     1     -32.440  19.360   0.835  0.00  0.00    -0.000 C 
ATOM      7  C   UNL     1     -31.871  20.363   0.052  0.00  0.00    -0.000 C 
ENDBRANCH   1   2
BRANCH   1   8
ATOM      8  N   UNL     1     -36.627  19.836   1.608  0.00  0.00    -0.092 NA
BRANCH   8   9
ATOM      9  N   UNL     1     -37.267  19.594   0.397  0.00  0.00    -0.145 NA
BRANCH   9  12
ATOM     10  N   UNL     1     -36.157  18.285  -1.183  0.00  0.00    -0.369 N 
ATOM     11  N   UNL     1     -37.420  17.202   0.384  0.00  0.00    -0.369 N 
ATOM     12  C   UNL     1     -36.978  18.417  -0.089  0.00  0.00    +0.207 C 
ATOM     13  H   UNL     1     -35.777  19.085  -1.613  0.00  0.00    +0.159 HD
ATOM     14  H   UNL     1     -35.948  17.391  -1.538  0.00  0.00    +0.159 HD
ATOM     15  H   UNL     1     -38.016  17.166   1.167  0.00  0.00    +0.159 HD
ATOM     16  H   UNL     1     -37.140  16.369  -0.059  0.00  0.00    +0.159 HD
ENDBRANCH   9  12
ENDBRANCH   8   9
ENDBRANCH   1   8
BRANCH   1  17
ATOM     17  C   UNL     1     -36.226  22.200   2.100  0.00  0.00    +0.142 C 
BRANCH  17  18
ATOM     18  C   UNL     1     -35.566  22.744   3.319  0.00  0.00    -0.003 C 
ATOM     19  C   UNL     1     -34.927  23.961   3.239  0.00  0.00    -0.003 C 
ATOM     20  C   UNL     1     -35.621  22.010   4.483  0.00  0.00    -0.003 C 
ATOM     21  C   UNL     1     -34.309  24.471   4.382  0.00  0.00    -0.000 C 
ATOM     22  C   UNL     1     -35.003  22.520   5.627  0.00  0.00    -0.000 C 
ATOM     23  C   UNL     1     -34.348  23.750   5.576  0.00  0.00    -0.000 C 
ENDBRANCH  17  18
BRANCH  17  24
ATOM     24  N   UNL     1     -37.148  22.880   1.486  0.00  0.00    -0.092 NA
BRANCH  24  25
ATOM     25  N   UNL     1     -38.267  23.155   2.265  0.00  0.00    -0.145 NA
BRANCH  25  28
ATOM     26  N   UNL     1     -40.367  22.912   1.278  0.00  0.00    -0.369 N 
ATOM     27  N   UNL     1     -39.429  21.059   2.231  0.00  0.00    -0.369 N 
ATOM     28  C   UNL     1     -39.286  22.399   1.953  0.00  0.00    +0.207 C 
ATOM     29  H   UNL     1     -40.383  23.863   1.022  0.00  0.00    +0.159 HD
ATOM     30  H   UNL     1     -41.127  22.329   1.050  0.00  0.00    +0.159 HD
ATOM     31  H   UNL     1     -38.717  20.578   2.713  0.00  0.00    +0.159 HD
ATOM     32  H   UNL     1     -40.242  20.581   1.949  0.00  0.00    +0.159 HD
ENDBRANCH  25  28
ENDBRANCH  24  25
ENDBRANCH  17  24
ENDBRANCH   1  17
TORSDOF 9
ENDMDL
MODEL 3
REMARK VINA RESULT:      -5.9      0.109      1.546
REMARK  Name = 5356884
REMARK  9 active torsions:
REMARK  status: ('A' for Active; 'I' for Inactive)
REMARK    1  A    between atoms: N_1  and  C_2
REMARK    2  A    between atoms: N_1  and  N_3
REMARK    3  A    between atoms: C_2  and  C_11
REMARK    4  A    between atoms: C_2  and  C_18
REMARK    5  A    between atoms: N_3  and  C_6
REMARK    6  A    between atoms: N_17  and  C_18
REMARK    7  A    between atoms: N_17  and  N_19
REMARK    8  A    between atoms: C_18  and  C_27
REMARK    9  A    between atoms: N_19  and  C_22
REMARK                            x       y       z     vdW  Elec       q    Type
REMARK                         _______ _______ _______ _____ _____    ______ ____
ROOT
ATOM      1  C   UNL     1     -36.240  22.240   2.088  0.00  0.00    +0.142 C 
ENDROOT
BRANCH   1   2
ATOM      2  C   UNL     1     -35.566  22.811   3.288  0.00  0.00    -0.003 C 
ATOM      3  C   UNL     1     -34.907  24.014   3.167  0.00  0.00    -0.003 C 
ATOM      4  C   UNL     1     -35.626  22.115   4.475  0.00  0.00    -0.003 C 
ATOM      5  C   UNL     1     -34.276  24.549   4.291  0.00  0.00    -0.000 C 
ATOM      6  C   UNL     1     -34.996  22.650   5.599  0.00  0.00    -0.000 C 
ATOM      7  C   UNL     1     -34.321  23.866   5.506  0.00  0.00    -0.000 C 
ENDBRANCH   1   2
BRANCH   1   8
ATOM      8  N   UNL     1     -37.181  22.898   1.481  0.00  0.00    -0.092 NA
BRANCH   8   9
ATOM      9  N   UNL     1     -38.292  23.165   2.274  0.00  0.00    -0.145 NA
BRANCH   9  12
ATOM     10  N   UNL     1     -40.412  22.925   1.328  0.00  0.00    -0.369 N 
ATOM     11  N   UNL     1     -39.438  21.061   2.223  0.00  0.00    -0.369 N 
ATOM     12  C   UNL     1     -39.312  22.408   1.969  0.00  0.00    +0.207 C 
ATOM     13  H   UNL     1     -40.440  23.880   1.092  0.00  0.00    +0.159 HD
ATOM     14  H   UNL     1     -41.172  22.341   1.105  0.00  0.00    +0.159 HD
ATOM     15  H   UNL     1     -38.713  20.576   2.680  0.00  0.00    +0.159 HD
ATOM     16  H   UNL     1     -40.254  20.582   1.950  0.00  0.00    +0.159 HD
ENDBRANCH   9  12
ENDBRANCH   8   9
ENDBRANCH   1   8
BRANCH   1  17
ATOM     17  C   UNL     1     -35.807  20.875   1.584  0.00  0.00    +0.142 C 
BRANCH  17  18
ATOM     18  C   UNL     1     -34.431  20.712   1.038  0.00  0.00    -0.003 C 
ATOM     19  C   UNL     1     -33.742  19.553   1.315  0.00  0.00    -0.003 C 
ATOM     20  C   UNL     1     -33.899  21.728   0.274  0.00  0.00    -0.003 C 
ATOM     21  C   UNL     1     -32.453  19.400   0.802  0.00  0.00    -0.000 C 
ATOM     22  C   UNL     1     -32.610  21.575  -0.239  0.00  0.00    -0.000 C 
ATOM     23  C   UNL     1     -31.888  20.411   0.025  0.00  0.00    -0.000 C 
ENDBRANCH  17  18
BRANCH  17  24
ATOM     24  N   UNL     1     -36.625  19.866   1.633  0.00  0.00    -0.092 NA
BRANCH  24  25
ATOM     25  N   UNL     1     -37.317  19.636   0.449  0.00  0.00    -0.145 NA
BRANCH  25  28
ATOM     26  N   UNL     1     -37.363  17.303   0.452  0.00  0.00    -0.369 N 
ATOM     27  N   UNL     1     -36.259  18.334  -1.262  0.00  0.00    -0.369 N 
ATOM     28  C   UNL     1     -36.987  18.500  -0.106  0.00  0.00    +0.207 C 
ATOM     29  H   UNL     1     -37.889  17.291   1.285  0.00  0.00    +0.159 HD
ATOM     30  H   UNL     1     -37.106  16.456   0.021  0.00  0.00    +0.159 HD
ATOM     31  H   UNL     1     -35.932  19.121  -1.756  0.00  0.00    +0.159 HD
ATOM     32  H   UNL     1     -36.064  17.428  -1.597  0.00  0.00    +0.159 HD
ENDBRANCH  25  28
ENDBRANCH  24  25
ENDBRANCH  17  24
ENDBRANCH   1  17
TORSDOF 9
ENDMDL
MODEL 4
REMARK VINA RESULT:      -5.8      1.739      3.037
REMARK  Name = 5356884
REMARK  9 active torsions:
REMARK  status: ('A' for Active; 'I' for Inactive)
REMARK    1  A    between atoms: N_1  and  C_2
REMARK    2  A    between atoms: N_1  and  N_3
REMARK    3  A    between atoms: C_2  and  C_11
REMARK    4  A    between atoms: C_2  and  C_18
REMARK    5  A    between atoms: N_3  and  C_6
REMARK    6  A    between atoms: N_17  and  C_18
REMARK    7  A    between atoms: N_17  and  N_19
REMARK    8  A    between atoms: C_18  and  C_27
REMARK    9  A    between atoms: N_19  and  C_22
REMARK                            x       y       z     vdW  Elec       q    Type
REMARK                         _______ _______ _______ _____ _____    ______ ____
ROOT
ATOM      1  C   UNL     1     -36.063  23.151   2.347  0.00  0.00    +0.142 C 
ENDROOT
BRANCH   1   2
ATOM      2  C   UNL     1     -35.730  22.946   3.784  0.00  0.00    -0.003 C 
ATOM      3  C   UNL     1     -35.605  21.659   4.257  0.00  0.00    -0.003 C 
ATOM      4  C   UNL     1     -35.560  24.051   4.589  0.00  0.00    -0.003 C 
ATOM      5  C   UNL     1     -35.293  21.466   5.603  0.00  0.00    -0.000 C 
ATOM      6  C   UNL     1     -35.248  23.858   5.934  0.00  0.00    -0.000 C 
ATOM      7  C   UNL     1     -35.114  22.566   6.441  0.00  0.00    -0.000 C 
ENDBRANCH   1   2
BRANCH   1   8
ATOM      8  N   UNL     1     -36.268  24.346   1.878  0.00  0.00    -0.092 NA
BRANCH   8   9
ATOM      9  N   UNL     1     -37.592  24.766   1.951  0.00  0.00    -0.145 NA
BRANCH   9  12
ATOM     10  N   UNL     1     -38.714  26.106   3.497  0.00  0.00    -0.369 N 
ATOM     11  N   UNL     1     -36.921  27.020   2.413  0.00  0.00    -0.369 N 
ATOM     12  C   UNL     1     -37.717  25.908   2.574  0.00  0.00    +0.207 C 
ATOM     13  H   UNL     1     -39.349  25.381   3.699  0.00  0.00    +0.159 HD
ATOM     14  H   UNL     1     -38.794  26.972   3.958  0.00  0.00    +0.159 HD
ATOM     15  H   UNL     1     -36.170  27.001   1.776  0.00  0.00    +0.159 HD
ATOM     16  H   UNL     1     -37.103  27.834   2.935  0.00  0.00    +0.159 HD
ENDBRANCH   9  12
ENDBRANCH   8   9
ENDBRANCH   1   8
BRANCH   1  17
ATOM     17  C   UNL     1     -36.156  21.941   1.436  0.00  0.00    +0.142 C 
BRANCH  17  18
ATOM     18  C   UNL     1     -34.913  21.186   1.113  0.00  0.00    -0.003 C 
ATOM     19  C   UNL     1     -34.791  19.890   1.562  0.00  0.00    -0.003 C 
ATOM     20  C   UNL     1     -33.932  21.812   0.376  0.00  0.00    -0.003 C 
ATOM     21  C   UNL     1     -33.627  19.183   1.259  0.00  0.00    -0.000 C 
ATOM     22  C   UNL     1     -32.768  21.104   0.072  0.00  0.00    -0.000 C 
ATOM     23  C   UNL     1     -32.616  19.790   0.513  0.00  0.00    -0.000 C 
ENDBRANCH  17  18
BRANCH  17  24
ATOM     24  N   UNL     1     -37.302  21.570   0.949  0.00  0.00    -0.092 NA
BRANCH  24  25
ATOM     25  N   UNL     1     -38.260  21.271   1.913  0.00  0.00    -0.145 NA
BRANCH  25  28
ATOM     26  N   UNL     1     -39.964  22.833   2.231  0.00  0.00    -0.369 N 
ATOM     27  N   UNL     1     -40.292  21.222   0.644  0.00  0.00    -0.369 N 
ATOM     28  C   UNL     1     -39.441  21.732   1.597  0.00  0.00    +0.207 C 
ATOM     29  H   UNL     1     -39.448  23.288   2.935  0.00  0.00    +0.159 HD
ATOM     30  H   UNL     1     -40.856  23.166   1.981  0.00  0.00    +0.159 HD
ATOM     31  H   UNL     1     -40.028  20.430   0.120  0.00  0.00    +0.159 HD
ATOM     32  H   UNL     1     -41.166  21.647   0.484  0.00  0.00    +0.159 HD
ENDBRANCH  25  28
ENDBRANCH  24  25
ENDBRANCH  17  24
ENDBRANCH   1  17
TORSDOF 9
ENDMDL
MODEL 5
REMARK VINA RESULT:      -5.8      1.749      5.398
REMARK  Name = 5356884
REMARK  9 active torsions:
REMARK  status: ('A' for Active; 'I' for Inactive)
REMARK    1  A    between atoms: N_1  and  C_2
REMARK    2  A    between atoms: N_1  and  N_3
REMARK    3  A    between atoms: C_2  and  C_11
REMARK    4  A    between atoms: C_2  and  C_18
REMARK    5  A    between atoms: N_3  and  C_6
REMARK    6  A    between atoms: N_17  and  C_18
REMARK    7  A    between atoms: N_17  and  N_19
REMARK    8  A    between atoms: C_18  and  C_27
REMARK    9  A    between atoms: N_19  and  C_22
REMARK                            x       y       z     vdW  Elec       q    Type
REMARK                         _______ _______ _______ _____ _____    ______ ____
ROOT
ATOM      1  C   UNL     1     -35.961  22.023   1.422  0.00  0.00    +0.142 C 
ENDROOT
BRANCH   1   2
ATOM      2  C   UNL     1     -34.744  21.229   1.091  0.00  0.00    -0.003 C 
ATOM      3  C   UNL     1     -33.769  21.809   0.310  0.00  0.00    -0.003 C 
ATOM      4  C   UNL     1     -34.638  19.946   1.578  0.00  0.00    -0.003 C 
ATOM      5  C   UNL     1     -32.629  21.066  -0.001  0.00  0.00    -0.000 C 
ATOM      6  C   UNL     1     -33.499  19.203   1.268  0.00  0.00    -0.000 C 
ATOM      7  C   UNL     1     -32.495  19.763   0.479  0.00  0.00    -0.000 C 
ENDBRANCH   1   2
BRANCH   1   8
ATOM      8  N   UNL     1     -37.116  21.706   0.919  0.00  0.00    -0.092 NA
BRANCH   8   9
ATOM      9  N   UNL     1     -38.042  21.260   1.856  0.00  0.00    -0.145 NA
BRANCH   9  12
ATOM     10  N   UNL     1     -39.524  22.997   2.337  0.00  0.00    -0.369 N 
ATOM     11  N   UNL     1     -40.251  21.350   0.930  0.00  0.00    -0.369 N 
ATOM     12  C   UNL     1     -39.212  21.820   1.702  0.00  0.00    +0.207 C 
ATOM     13  H   UNL     1     -38.860  23.433   2.919  0.00  0.00    +0.159 HD
ATOM     14  H   UNL     1     -40.410  23.407   2.210  0.00  0.00    +0.159 HD
ATOM     15  H   UNL     1     -40.148  20.511   0.424  0.00  0.00    +0.159 HD
ATOM     16  H   UNL     1     -41.096  21.852   0.882  0.00  0.00    +0.159 HD
ENDBRANCH   9  12
ENDBRANCH   8   9
ENDBRANCH   1   8
BRANCH   1  17
ATOM     17  C   UNL     1     -35.829  23.209   2.360  0.00  0.00    +0.142 C 
BRANCH  17  18
ATOM     18  C   UNL     1     -35.590  22.958   3.809  0.00  0.00    -0.003 C 
ATOM     19  C   UNL     1     -35.442  24.036   4.652  0.00  0.00    -0.003 C 
ATOM     20  C   UNL     1     -35.527  21.655   4.252  0.00  0.00    -0.003 C 
ATOM     21  C   UNL     1     -35.218  23.801   6.009  0.00  0.00    -0.000 C 
ATOM     22  C   UNL     1     -35.304  21.420   5.610  0.00  0.00    -0.000 C 
ATOM     23  C   UNL     1     -35.150  22.492   6.487  0.00  0.00    -0.000 C 
ENDBRANCH  17  18
BRANCH  17  24
ATOM     24  N   UNL     1     -35.921  24.423   1.905  0.00  0.00    -0.092 NA
BRANCH  24  25
ATOM     25  N   UNL     1     -37.224  24.901   1.816  0.00  0.00    -0.145 NA
BRANCH  25  28
ATOM     26  N   UNL     1     -38.252  26.099   3.533  0.00  0.00    -0.369 N 
ATOM     27  N   UNL     1     -36.760  27.217   2.212  0.00  0.00    -0.369 N 
ATOM     28  C   UNL     1     -37.388  26.020   2.469  0.00  0.00    +0.207 C 
ATOM     29  H   UNL     1     -38.762  25.305   3.815  0.00  0.00    +0.159 HD
ATOM     30  H   UNL     1     -38.364  26.951   4.014  0.00  0.00    +0.159 HD
ATOM     31  H   UNL     1     -36.115  27.287   1.471  0.00  0.00    +0.159 HD
ATOM     32  H   UNL     1     -36.956  28.006   2.769  0.00  0.00    +0.159 HD
ENDBRANCH  25  28
ENDBRANCH  24  25
ENDBRANCH  17  24
ENDBRANCH   1  17
TORSDOF 9
ENDMDL
MODEL 6
REMARK VINA RESULT:      -5.6      1.807      4.759
REMARK  Name = 5356884
REMARK  9 active torsions:
REMARK  status: ('A' for Active; 'I' for Inactive)
REMARK    1  A    between atoms: N_1  and  C_2
REMARK    2  A    between atoms: N_1  and  N_3
REMARK    3  A    between atoms: C_2  and  C_11
REMARK    4  A    between atoms: C_2  and  C_18
REMARK    5  A    between atoms: N_3  and  C_6
REMARK    6  A    between atoms: N_17  and  C_18
REMARK    7  A    between atoms: N_17  and  N_19
REMARK    8  A    between atoms: C_18  and  C_27
REMARK    9  A    between atoms: N_19  and  C_22
REMARK                            x       y       z     vdW  Elec       q    Type
REMARK                         _______ _______ _______ _____ _____    ______ ____
ROOT
ATOM      1  C   UNL     1     -35.386  20.139   1.500  0.00  0.00    +0.142 C 
ENDROOT
BRANCH   1   2
ATOM      2  C   UNL     1     -33.979  19.839   1.112  0.00  0.00    -0.003 C 
ATOM      3  C   UNL     1     -33.415  18.655   1.530  0.00  0.00    -0.003 C 
ATOM      4  C   UNL     1     -33.294  20.757   0.347  0.00  0.00    -0.003 C 
ATOM      5  C   UNL     1     -32.098  18.373   1.166  0.00  0.00    -0.000 C 
ATOM      6  C   UNL     1     -31.977  20.476  -0.018  0.00  0.00    -0.000 C 
ATOM      7  C   UNL     1     -31.380  19.284   0.391  0.00  0.00    -0.000 C 
ENDBRANCH   1   2
BRANCH   1   8
ATOM      8  N   UNL     1     -35.696  20.364   2.742  0.00  0.00    -0.092 NA
BRANCH   8   9
ATOM      9  N   UNL     1     -35.385  21.646   3.183  0.00  0.00    -0.145 NA
BRANCH   9  12
ATOM     10  N   UNL     1     -36.333  22.816   4.965  0.00  0.00    -0.369 N 
ATOM     11  N   UNL     1     -35.064  20.982   5.463  0.00  0.00    -0.369 N 
ATOM     12  C   UNL     1     -35.570  21.787   4.468  0.00  0.00    +0.207 C 
ATOM     13  H   UNL     1     -36.751  23.460   4.349  0.00  0.00    +0.159 HD
ATOM     14  H   UNL     1     -36.464  22.908   5.936  0.00  0.00    +0.159 HD
ATOM     15  H   UNL     1     -34.499  20.209   5.231  0.00  0.00    +0.159 HD
ATOM     16  H   UNL     1     -35.265  21.178   6.406  0.00  0.00    +0.159 HD
ENDBRANCH   9  12
ENDBRANCH   8   9
ENDBRANCH   1   8
BRANCH   1  17
ATOM     17  C   UNL     1     -36.452  20.179   0.421  0.00  0.00    +0.142 C 
BRANCH  17  18
ATOM     18  C   UNL     1     -36.567  19.030  -0.520  0.00  0.00    -0.003 C 
ATOM     19  C   UNL     1     -36.129  19.190  -1.816  0.00  0.00    -0.003 C 
ATOM     20  C   UNL     1     -37.107  17.850  -0.059  0.00  0.00    -0.003 C 
ATOM     21  C   UNL     1     -36.237  18.114  -2.697  0.00  0.00    -0.000 C 
ATOM     22  C   UNL     1     -37.214  16.773  -0.941  0.00  0.00    -0.000 C 
ATOM     23  C   UNL     1     -36.779  16.905  -2.259  0.00  0.00    -0.000 C 
ENDBRANCH  17  18
BRANCH  17  24
ATOM     24  N   UNL     1     -37.253  21.198   0.324  0.00  0.00    -0.092 NA
BRANCH  24  25
ATOM     25  N   UNL     1     -38.589  20.897   0.566  0.00  0.00    -0.145 NA
BRANCH  25  28
ATOM     26  N   UNL     1     -38.323  22.476   2.263  0.00  0.00    -0.369 N 
ATOM     27  N   UNL     1     -40.240  21.232   2.270  0.00  0.00    -0.369 N 
ATOM     28  C   UNL     1     -39.045  21.488   1.639  0.00  0.00    +0.207 C 
ATOM     29  H   UNL     1     -37.448  22.750   1.904  0.00  0.00    +0.159 HD
ATOM     30  H   UNL     1     -38.681  22.911   3.070  0.00  0.00    +0.159 HD
ATOM     31  H   UNL     1     -40.847  20.542   1.915  0.00  0.00    +0.159 HD
ATOM     32  H   UNL     1     -40.489  21.738   3.078  0.00  0.00    +0.159 HD
ENDBRANCH  25  28
ENDBRANCH  24  25
ENDBRANCH  17  24
ENDBRANCH   1  17
TORSDOF 9
ENDMDL
MODEL 7
REMARK VINA RESULT:      -5.5     10.027     13.269
REMARK  Name = 5356884
REMARK  9 active torsions:
REMARK  status: ('A' for Active; 'I' for Inactive)
REMARK    1  A    between atoms: N_1  and  C_2
REMARK    2  A    between atoms: N_1  and  N_3
REMARK    3  A    between atoms: C_2  and  C_11
REMARK    4  A    between atoms: C_2  and  C_18
REMARK    5  A    between atoms: N_3  and  C_6
REMARK    6  A    between atoms: N_17  and  C_18
REMARK    7  A    between atoms: N_17  and  N_19
REMARK    8  A    between atoms: C_18  and  C_27
REMARK    9  A    between atoms: N_19  and  C_22
REMARK                            x       y       z     vdW  Elec       q    Type
REMARK                         _______ _______ _______ _____ _____    ______ ____
ROOT
ATOM      1  C   UNL     1     -44.434  30.685   5.285  0.00  0.00    +0.142 C 
ENDROOT
BRANCH   1   2
ATOM      2  C   UNL     1     -45.126  30.883   6.589  0.00  0.00    -0.003 C 
ATOM      3  C   UNL     1     -46.374  31.465   6.593  0.00  0.00    -0.003 C 
ATOM      4  C   UNL     1     -44.494  30.477   7.743  0.00  0.00    -0.003 C 
ATOM      5  C   UNL     1     -47.024  31.651   7.814  0.00  0.00    -0.000 C 
ATOM      6  C   UNL     1     -45.143  30.662   8.963  0.00  0.00    -0.000 C 
ATOM      7  C   UNL     1     -46.407  31.249   8.999  0.00  0.00    -0.000 C 
ENDBRANCH   1   2
BRANCH   1   8
ATOM      8  N   UNL     1     -44.223  31.689   4.487  0.00  0.00    -0.092 NA
BRANCH   8   9
ATOM      9  N   UNL     1     -43.701  32.814   5.114  0.00  0.00    -0.145 NA
BRANCH   9  12
ATOM     10  N   UNL     1     -42.713  34.822   4.451  0.00  0.00    -0.369 N 
ATOM     11  N   UNL     1     -44.574  34.136   3.316  0.00  0.00    -0.369 N 
ATOM     12  C   UNL     1     -43.683  33.857   4.327  0.00  0.00    +0.207 C 
ATOM     13  H   UNL     1     -42.016  34.734   5.141  0.00  0.00    +0.159 HD
ATOM     14  H   UNL     1     -42.713  35.601   3.850  0.00  0.00    +0.159 HD
ATOM     15  H   UNL     1     -45.317  33.517   3.129  0.00  0.00    +0.159 HD
ATOM     16  H   UNL     1     -44.470  34.955   2.779  0.00  0.00    +0.159 HD
ENDBRANCH   9  12
ENDBRANCH   8   9
ENDBRANCH   1   8
BRANCH   1  17
ATOM     17  C   UNL     1     -43.975  29.289   4.903  0.00  0.00    +0.142 C 
BRANCH  17  18
ATOM     18  C   UNL     1     -45.000  28.237   4.656  0.00  0.00    -0.003 C 
ATOM     19  C   UNL     1     -45.872  28.397   3.602  0.00  0.00    -0.003 C 
ATOM     20  C   UNL     1     -45.037  27.142   5.491  0.00  0.00    -0.003 C 
ATOM     21  C   UNL     1     -46.832  27.411   3.371  0.00  0.00    -0.000 C 
ATOM     22  C   UNL     1     -45.996  26.155   5.259  0.00  0.00    -0.000 C 
ATOM     23  C   UNL     1     -46.893  26.290   4.199  0.00  0.00    -0.000 C 
ENDBRANCH  17  18
BRANCH  17  24
ATOM     24  N   UNL     1     -42.708  29.020   4.791  0.00  0.00    -0.092 NA
BRANCH  24  25
ATOM     25  N   UNL     1     -42.297  28.749   3.490  0.00  0.00    -0.145 NA
BRANCH  25  28
ATOM     26  N   UNL     1     -42.605  26.813   2.226  0.00  0.00    -0.369 N 
ATOM     27  N   UNL     1     -41.290  26.658   4.088  0.00  0.00    -0.369 N 
ATOM     28  C   UNL     1     -42.064  27.478   3.299  0.00  0.00    +0.207 C 
ATOM     29  H   UNL     1     -43.179  27.293   1.586  0.00  0.00    +0.159 HD
ATOM     30  H   UNL     1     -42.419  25.855   2.096  0.00  0.00    +0.159 HD
ATOM     31  H   UNL     1     -40.848  27.021   4.890  0.00  0.00    +0.159 HD
ATOM     32  H   UNL     1     -41.179  25.708   3.853  0.00  0.00    +0.159 HD
ENDBRANCH  25  28
ENDBRANCH  24  25
ENDBRANCH  17  24
ENDBRANCH   1  17
TORSDOF 9
ENDMDL
MODEL 8
REMARK VINA RESULT:      -5.5      3.386      6.081
REMARK  Name = 5356884
REMARK  9 active torsions:
REMARK  status: ('A' for Active; 'I' for Inactive)
REMARK    1  A    between atoms: N_1  and  C_2
REMARK    2  A    between atoms: N_1  and  N_3
REMARK    3  A    between atoms: C_2  and  C_11
REMARK    4  A    between atoms: C_2  and  C_18
REMARK    5  A    between atoms: N_3  and  C_6
REMARK    6  A    between atoms: N_17  and  C_18
REMARK    7  A    between atoms: N_17  and  N_19
REMARK    8  A    between atoms: C_18  and  C_27
REMARK    9  A    between atoms: N_19  and  C_22
REMARK                            x       y       z     vdW  Elec       q    Type
REMARK                         _______ _______ _______ _____ _____    ______ ____
ROOT
ATOM      1  C   UNL     1     -36.581  23.163   3.473  0.00  0.00    +0.142 C 
ENDROOT
BRANCH   1   2
ATOM      2  C   UNL     1     -35.731  22.304   2.602  0.00  0.00    -0.003 C 
ATOM      3  C   UNL     1     -35.677  20.952   2.856  0.00  0.00    -0.003 C 
ATOM      4  C   UNL     1     -35.031  22.893   1.573  0.00  0.00    -0.003 C 
ATOM      5  C   UNL     1     -34.881  20.147   2.040  0.00  0.00    -0.000 C 
ATOM      6  C   UNL     1     -34.235  22.089   0.756  0.00  0.00    -0.000 C 
ATOM      7  C   UNL     1     -34.161  20.716   0.990  0.00  0.00    -0.000 C 
ENDBRANCH   1   2
BRANCH   1   8
ATOM      8  N   UNL     1     -36.147  23.570   4.628  0.00  0.00    -0.092 NA
BRANCH   8   9
ATOM      9  N   UNL     1     -35.121  24.506   4.553  0.00  0.00    -0.145 NA
BRANCH   9  12
ATOM     10  N   UNL     1     -34.428  26.277   5.905  0.00  0.00    -0.369 N 
ATOM     11  N   UNL     1     -36.631  26.211   5.301  0.00  0.00    -0.369 N 
ATOM     12  C   UNL     1     -35.400  25.601   5.209  0.00  0.00    +0.207 C 
ATOM     13  H   UNL     1     -33.503  25.938   5.914  0.00  0.00    +0.159 HD
ATOM     14  H   UNL     1     -34.654  27.101   6.393  0.00  0.00    +0.159 HD
ATOM     15  H   UNL     1     -37.410  25.818   4.843  0.00  0.00    +0.159 HD
ATOM     16  H   UNL     1     -36.733  27.038   5.824  0.00  0.00    +0.159 HD
ENDBRANCH   9  12
ENDBRANCH   8   9
ENDBRANCH   1   8
BRANCH   1  17
ATOM     17  C   UNL     1     -37.964  23.557   2.988  0.00  0.00    +0.142 C 
BRANCH  17  18
ATOM     18  C   UNL     1     -38.506  22.917   1.758  0.00  0.00    -0.003 C 
ATOM     19  C   UNL     1     -39.217  21.744   1.881  0.00  0.00    -0.003 C 
ATOM     20  C   UNL     1     -38.276  23.521   0.542  0.00  0.00    -0.003 C 
ATOM     21  C   UNL     1     -39.725  21.143   0.728  0.00  0.00    -0.000 C 
ATOM     22  C   UNL     1     -38.785  22.921  -0.611  0.00  0.00    -0.000 C 
ATOM     23  C   UNL     1     -39.509  21.733  -0.518  0.00  0.00    -0.000 C 
ENDBRANCH  17  18
BRANCH  17  24
ATOM     24  N   UNL     1     -38.664  24.438   3.640  0.00  0.00    -0.092 NA
BRANCH  24  25
ATOM     25  N   UNL     1     -38.691  25.696   3.047  0.00  0.00    -0.145 NA
BRANCH  25  28
ATOM     26  N   UNL     1     -40.813  26.315   3.796  0.00  0.00    -0.369 N 
ATOM     27  N   UNL     1     -40.440  26.343   1.542  0.00  0.00    -0.369 N 
ATOM     28  C   UNL     1     -39.908  26.095   2.786  0.00  0.00    +0.207 C 
ATOM     29  H   UNL     1     -40.549  26.171   4.734  0.00  0.00    +0.159 HD
ATOM     30  H   UNL     1     -41.725  26.616   3.582  0.00  0.00    +0.159 HD
ATOM     31  H   UNL     1     -39.887  26.220   0.736  0.00  0.00    +0.159 HD
ATOM     32  H   UNL     1     -41.374  26.642   1.456  0.00  0.00    +0.159 HD
ENDBRANCH  25  28
ENDBRANCH  24  25
ENDBRANCH  17  24
ENDBRANCH   1  17
TORSDOF 9
ENDMDL
MODEL 9
REMARK VINA RESULT:      -5.5      3.892      6.299
REMARK  Name = 5356884
REMARK  9 active torsions:
REMARK  status: ('A' for Active; 'I' for Inactive)
REMARK    1  A    between atoms: N_1  and  C_2
REMARK    2  A    between atoms: N_1  and  N_3
REMARK    3  A    between atoms: C_2  and  C_11
REMARK    4  A    between atoms: C_2  and  C_18
REMARK    5  A    between atoms: N_3  and  C_6
REMARK    6  A    between atoms: N_17  and  C_18
REMARK    7  A    between atoms: N_17  and  N_19
REMARK    8  A    between atoms: C_18  and  C_27
REMARK    9  A    between atoms: N_19  and  C_22
REMARK                            x       y       z     vdW  Elec       q    Type
REMARK                         _______ _______ _______ _____ _____    ______ ____
ROOT
ATOM      1  C   UNL     1     -36.034  25.232   4.165  0.00  0.00    +0.142 C 
ENDROOT
BRANCH   1   2
ATOM      2  C   UNL     1     -35.710  23.836   4.571  0.00  0.00    -0.003 C 
ATOM      3  C   UNL     1     -35.452  23.575   5.898  0.00  0.00    -0.003 C 
ATOM      4  C   UNL     1     -35.681  22.856   3.604  0.00  0.00    -0.003 C 
ATOM      5  C   UNL     1     -35.149  22.268   6.279  0.00  0.00    -0.000 C 
ATOM      6  C   UNL     1     -35.378  21.548   3.984  0.00  0.00    -0.000 C 
ATOM      7  C   UNL     1     -35.112  21.254   5.321  0.00  0.00    -0.000 C 
ENDBRANCH   1   2
BRANCH   1   8
ATOM      8  N   UNL     1     -37.264  25.651   4.158  0.00  0.00    -0.092 NA
BRANCH   8   9
ATOM      9  N   UNL     1     -37.941  25.407   2.967  0.00  0.00    -0.145 NA
BRANCH   9  12
ATOM     10  N   UNL     1     -40.137  25.380   3.756  0.00  0.00    -0.369 N 
ATOM     11  N   UNL     1     -39.331  23.461   2.811  0.00  0.00    -0.369 N 
ATOM     12  C   UNL     1     -39.063  24.767   3.157  0.00  0.00    +0.207 C 
ATOM     13  H   UNL     1     -40.067  26.317   4.050  0.00  0.00    +0.159 HD
ATOM     14  H   UNL     1     -40.976  24.883   3.892  0.00  0.00    +0.159 HD
ATOM     15  H   UNL     1     -38.637  22.916   2.373  0.00  0.00    +0.159 HD
ATOM     16  H   UNL     1     -40.215  23.073   3.000  0.00  0.00    +0.159 HD
ENDBRANCH   9  12
ENDBRANCH   8   9
ENDBRANCH   1   8
BRANCH   1  17
ATOM     17  C   UNL     1     -34.903  26.160   3.763  0.00  0.00    +0.142 C 
BRANCH  17  18
ATOM     18  C   UNL     1     -34.391  26.108   2.365  0.00  0.00    -0.003 C 
ATOM     19  C   UNL     1     -34.978  26.914   1.415  0.00  0.00    -0.003 C 
ATOM     20  C   UNL     1     -33.349  25.255   2.074  0.00  0.00    -0.003 C 
ATOM     21  C   UNL     1     -34.498  26.865   0.106  0.00  0.00    -0.000 C 
ATOM     22  C   UNL     1     -32.869  25.207   0.765  0.00  0.00    -0.000 C 
ATOM     23  C   UNL     1     -33.443  26.012  -0.219  0.00  0.00    -0.000 C 
ENDBRANCH  17  18
BRANCH  17  24
ATOM     24  N   UNL     1     -34.392  26.989   4.625  0.00  0.00    -0.092 NA
BRANCH  24  25
ATOM     25  N   UNL     1     -33.341  26.462   5.367  0.00  0.00    -0.145 NA
BRANCH  25  28
ATOM     26  N   UNL     1     -32.375  28.575   5.586  0.00  0.00    -0.369 N 
ATOM     27  N   UNL     1     -32.454  27.252   7.448  0.00  0.00    -0.369 N 
ATOM     28  C   UNL     1     -32.757  27.364   6.111  0.00  0.00    +0.207 C 
ATOM     29  H   UNL     1     -32.540  28.774   4.636  0.00  0.00    +0.159 HD
ATOM     30  H   UNL     1     -31.937  29.243   6.160  0.00  0.00    +0.159 HD
ATOM     31  H   UNL     1     -32.679  26.427   7.937  0.00  0.00    +0.159 HD
ATOM     32  H   UNL     1     -32.010  27.996   7.917  0.00  0.00    +0.159 HD
ENDBRANCH  25  28
ENDBRANCH  24  25
ENDBRANCH  17  24
ENDBRANCH   1  17
TORSDOF 9
ENDMDL
