MODEL 1
REMARK VINA RESULT:      -6.8      0.000      0.000
REMARK  Name = 194744
REMARK  9 active torsions:
REMARK  status: ('A' for Active; 'I' for Inactive)
REMARK    1  A    between atoms: C_4  and  C_9
REMARK    2  A    between atoms: C_5  and  C_26
REMARK    3  A    between atoms: C_13  and  C_14
REMARK    4  A    between atoms: C_14  and  N_15
REMARK    5  A    between atoms: C_14  and  C_19
REMARK    6  A    between atoms: C_19  and  C_20
REMARK    7  A    between atoms: C_26  and  N_27
REMARK    8  A    between atoms: C_26  and  C_38
REMARK    9  A    between atoms: N_27  and  C_32
REMARK                            x       y       z     vdW  Elec       q    Type
REMARK                         _______ _______ _______ _____ _____    ______ ____
ROOT
ATOM      1  O   UNL     1     -40.049  27.204   0.787  0.00  0.00    -0.273 OA
ATOM      2  O   UNL     1     -37.353  27.963   0.973  0.00  0.00    -0.277 OA
ATOM      3  N   UNL     1     -38.416  26.281   2.181  0.00  0.00    -0.256 N 
ATOM      4  C   UNL     1     -39.697  26.401   1.647  0.00  0.00    +0.246 C 
ATOM      5  C   UNL     1     -37.322  27.067   1.814  0.00  0.00    +0.208 C 
ATOM      6  H   UNL     1     -38.271  25.591   2.869  0.00  0.00    +0.157 HD
ENDROOT
BRANCH   4   9
ATOM      7  O   UNL     1     -41.634  27.437   4.009  0.00  0.00    -0.277 OA
ATOM      8  N   UNL     1     -41.972  26.008   2.220  0.00  0.00    -0.275 N 
ATOM      9  C   UNL     1     -40.647  25.403   2.237  0.00  0.00    +0.152 C 
ATOM     10  C   UNL     1     -40.777  24.160   1.364  0.00  0.00    +0.031 C 
ATOM     11  C   UNL     1     -41.875  24.537   0.373  0.00  0.00    +0.024 C 
ATOM     12  C   UNL     1     -42.821  25.389   1.205  0.00  0.00    +0.094 C 
ATOM     13  C   UNL     1     -42.380  26.935   3.166  0.00  0.00    +0.206 C 
BRANCH  13  14
ATOM     14  C   UNL     1     -43.835  27.326   3.107  0.00  0.00    +0.018 C 
BRANCH  14  15
ATOM     15  N   UNL     1     -43.842  28.723   2.693  0.00  0.00    +0.388 N 
ATOM     16  H   UNL     1     -43.234  29.264   3.309  0.00  0.00    -0.089 HD
ATOM     17  H   UNL     1     -44.793  29.090   2.748  0.00  0.00    -0.089 HD
ATOM     18  H   UNL     1     -43.505  28.795   1.733  0.00  0.00    -0.089 HD
ENDBRANCH  14  15
BRANCH  14  19
ATOM     19  C   UNL     1     -44.510  27.149   4.468  0.00  0.00    +0.013 C 
BRANCH  19  20
ATOM     20  C   UNL     1     -45.606  26.109   4.444  0.00  0.00    -0.024 C 
ATOM     21  C   UNL     1     -46.456  25.964   5.541  0.00  0.00    -0.004 C 
ATOM     22  C   UNL     1     -45.768  25.292   3.324  0.00  0.00    -0.004 C 
ATOM     23  C   UNL     1     -47.466  25.004   5.518  0.00  0.00    -0.000 C 
ATOM     24  C   UNL     1     -46.780  24.333   3.301  0.00  0.00    -0.000 C 
ATOM     25  C   UNL     1     -47.629  24.188   4.398  0.00  0.00    -0.000 C 
ENDBRANCH  19  20
ENDBRANCH  14  19
ENDBRANCH  13  14
ENDBRANCH   4   9
BRANCH   5  26
ATOM     26  C   UNL     1     -36.057  26.699   2.587  0.00  0.00    +0.018 C 
BRANCH  26  27
ATOM     27  N   UNL     1     -36.488  26.064   3.834  0.00  0.00    +0.398 N 
ATOM     28  H   UNL     1     -37.484  25.852   3.776  0.00  0.00    -0.083 HD
ATOM     29  H   UNL     1     -36.308  26.704   4.608  0.00  0.00    -0.083 HD
BRANCH  27  32
ATOM     30  O   UNL     1     -37.736  23.662   3.345  0.00  0.00    -0.277 OA
ATOM     31  N   UNL     1     -36.432  22.602   4.891  0.00  0.00    -0.306 N 
ATOM     32  C   UNL     1     -35.747  24.826   4.066  0.00  0.00    +0.018 C 
ATOM     33  C   UNL     1     -34.904  24.939   5.335  0.00  0.00    -0.011 C 
ATOM     34  C   UNL     1     -34.291  23.585   5.657  0.00  0.00    +0.020 C 
ATOM     35  C   UNL     1     -36.745  23.675   4.079  0.00  0.00    +0.202 C 
ATOM     36  C   UNL     1     -35.406  22.588   5.916  0.00  0.00    +0.089 C 
ATOM     37  H   UNL     1     -36.951  21.775   4.763  0.00  0.00    +0.149 HD
ENDBRANCH  27  32
ENDBRANCH  26  27
BRANCH  26  38
ATOM     38  C   UNL     1     -35.102  25.779   1.789  0.00  0.00    -0.011 C 
ATOM     39  C   UNL     1     -35.757  25.101   0.580  0.00  0.00    -0.002 C 
ATOM     40  C   UNL     1     -33.837  26.521   1.342  0.00  0.00    -0.002 C 
ENDBRANCH  26  38
ENDBRANCH   5  26
TORSDOF 9
ENDMDL
MODEL 2
REMARK VINA RESULT:      -6.8      6.202      9.379
REMARK  Name = 194744
REMARK  9 active torsions:
REMARK  status: ('A' for Active; 'I' for Inactive)
REMARK    1  A    between atoms: C_4  and  C_9
REMARK    2  A    between atoms: C_5  and  C_26
REMARK    3  A    between atoms: C_13  and  C_14
REMARK    4  A    between atoms: C_14  and  N_15
REMARK    5  A    between atoms: C_14  and  C_19
REMARK    6  A    between atoms: C_19  and  C_20
REMARK    7  A    between atoms: C_26  and  N_27
REMARK    8  A    between atoms: C_26  and  C_38
REMARK    9  A    between atoms: N_27  and  C_32
REMARK                            x       y       z     vdW  Elec       q    Type
REMARK                         _______ _______ _______ _____ _____    ______ ____
ROOT
ATOM      1  O   UNL     1     -37.437  23.194   3.750  0.00  0.00    -0.273 OA
ATOM      2  O   UNL     1     -38.755  21.899   1.637  0.00  0.00    -0.277 OA
ATOM      3  N   UNL     1     -36.526  21.641   2.260  0.00  0.00    -0.256 N 
ATOM      4  C   UNL     1     -36.495  22.524   3.337  0.00  0.00    +0.246 C 
ATOM      5  C   UNL     1     -37.652  21.382   1.475  0.00  0.00    +0.208 C 
ATOM      6  H   UNL     1     -35.694  21.166   2.034  0.00  0.00    +0.157 HD
ENDROOT
BRANCH   4   9
ATOM      7  O   UNL     1     -34.537  24.938   2.473  0.00  0.00    -0.277 OA
ATOM      8  N   UNL     1     -34.964  23.919   4.507  0.00  0.00    -0.275 N 
ATOM      9  C   UNL     1     -35.144  22.571   3.984  0.00  0.00    +0.152 C 
ATOM     10  C   UNL     1     -35.071  21.667   5.209  0.00  0.00    +0.031 C 
ATOM     11  C   UNL     1     -35.582  22.558   6.338  0.00  0.00    +0.024 C 
ATOM     12  C   UNL     1     -35.053  23.935   5.965  0.00  0.00    +0.094 C 
ATOM     13  C   UNL     1     -34.601  24.988   3.703  0.00  0.00    +0.206 C 
BRANCH  13  14
ATOM     14  C   UNL     1     -34.286  26.270   4.430  0.00  0.00    +0.018 C 
BRANCH  14  15
ATOM     15  N   UNL     1     -35.442  27.130   4.213  0.00  0.00    +0.388 N 
ATOM     16  H   UNL     1     -35.307  27.674   3.361  0.00  0.00    -0.089 HD
ATOM     17  H   UNL     1     -35.547  27.765   5.006  0.00  0.00    -0.089 HD
ATOM     18  H   UNL     1     -36.280  26.557   4.122  0.00  0.00    -0.089 HD
ENDBRANCH  14  15
BRANCH  14  19
ATOM     19  C   UNL     1     -33.008  26.913   3.888  0.00  0.00    +0.013 C 
BRANCH  19  20
ATOM     20  C   UNL     1     -32.583  28.125   4.683  0.00  0.00    -0.024 C 
ATOM     21  C   UNL     1     -32.579  29.386   4.085  0.00  0.00    -0.004 C 
ATOM     22  C   UNL     1     -32.195  27.985   6.016  0.00  0.00    -0.004 C 
ATOM     23  C   UNL     1     -32.187  30.505   4.819  0.00  0.00    -0.000 C 
ATOM     24  C   UNL     1     -31.804  29.105   6.750  0.00  0.00    -0.000 C 
ATOM     25  C   UNL     1     -31.799  30.365   6.151  0.00  0.00    -0.000 C 
ENDBRANCH  19  20
ENDBRANCH  14  19
ENDBRANCH  13  14
ENDBRANCH   4   9
BRANCH   5  26
ATOM     26  C   UNL     1     -37.364  20.373   0.363  0.00  0.00    +0.018 C 
BRANCH  26  27
ATOM     27  N   UNL     1     -36.657  19.249   0.980  0.00  0.00    +0.398 N 
ATOM     28  H   UNL     1     -37.206  18.398   0.857  0.00  0.00    -0.083 HD
ATOM     29  H   UNL     1     -36.528  19.446   1.972  0.00  0.00    -0.083 HD
BRANCH  27  32
ATOM     30  O   UNL     1     -34.410  19.500   2.547  0.00  0.00    -0.277 OA
ATOM     31  N   UNL     1     -33.156  20.141   0.750  0.00  0.00    -0.306 N 
ATOM     32  C   UNL     1     -35.344  19.066   0.363  0.00  0.00    +0.018 C 
ATOM     33  C   UNL     1     -35.313  19.704  -1.024  0.00  0.00    -0.011 C 
ATOM     34  C   UNL     1     -33.893  19.666  -1.567  0.00  0.00    +0.020 C 
ATOM     35  C   UNL     1     -34.292  19.607   1.324  0.00  0.00    +0.202 C 
ATOM     36  C   UNL     1     -32.994  20.477  -0.652  0.00  0.00    +0.089 C 
ATOM     37  H   UNL     1     -32.388  20.308   1.344  0.00  0.00    +0.149 HD
ENDBRANCH  27  32
ENDBRANCH  26  27
BRANCH  26  38
ATOM     38  C   UNL     1     -38.640  19.900  -0.374  0.00  0.00    -0.011 C 
ATOM     39  C   UNL     1     -38.986  20.730  -1.615  0.00  0.00    -0.002 C 
ATOM     40  C   UNL     1     -38.563  18.416  -0.750  0.00  0.00    -0.002 C 
ENDBRANCH  26  38
ENDBRANCH   5  26
TORSDOF 9
ENDMDL
MODEL 3
REMARK VINA RESULT:      -6.7      2.158      3.248
REMARK  Name = 194744
REMARK  9 active torsions:
REMARK  status: ('A' for Active; 'I' for Inactive)
REMARK    1  A    between atoms: C_4  and  C_9
REMARK    2  A    between atoms: C_5  and  C_26
REMARK    3  A    between atoms: C_13  and  C_14
REMARK    4  A    between atoms: C_14  and  N_15
REMARK    5  A    between atoms: C_14  and  C_19
REMARK    6  A    between atoms: C_19  and  C_20
REMARK    7  A    between atoms: C_26  and  N_27
REMARK    8  A    between atoms: C_26  and  C_38
REMARK    9  A    between atoms: N_27  and  C_32
REMARK                            x       y       z     vdW  Elec       q    Type
REMARK                         _______ _______ _______ _____ _____    ______ ____
ROOT
ATOM      1  O   UNL     1     -39.315  27.042   1.319  0.00  0.00    -0.273 OA
ATOM      2  O   UNL     1     -36.587  27.605   1.663  0.00  0.00    -0.277 OA
ATOM      3  N   UNL     1     -37.829  25.980   2.777  0.00  0.00    -0.256 N 
ATOM      4  C   UNL     1     -39.067  26.200   2.179  0.00  0.00    +0.246 C 
ATOM      5  C   UNL     1     -36.664  26.694   2.485  0.00  0.00    +0.208 C 
ATOM      6  H   UNL     1     -37.770  25.269   3.456  0.00  0.00    +0.157 HD
ENDROOT
BRANCH   4   9
ATOM      7  O   UNL     1     -41.324  27.445   4.118  0.00  0.00    -0.277 OA
ATOM      8  N   UNL     1     -41.410  25.871   2.423  0.00  0.00    -0.275 N 
ATOM      9  C   UNL     1     -40.115  25.261   2.696  0.00  0.00    +0.152 C 
ATOM     10  C   UNL     1     -40.133  23.950   1.920  0.00  0.00    +0.031 C 
ATOM     11  C   UNL     1     -41.058  24.247   0.743  0.00  0.00    +0.024 C 
ATOM     12  C   UNL     1     -42.105  25.172   1.344  0.00  0.00    +0.094 C 
ATOM     13  C   UNL     1     -41.941  26.878   3.214  0.00  0.00    +0.206 C 
BRANCH  13  14
ATOM     14  C   UNL     1     -43.362  27.271   2.899  0.00  0.00    +0.018 C 
BRANCH  14  15
ATOM     15  N   UNL     1     -43.272  28.596   2.300  0.00  0.00    +0.388 N 
ATOM     16  H   UNL     1     -43.653  29.287   2.946  0.00  0.00    -0.089 HD
ATOM     17  H   UNL     1     -43.806  28.614   1.431  0.00  0.00    -0.089 HD
ATOM     18  H   UNL     1     -42.295  28.815   2.105  0.00  0.00    -0.089 HD
ENDBRANCH  14  15
BRANCH  14  19
ATOM     19  C   UNL     1     -44.223  27.290   4.163  0.00  0.00    +0.013 C 
BRANCH  19  20
ATOM     20  C   UNL     1     -45.318  26.250   4.138  0.00  0.00    -0.024 C 
ATOM     21  C   UNL     1     -46.177  26.114   5.230  0.00  0.00    -0.004 C 
ATOM     22  C   UNL     1     -45.471  25.424   3.023  0.00  0.00    -0.004 C 
ATOM     23  C   UNL     1     -47.187  25.153   5.206  0.00  0.00    -0.000 C 
ATOM     24  C   UNL     1     -46.483  24.464   3.000  0.00  0.00    -0.000 C 
ATOM     25  C   UNL     1     -47.341  24.329   4.092  0.00  0.00    -0.000 C 
ENDBRANCH  19  20
ENDBRANCH  14  19
ENDBRANCH  13  14
ENDBRANCH   4   9
BRANCH   5  26
ATOM     26  C   UNL     1     -35.471  26.223   3.316  0.00  0.00    +0.018 C 
BRANCH  26  27
ATOM     27  N   UNL     1     -35.013  27.375   4.096  0.00  0.00    +0.398 N 
ATOM     28  H   UNL     1     -35.008  27.130   5.087  0.00  0.00    -0.083 HD
ATOM     29  H   UNL     1     -35.647  28.157   3.930  0.00  0.00    -0.083 HD
BRANCH  27  32
ATOM     30  O   UNL     1     -32.917  26.853   5.798  0.00  0.00    -0.277 OA
ATOM     31  N   UNL     1     -31.723  28.611   4.964  0.00  0.00    -0.306 N 
ATOM     32  C   UNL     1     -33.664  27.768   3.692  0.00  0.00    +0.018 C 
ATOM     33  C   UNL     1     -33.690  29.129   3.000  0.00  0.00    -0.011 C 
ATOM     34  C   UNL     1     -32.265  29.600   2.757  0.00  0.00    +0.020 C 
ATOM     35  C   UNL     1     -32.769  27.710   4.924  0.00  0.00    +0.202 C 
ATOM     36  C   UNL     1     -31.565  29.762   4.095  0.00  0.00    +0.089 C 
ATOM     37  H   UNL     1     -31.024  28.459   5.641  0.00  0.00    +0.149 HD
ENDBRANCH  27  32
ENDBRANCH  26  27
BRANCH  26  38
ATOM     38  C   UNL     1     -35.804  25.020   4.231  0.00  0.00    -0.011 C 
ATOM     39  C   UNL     1     -34.813  23.857   4.114  0.00  0.00    -0.002 C 
ATOM     40  C   UNL     1     -35.937  25.440   5.698  0.00  0.00    -0.002 C 
ENDBRANCH  26  38
ENDBRANCH   5  26
TORSDOF 9
ENDMDL
MODEL 4
REMARK VINA RESULT:      -6.6      6.697      9.432
REMARK  Name = 194744
REMARK  9 active torsions:
REMARK  status: ('A' for Active; 'I' for Inactive)
REMARK    1  A    between atoms: C_4  and  C_9
REMARK    2  A    between atoms: C_5  and  C_26
REMARK    3  A    between atoms: C_13  and  C_14
REMARK    4  A    between atoms: C_14  and  N_15
REMARK    5  A    between atoms: C_14  and  C_19
REMARK    6  A    between atoms: C_19  and  C_20
REMARK    7  A    between atoms: C_26  and  N_27
REMARK    8  A    between atoms: C_26  and  C_38
REMARK    9  A    between atoms: N_27  and  C_32
REMARK                            x       y       z     vdW  Elec       q    Type
REMARK                         _______ _______ _______ _____ _____    ______ ____
ROOT
ATOM      1  O   UNL     1     -33.538  29.353   3.948  0.00  0.00    -0.273 OA
ATOM      2  O   UNL     1     -31.845  31.545   4.406  0.00  0.00    -0.277 OA
ATOM      3  N   UNL     1     -31.201  29.367   3.894  0.00  0.00    -0.256 N 
ATOM      4  C   UNL     1     -32.462  28.783   3.791  0.00  0.00    +0.246 C 
ATOM      5  C   UNL     1     -30.967  30.710   4.195  0.00  0.00    +0.208 C 
ATOM      6  H   UNL     1     -30.417  28.790   3.743  0.00  0.00    +0.157 HD
ENDROOT
BRANCH   4   9
ATOM      7  O   UNL     1     -33.701  26.691   5.912  0.00  0.00    -0.277 OA
ATOM      8  N   UNL     1     -33.717  26.771   3.599  0.00  0.00    -0.275 N 
ATOM      9  C   UNL     1     -32.379  27.327   3.442  0.00  0.00    +0.152 C 
ATOM     10  C   UNL     1     -32.042  27.117   1.970  0.00  0.00    +0.031 C 
ATOM     11  C   UNL     1     -33.406  27.148   1.286  0.00  0.00    +0.024 C 
ATOM     12  C   UNL     1     -34.322  26.481   2.301  0.00  0.00    +0.094 C 
ATOM     13  C   UNL     1     -34.241  26.430   4.835  0.00  0.00    +0.206 C 
BRANCH  13  14
ATOM     14  C   UNL     1     -35.563  25.705   4.803  0.00  0.00    +0.018 C 
BRANCH  14  15
ATOM     15  N   UNL     1     -36.522  26.627   5.397  0.00  0.00    +0.388 N 
ATOM     16  H   UNL     1     -36.431  27.543   4.957  0.00  0.00    -0.089 HD
ATOM     17  H   UNL     1     -36.338  26.711   6.397  0.00  0.00    -0.089 HD
ATOM     18  H   UNL     1     -37.468  26.273   5.254  0.00  0.00    -0.089 HD
ENDBRANCH  14  15
BRANCH  14  19
ATOM     19  C   UNL     1     -35.493  24.395   5.588  0.00  0.00    +0.013 C 
BRANCH  19  20
ATOM     20  C   UNL     1     -35.477  23.179   4.692  0.00  0.00    -0.024 C 
ATOM     21  C   UNL     1     -35.770  23.309   3.333  0.00  0.00    -0.004 C 
ATOM     22  C   UNL     1     -35.170  21.925   5.221  0.00  0.00    -0.004 C 
ATOM     23  C   UNL     1     -35.755  22.186   2.507  0.00  0.00    -0.000 C 
ATOM     24  C   UNL     1     -35.154  20.803   4.394  0.00  0.00    -0.000 C 
ATOM     25  C   UNL     1     -35.447  20.933   3.036  0.00  0.00    -0.000 C 
ENDBRANCH  19  20
ENDBRANCH  14  19
ENDBRANCH  13  14
ENDBRANCH   4   9
BRANCH   5  26
ATOM     26  C   UNL     1     -29.477  31.043   4.244  0.00  0.00    +0.018 C 
BRANCH  26  27
ATOM     27  N   UNL     1     -28.753  29.772   4.161  0.00  0.00    +0.398 N 
ATOM     28  H   UNL     1     -28.080  29.818   3.396  0.00  0.00    -0.083 HD
ATOM     29  H   UNL     1     -29.424  29.022   3.997  0.00  0.00    -0.083 HD
BRANCH  27  32
ATOM     30  O   UNL     1     -29.369  27.490   5.569  0.00  0.00    -0.277 OA
ATOM     31  N   UNL     1     -28.744  28.464   7.537  0.00  0.00    -0.306 N 
ATOM     32  C   UNL     1     -28.041  29.502   5.409  0.00  0.00    +0.018 C 
ATOM     33  C   UNL     1     -27.849  30.792   6.204  0.00  0.00    -0.011 C 
ATOM     34  C   UNL     1     -27.278  30.462   7.574  0.00  0.00    +0.020 C 
ATOM     35  C   UNL     1     -28.802  28.414   6.158  0.00  0.00    +0.202 C 
ATOM     36  C   UNL     1     -28.267  29.587   8.323  0.00  0.00    +0.089 C 
ATOM     37  H   UNL     1     -29.053  27.670   8.030  0.00  0.00    +0.149 HD
ENDBRANCH  27  32
ENDBRANCH  26  27
BRANCH  26  38
ATOM     38  C   UNL     1     -29.033  32.017   3.128  0.00  0.00    -0.011 C 
ATOM     39  C   UNL     1     -28.727  33.435   3.624  0.00  0.00    -0.002 C 
ATOM     40  C   UNL     1     -27.835  31.476   2.341  0.00  0.00    -0.002 C 
ENDBRANCH  26  38
ENDBRANCH   5  26
TORSDOF 9
ENDMDL
MODEL 5
REMARK VINA RESULT:      -6.4      1.647      2.411
REMARK  Name = 194744
REMARK  9 active torsions:
REMARK  status: ('A' for Active; 'I' for Inactive)
REMARK    1  A    between atoms: C_4  and  C_9
REMARK    2  A    between atoms: C_5  and  C_26
REMARK    3  A    between atoms: C_13  and  C_14
REMARK    4  A    between atoms: C_14  and  N_15
REMARK    5  A    between atoms: C_14  and  C_19
REMARK    6  A    between atoms: C_19  and  C_20
REMARK    7  A    between atoms: C_26  and  N_27
REMARK    8  A    between atoms: C_26  and  C_38
REMARK    9  A    between atoms: N_27  and  C_32
REMARK                            x       y       z     vdW  Elec       q    Type
REMARK                         _______ _______ _______ _____ _____    ______ ____
ROOT
ATOM      1  O   UNL     1     -39.072  26.909   1.854  0.00  0.00    -0.273 OA
ATOM      2  O   UNL     1     -36.345  27.170   2.468  0.00  0.00    -0.277 OA
ATOM      3  N   UNL     1     -37.821  25.582   3.316  0.00  0.00    -0.256 N 
ATOM      4  C   UNL     1     -38.977  25.974   2.646  0.00  0.00    +0.246 C 
ATOM      5  C   UNL     1     -36.576  26.202   3.188  0.00  0.00    +0.208 C 
ATOM      6  H   UNL     1     -37.886  24.811   3.926  0.00  0.00    +0.157 HD
ENDROOT
BRANCH   4   9
ATOM      7  O   UNL     1     -41.480  27.375   4.121  0.00  0.00    -0.277 OA
ATOM      8  N   UNL     1     -41.340  25.759   2.470  0.00  0.00    -0.275 N 
ATOM      9  C   UNL     1     -40.146  25.099   2.984  0.00  0.00    +0.152 C 
ATOM     10  C   UNL     1     -40.090  23.768   2.244  0.00  0.00    +0.031 C 
ATOM     11  C   UNL     1     -40.774  24.072   0.914  0.00  0.00    +0.024 C 
ATOM     12  C   UNL     1     -41.863  25.062   1.298  0.00  0.00    +0.094 C 
ATOM     13  C   UNL     1     -41.953  26.811   3.132  0.00  0.00    +0.206 C 
BRANCH  13  14
ATOM     14  C   UNL     1     -43.273  27.259   2.558  0.00  0.00    +0.018 C 
BRANCH  14  15
ATOM     15  N   UNL     1     -42.973  28.467   1.800  0.00  0.00    +0.388 N 
ATOM     16  H   UNL     1     -41.962  28.571   1.713  0.00  0.00    -0.089 HD
ATOM     17  H   UNL     1     -43.357  29.278   2.287  0.00  0.00    -0.089 HD
ATOM     18  H   UNL     1     -43.390  28.399   0.872  0.00  0.00    -0.089 HD
ENDBRANCH  14  15
BRANCH  14  19
ATOM     19  C   UNL     1     -44.291  27.537   3.665  0.00  0.00    +0.013 C 
BRANCH  19  20
ATOM     20  C   UNL     1     -45.302  26.425   3.819  0.00  0.00    -0.024 C 
ATOM     21  C   UNL     1     -45.471  25.488   2.798  0.00  0.00    -0.004 C 
ATOM     22  C   UNL     1     -46.067  26.334   4.982  0.00  0.00    -0.004 C 
ATOM     23  C   UNL     1     -46.404  24.463   2.942  0.00  0.00    -0.000 C 
ATOM     24  C   UNL     1     -47.000  25.307   5.125  0.00  0.00    -0.000 C 
ATOM     25  C   UNL     1     -47.169  24.371   4.104  0.00  0.00    -0.000 C 
ENDBRANCH  19  20
ENDBRANCH  14  19
ENDBRANCH  13  14
ENDBRANCH   4   9
BRANCH   5  26
ATOM     26  C   UNL     1     -35.508  25.545   4.062  0.00  0.00    +0.018 C 
BRANCH  26  27
ATOM     27  N   UNL     1     -34.893  24.485   3.259  0.00  0.00    +0.398 N 
ATOM     28  H   UNL     1     -34.083  24.114   3.756  0.00  0.00    -0.083 HD
ATOM     29  H   UNL     1     -34.608  24.876   2.361  0.00  0.00    -0.083 HD
BRANCH  27  32
ATOM     30  O   UNL     1     -35.196  22.539   5.180  0.00  0.00    -0.277 OA
ATOM     31  N   UNL     1     -35.826  21.005   3.611  0.00  0.00    -0.306 N 
ATOM     32  C   UNL     1     -35.845  23.402   3.020  0.00  0.00    +0.018 C 
ATOM     33  C   UNL     1     -35.785  22.952   1.562  0.00  0.00    -0.011 C 
ATOM     34  C   UNL     1     -36.642  21.708   1.380  0.00  0.00    +0.020 C 
ATOM     35  C   UNL     1     -35.562  22.294   4.028  0.00  0.00    +0.202 C 
ATOM     36  C   UNL     1     -36.081  20.593   2.243  0.00  0.00    +0.089 C 
ATOM     37  H   UNL     1     -35.843  20.303   4.302  0.00  0.00    +0.149 HD
ENDBRANCH  27  32
ENDBRANCH  26  27
BRANCH  26  38
ATOM     38  C   UNL     1     -34.447  26.544   4.581  0.00  0.00    -0.011 C 
ATOM     39  C   UNL     1     -33.956  26.247   6.002  0.00  0.00    -0.002 C 
ATOM     40  C   UNL     1     -33.249  26.649   3.632  0.00  0.00    -0.002 C 
ENDBRANCH  26  38
ENDBRANCH   5  26
TORSDOF 9
ENDMDL
MODEL 6
REMARK VINA RESULT:      -6.4      3.811      8.268
REMARK  Name = 194744
REMARK  9 active torsions:
REMARK  status: ('A' for Active; 'I' for Inactive)
REMARK    1  A    between atoms: C_4  and  C_9
REMARK    2  A    between atoms: C_5  and  C_26
REMARK    3  A    between atoms: C_13  and  C_14
REMARK    4  A    between atoms: C_14  and  N_15
REMARK    5  A    between atoms: C_14  and  C_19
REMARK    6  A    between atoms: C_19  and  C_20
REMARK    7  A    between atoms: C_26  and  N_27
REMARK    8  A    between atoms: C_26  and  C_38
REMARK    9  A    between atoms: N_27  and  C_32
REMARK                            x       y       z     vdW  Elec       q    Type
REMARK                         _______ _______ _______ _____ _____    ______ ____
ROOT
ATOM      1  O   UNL     1     -34.497  27.045   4.963  0.00  0.00    -0.273 OA
ATOM      2  O   UNL     1     -35.959  24.795   5.787  0.00  0.00    -0.277 OA
ATOM      3  N   UNL     1     -35.194  25.252   3.636  0.00  0.00    -0.256 N 
ATOM      4  C   UNL     1     -34.565  26.471   3.879  0.00  0.00    +0.246 C 
ATOM      5  C   UNL     1     -35.853  24.488   4.602  0.00  0.00    +0.208 C 
ATOM      6  H   UNL     1     -35.174  24.904   2.715  0.00  0.00    +0.157 HD
ENDROOT
BRANCH   4   9
ATOM      7  O   UNL     1     -36.427  28.320   2.003  0.00  0.00    -0.277 OA
ATOM      8  N   UNL     1     -34.206  28.468   2.638  0.00  0.00    -0.275 N 
ATOM      9  C   UNL     1     -33.938  27.035   2.641  0.00  0.00    +0.152 C 
ATOM     10  C   UNL     1     -32.418  26.927   2.676  0.00  0.00    +0.031 C 
ATOM     11  C   UNL     1     -31.988  28.196   3.407  0.00  0.00    +0.024 C 
ATOM     12  C   UNL     1     -32.996  29.231   2.933  0.00  0.00    +0.094 C 
ATOM     13  C   UNL     1     -35.426  28.996   2.245  0.00  0.00    +0.206 C 
BRANCH  13  14
ATOM     14  C   UNL     1     -35.476  30.499   2.132  0.00  0.00    +0.018 C 
BRANCH  14  15
ATOM     15  N   UNL     1     -35.722  30.979   3.486  0.00  0.00    +0.388 N 
ATOM     16  H   UNL     1     -35.201  31.843   3.639  0.00  0.00    -0.089 HD
ATOM     17  H   UNL     1     -35.415  30.274   4.157  0.00  0.00    -0.089 HD
ATOM     18  H   UNL     1     -36.718  31.155   3.609  0.00  0.00    -0.089 HD
ENDBRANCH  14  15
BRANCH  14  19
ATOM     19  C   UNL     1     -36.584  30.944   1.176  0.00  0.00    +0.013 C 
BRANCH  19  20
ATOM     20  C   UNL     1     -36.916  32.412   1.312  0.00  0.00    -0.024 C 
ATOM     21  C   UNL     1     -35.971  33.376   0.958  0.00  0.00    -0.004 C 
ATOM     22  C   UNL     1     -38.166  32.804   1.790  0.00  0.00    -0.004 C 
ATOM     23  C   UNL     1     -36.277  34.731   1.084  0.00  0.00    -0.000 C 
ATOM     24  C   UNL     1     -38.473  34.159   1.914  0.00  0.00    -0.000 C 
ATOM     25  C   UNL     1     -37.528  35.122   1.561  0.00  0.00    -0.000 C 
ENDBRANCH  19  20
ENDBRANCH  14  19
ENDBRANCH  13  14
ENDBRANCH   4   9
BRANCH   5  26
ATOM     26  C   UNL     1     -36.450  23.207   4.020  0.00  0.00    +0.018 C 
BRANCH  26  27
ATOM     27  N   UNL     1     -37.052  23.562   2.733  0.00  0.00    +0.398 N 
ATOM     28  H   UNL     1     -37.004  22.759   2.106  0.00  0.00    -0.083 HD
ATOM     29  H   UNL     1     -36.541  24.351   2.338  0.00  0.00    -0.083 HD
BRANCH  27  32
ATOM     30  O   UNL     1     -39.018  21.737   2.123  0.00  0.00    -0.277 OA
ATOM     31  N   UNL     1     -40.502  23.405   1.646  0.00  0.00    -0.306 N 
ATOM     32  C   UNL     1     -38.451  23.949   2.909  0.00  0.00    +0.018 C 
ATOM     33  C   UNL     1     -38.665  25.394   2.462  0.00  0.00    -0.011 C 
ATOM     34  C   UNL     1     -40.152  25.713   2.477  0.00  0.00    +0.020 C 
ATOM     35  C   UNL     1     -39.317  22.933   2.174  0.00  0.00    +0.202 C 
ATOM     36  C   UNL     1     -40.861  24.802   1.492  0.00  0.00    +0.089 C 
ATOM     37  H   UNL     1     -41.161  22.736   1.349  0.00  0.00    +0.149 HD
ENDBRANCH  27  32
ENDBRANCH  26  27
BRANCH  26  38
ATOM     38  C   UNL     1     -35.412  22.070   3.860  0.00  0.00    -0.011 C 
ATOM     39  C   UNL     1     -35.088  21.335   5.166  0.00  0.00    -0.002 C 
ATOM     40  C   UNL     1     -35.835  21.059   2.790  0.00  0.00    -0.002 C 
ENDBRANCH  26  38
ENDBRANCH   5  26
TORSDOF 9
ENDMDL
MODEL 7
REMARK VINA RESULT:      -6.4      4.371      9.110
REMARK  Name = 194744
REMARK  9 active torsions:
REMARK  status: ('A' for Active; 'I' for Inactive)
REMARK    1  A    between atoms: C_4  and  C_9
REMARK    2  A    between atoms: C_5  and  C_26
REMARK    3  A    between atoms: C_13  and  C_14
REMARK    4  A    between atoms: C_14  and  N_15
REMARK    5  A    between atoms: C_14  and  C_19
REMARK    6  A    between atoms: C_19  and  C_20
REMARK    7  A    between atoms: C_26  and  N_27
REMARK    8  A    between atoms: C_26  and  C_38
REMARK    9  A    between atoms: N_27  and  C_32
REMARK                            x       y       z     vdW  Elec       q    Type
REMARK                         _______ _______ _______ _____ _____    ______ ____
ROOT
ATOM      1  O   UNL     1     -39.774  22.310  -1.168  0.00  0.00    -0.273 OA
ATOM      2  O   UNL     1     -40.994  23.317   1.151  0.00  0.00    -0.277 OA
ATOM      3  N   UNL     1     -38.718  23.309   0.662  0.00  0.00    -0.256 N 
ATOM      4  C   UNL     1     -38.763  22.696  -0.587  0.00  0.00    +0.246 C 
ATOM      5  C   UNL     1     -39.834  23.583   1.457  0.00  0.00    +0.208 C 
ATOM      6  H   UNL     1     -37.835  23.569   1.013  0.00  0.00    +0.157 HD
ENDROOT
BRANCH   4   9
ATOM      7  O   UNL     1     -36.359  21.850   1.391  0.00  0.00    -0.277 OA
ATOM      8  N   UNL     1     -36.879  21.257  -0.785  0.00  0.00    -0.275 N 
ATOM      9  C   UNL     1     -37.398  22.556  -1.192  0.00  0.00    +0.152 C 
ATOM     10  C   UNL     1     -37.458  22.489  -2.714  0.00  0.00    +0.031 C 
ATOM     11  C   UNL     1     -37.675  21.005  -2.996  0.00  0.00    +0.024 C 
ATOM     12  C   UNL     1     -36.867  20.319  -1.905  0.00  0.00    +0.094 C 
ATOM     13  C   UNL     1     -36.331  21.034   0.469  0.00  0.00    +0.206 C 
BRANCH  13  14
ATOM     14  C   UNL     1     -35.681  19.687   0.663  0.00  0.00    +0.018 C 
BRANCH  14  15
ATOM     15  N   UNL     1     -36.755  18.799   1.089  0.00  0.00    +0.388 N 
ATOM     16  H   UNL     1     -37.246  18.442   0.268  0.00  0.00    -0.089 HD
ATOM     17  H   UNL     1     -37.410  19.315   1.678  0.00  0.00    -0.089 HD
ATOM     18  H   UNL     1     -36.363  18.020   1.617  0.00  0.00    -0.089 HD
ENDBRANCH  14  15
BRANCH  14  19
ATOM     19  C   UNL     1     -34.570  19.756   1.712  0.00  0.00    +0.013 C 
BRANCH  19  20
ATOM     20  C   UNL     1     -33.207  19.448   1.138  0.00  0.00    -0.024 C 
ATOM     21  C   UNL     1     -32.574  20.374   0.308  0.00  0.00    -0.004 C 
ATOM     22  C   UNL     1     -32.581  18.238   1.438  0.00  0.00    -0.004 C 
ATOM     23  C   UNL     1     -31.316  20.089  -0.222  0.00  0.00    -0.000 C 
ATOM     24  C   UNL     1     -31.322  17.954   0.908  0.00  0.00    -0.000 C 
ATOM     25  C   UNL     1     -30.690  18.879   0.078  0.00  0.00    -0.000 C 
ENDBRANCH  19  20
ENDBRANCH  14  19
ENDBRANCH  13  14
ENDBRANCH   4   9
BRANCH   5  26
ATOM     26  C   UNL     1     -39.457  24.253   2.777  0.00  0.00    +0.018 C 
BRANCH  26  27
ATOM     27  N   UNL     1     -38.055  23.917   3.041  0.00  0.00    +0.398 N 
ATOM     28  H   UNL     1     -37.635  23.537   2.192  0.00  0.00    -0.083 HD
ATOM     29  H   UNL     1     -38.018  23.228   3.792  0.00  0.00    -0.083 HD
BRANCH  27  32
ATOM     30  O   UNL     1     -36.443  25.175   1.201  0.00  0.00    -0.277 OA
ATOM     31  N   UNL     1     -35.075  25.963   2.851  0.00  0.00    -0.306 N 
ATOM     32  C   UNL     1     -37.310  25.105   3.454  0.00  0.00    +0.018 C 
ATOM     33  C   UNL     1     -36.762  24.924   4.868  0.00  0.00    -0.011 C 
ATOM     34  C   UNL     1     -35.839  26.086   5.205  0.00  0.00    +0.020 C 
ATOM     35  C   UNL     1     -36.244  25.382   2.401  0.00  0.00    +0.202 C 
ATOM     36  C   UNL     1     -34.668  26.081   4.238  0.00  0.00    +0.089 C 
ATOM     37  H   UNL     1     -34.465  26.331   2.171  0.00  0.00    +0.149 HD
ENDBRANCH  27  32
ENDBRANCH  26  27
BRANCH  26  38
ATOM     38  C   UNL     1     -39.676  25.784   2.767  0.00  0.00    -0.011 C 
ATOM     39  C   UNL     1     -39.714  26.398   1.364  0.00  0.00    -0.002 C 
ATOM     40  C   UNL     1     -40.937  26.184   3.540  0.00  0.00    -0.002 C 
ENDBRANCH  26  38
ENDBRANCH   5  26
TORSDOF 9
ENDMDL
MODEL 8
REMARK VINA RESULT:      -6.4      2.141      3.995
REMARK  Name = 194744
REMARK  9 active torsions:
REMARK  status: ('A' for Active; 'I' for Inactive)
REMARK    1  A    between atoms: C_4  and  C_9
REMARK    2  A    between atoms: C_5  and  C_26
REMARK    3  A    between atoms: C_13  and  C_14
REMARK    4  A    between atoms: C_14  and  N_15
REMARK    5  A    between atoms: C_14  and  C_19
REMARK    6  A    between atoms: C_19  and  C_20
REMARK    7  A    between atoms: C_26  and  N_27
REMARK    8  A    between atoms: C_26  and  C_38
REMARK    9  A    between atoms: N_27  and  C_32
REMARK                            x       y       z     vdW  Elec       q    Type
REMARK                         _______ _______ _______ _____ _____    ______ ____
ROOT
ATOM      1  O   UNL     1     -37.417  22.121   0.501  0.00  0.00    -0.273 OA
ATOM      2  O   UNL     1     -35.167  22.721   2.068  0.00  0.00    -0.277 OA
ATOM      3  N   UNL     1     -37.388  22.692   2.767  0.00  0.00    -0.256 N 
ATOM      4  C   UNL     1     -37.992  22.335   1.564  0.00  0.00    +0.246 C 
ATOM      5  C   UNL     1     -36.013  22.864   2.948  0.00  0.00    +0.208 C 
ATOM      6  H   UNL     1     -37.971  22.835   3.547  0.00  0.00    +0.157 HD
ENDROOT
BRANCH   4   9
ATOM      7  O   UNL     1     -39.471  24.492   3.453  0.00  0.00    -0.277 OA
ATOM      8  N   UNL     1     -40.043  23.533   1.425  0.00  0.00    -0.275 N 
ATOM      9  C   UNL     1     -39.481  22.217   1.699  0.00  0.00    +0.152 C 
ATOM     10  C   UNL     1     -40.076  21.311   0.627  0.00  0.00    +0.031 C 
ATOM     11  C   UNL     1     -40.312  22.258  -0.547  0.00  0.00    +0.024 C 
ATOM     12  C   UNL     1     -40.717  23.559   0.129  0.00  0.00    +0.094 C 
ATOM     13  C   UNL     1     -40.052  24.550   2.367  0.00  0.00    +0.206 C 
BRANCH  13  14
ATOM     14  C   UNL     1     -40.828  25.784   1.983  0.00  0.00    +0.018 C 
BRANCH  14  15
ATOM     15  N   UNL     1     -39.853  26.676   1.368  0.00  0.00    +0.388 N 
ATOM     16  H   UNL     1     -39.687  26.385   0.404  0.00  0.00    -0.089 HD
ATOM     17  H   UNL     1     -38.978  26.634   1.891  0.00  0.00    -0.089 HD
ATOM     18  H   UNL     1     -40.211  27.631   1.379  0.00  0.00    -0.089 HD
ENDBRANCH  14  15
BRANCH  14  19
ATOM     19  C   UNL     1     -41.477  26.432   3.207  0.00  0.00    +0.013 C 
BRANCH  19  20
ATOM     20  C   UNL     1     -42.986  26.370   3.167  0.00  0.00    -0.024 C 
ATOM     21  C   UNL     1     -43.631  25.732   2.107  0.00  0.00    -0.004 C 
ATOM     22  C   UNL     1     -43.736  26.950   4.192  0.00  0.00    -0.004 C 
ATOM     23  C   UNL     1     -45.024  25.676   2.071  0.00  0.00    -0.000 C 
ATOM     24  C   UNL     1     -45.129  26.892   4.155  0.00  0.00    -0.000 C 
ATOM     25  C   UNL     1     -45.773  26.255   3.094  0.00  0.00    -0.000 C 
ENDBRANCH  19  20
ENDBRANCH  14  19
ENDBRANCH  13  14
ENDBRANCH   4   9
BRANCH   5  26
ATOM     26  C   UNL     1     -35.662  23.266   4.380  0.00  0.00    +0.018 C 
BRANCH  26  27
ATOM     27  N   UNL     1     -36.582  24.341   4.759  0.00  0.00    +0.398 N 
ATOM     28  H   UNL     1     -37.013  24.114   5.656  0.00  0.00    -0.083 HD
ATOM     29  H   UNL     1     -37.297  24.431   4.037  0.00  0.00    -0.083 HD
BRANCH  27  32
ATOM     30  O   UNL     1     -36.981  26.268   2.838  0.00  0.00    -0.277 OA
ATOM     31  N   UNL     1     -34.905  27.145   3.201  0.00  0.00    -0.306 N 
ATOM     32  C   UNL     1     -35.869  25.612   4.878  0.00  0.00    +0.018 C 
ATOM     33  C   UNL     1     -34.438  25.377   5.357  0.00  0.00    -0.011 C 
ATOM     34  C   UNL     1     -33.664  26.684   5.295  0.00  0.00    +0.020 C 
ATOM     35  C   UNL     1     -35.970  26.335   3.541  0.00  0.00    +0.202 C 
ATOM     36  C   UNL     1     -33.609  27.157   3.854  0.00  0.00    +0.089 C 
ATOM     37  H   UNL     1     -35.035  27.769   2.450  0.00  0.00    +0.149 HD
ENDBRANCH  27  32
ENDBRANCH  26  27
BRANCH  26  38
ATOM     38  C   UNL     1     -35.733  22.086   5.378  0.00  0.00    -0.011 C 
ATOM     39  C   UNL     1     -35.094  20.793   4.859  0.00  0.00    -0.002 C 
ATOM     40  C   UNL     1     -35.127  22.452   6.737  0.00  0.00    -0.002 C 
ENDBRANCH  26  38
ENDBRANCH   5  26
TORSDOF 9
ENDMDL
MODEL 9
REMARK VINA RESULT:      -6.3      5.481      9.012
REMARK  Name = 194744
REMARK  9 active torsions:
REMARK  status: ('A' for Active; 'I' for Inactive)
REMARK    1  A    between atoms: C_4  and  C_9
REMARK    2  A    between atoms: C_5  and  C_26
REMARK    3  A    between atoms: C_13  and  C_14
REMARK    4  A    between atoms: C_14  and  N_15
REMARK    5  A    between atoms: C_14  and  C_19
REMARK    6  A    between atoms: C_19  and  C_20
REMARK    7  A    between atoms: C_26  and  N_27
REMARK    8  A    between atoms: C_26  and  C_38
REMARK    9  A    between atoms: N_27  and  C_32
REMARK                            x       y       z     vdW  Elec       q    Type
REMARK                         _______ _______ _______ _____ _____    ______ ____
ROOT
ATOM      1  O   UNL     1     -37.693  26.999   2.208  0.00  0.00    -0.273 OA
ATOM      2  O   UNL     1     -38.170  24.747   3.814  0.00  0.00    -0.277 OA
ATOM      3  N   UNL     1     -36.263  25.183   2.551  0.00  0.00    -0.256 N 
ATOM      4  C   UNL     1     -36.634  26.410   2.007  0.00  0.00    +0.246 C 
ATOM      5  C   UNL     1     -37.052  24.425   3.421  0.00  0.00    +0.208 C 
ATOM      6  H   UNL     1     -35.381  24.821   2.304  0.00  0.00    +0.157 HD
ENDROOT
BRANCH   4   9
ATOM      7  O   UNL     1     -36.761  29.575   1.399  0.00  0.00    -0.277 OA
ATOM      8  N   UNL     1     -35.002  28.130   1.817  0.00  0.00    -0.275 N 
ATOM      9  C   UNL     1     -35.565  26.978   1.124  0.00  0.00    +0.152 C 
ATOM     10  C   UNL     1     -34.395  26.015   0.960  0.00  0.00    +0.031 C 
ATOM     11  C   UNL     1     -33.501  26.335   2.155  0.00  0.00    +0.024 C 
ATOM     12  C   UNL     1     -33.661  27.839   2.319  0.00  0.00    +0.094 C 
ATOM     13  C   UNL     1     -35.626  29.367   1.833  0.00  0.00    +0.206 C 
BRANCH  13  14
ATOM     14  C   UNL     1     -34.826  30.490   2.442  0.00  0.00    +0.018 C 
BRANCH  14  15
ATOM     15  N   UNL     1     -35.469  30.775   3.718  0.00  0.00    +0.388 N 
ATOM     16  H   UNL     1     -34.900  31.439   4.244  0.00  0.00    -0.089 HD
ATOM     17  H   UNL     1     -35.563  29.910   4.251  0.00  0.00    -0.089 HD
ATOM     18  H   UNL     1     -36.392  31.175   3.552  0.00  0.00    -0.089 HD
ENDBRANCH  14  15
BRANCH  14  19
ATOM     19  C   UNL     1     -34.824  31.722   1.534  0.00  0.00    +0.013 C 
BRANCH  19  20
ATOM     20  C   UNL     1     -33.839  32.775   1.984  0.00  0.00    -0.024 C 
ATOM     21  C   UNL     1     -34.168  34.128   1.883  0.00  0.00    -0.004 C 
ATOM     22  C   UNL     1     -32.599  32.397   2.501  0.00  0.00    -0.004 C 
ATOM     23  C   UNL     1     -33.259  35.099   2.297  0.00  0.00    -0.000 C 
ATOM     24  C   UNL     1     -31.690  33.369   2.916  0.00  0.00    -0.000 C 
ATOM     25  C   UNL     1     -32.020  34.721   2.814  0.00  0.00    -0.000 C 
ENDBRANCH  19  20
ENDBRANCH  14  19
ENDBRANCH  13  14
ENDBRANCH   4   9
BRANCH   5  26
ATOM     26  C   UNL     1     -36.370  23.121   3.834  0.00  0.00    +0.018 C 
BRANCH  26  27
ATOM     27  N   UNL     1     -35.816  22.524   2.617  0.00  0.00    +0.398 N 
ATOM     28  H   UNL     1     -34.869  22.195   2.805  0.00  0.00    -0.083 HD
ATOM     29  H   UNL     1     -35.804  23.230   1.881  0.00  0.00    -0.083 HD
BRANCH  27  32
ATOM     30  O   UNL     1     -34.790  19.980   2.816  0.00  0.00    -0.277 OA
ATOM     31  N   UNL     1     -36.078  19.260   1.074  0.00  0.00    -0.306 N 
ATOM     32  C   UNL     1     -36.637  21.398   2.176  0.00  0.00    +0.018 C 
ATOM     33  C   UNL     1     -37.392  21.757   0.898  0.00  0.00    -0.011 C 
ATOM     34  C   UNL     1     -38.088  20.518   0.356  0.00  0.00    +0.020 C 
ATOM     35  C   UNL     1     -35.732  20.178   2.045  0.00  0.00    +0.202 C 
ATOM     36  C   UNL     1     -37.041  19.476   0.010  0.00  0.00    +0.089 C 
ATOM     37  H   UNL     1     -35.634  18.381   1.107  0.00  0.00    +0.149 HD
ENDBRANCH  27  32
ENDBRANCH  26  27
BRANCH  26  38
ATOM     38  C   UNL     1     -35.278  23.321   4.911  0.00  0.00    -0.011 C 
ATOM     39  C   UNL     1     -35.348  24.674   5.626  0.00  0.00    -0.002 C 
ATOM     40  C   UNL     1     -35.283  22.190   5.945  0.00  0.00    -0.002 C 
ENDBRANCH  26  38
ENDBRANCH   5  26
TORSDOF 9
ENDMDL
