MODEL 1
REMARK VINA RESULT:      -6.2      0.000      0.000
REMARK  Name = 57340714
REMARK  6 active torsions:
REMARK  status: ('A' for Active; 'I' for Inactive)
REMARK    1  A    between atoms: C_5  and  C_17
REMARK    2  A    between atoms: CA_10  and  C_14
REMARK    3  A    between atoms: C_14  and  O_15
REMARK    4  A    between atoms: C_17  and  O_18
REMARK    5  A    between atoms: O_18  and  C_19
REMARK    6  A    between atoms: C_19  and  C_24
REMARK                            x       y       z     vdW  Elec       q    Type
REMARK                         _______ _______ _______ _____ _____    ______ ____
ROOT
ATOM      1  N   UNL     1     -36.423  22.274   4.670  0.00  0.00    +0.392 N 
ATOM      2  C   UNL     1     -34.565  24.121   3.336  0.00  0.00    -0.003 C 
ATOM      3  C   UNL     1     -34.587  23.954   4.867  0.00  0.00    -0.021 C 
ATOM      4  C   UNL     1     -34.113  25.534   2.932  0.00  0.00    +0.002 C 
ATOM      5  C   UNL     1     -34.890  26.654   3.638  0.00  0.00    +0.030 C 
ATOM      6  C   UNL     1     -35.389  25.073   5.555  0.00  0.00    -0.002 C 
ATOM      7  C   UNL     1     -35.925  23.750   2.715  0.00  0.00    -0.011 C 
ATOM      8  C   UNL     1     -34.875  26.455   5.159  0.00  0.00    +0.002 C 
ATOM      9  C   UNL     1     -35.111  22.561   5.245  0.00  0.00    -0.081 C 
ATOM     10  CA  UNL     1     -36.469  22.409   3.215  0.00  0.00    +0.040 C 
ATOM     11  H1  UNL     1     -37.101  22.920   5.074  0.00  0.00    -0.084 HD
ATOM     12  H2  UNL     1     -36.637  21.300   4.886  0.00  0.00    -0.084 HD
ENDROOT
BRANCH  10  14
ATOM     13  OXT UNL     1     -34.827  21.322   1.811  0.00  0.00    -0.253 OA
ATOM     14  C   UNL     1     -35.758  21.242   2.597  0.00  0.00    +0.293 C 
BRANCH  14  15
ATOM     15  O   UNL     1     -36.293  20.073   3.028  0.00  0.00    -0.482 OA
ATOM     16  H   UNL     1     -35.934  19.257   2.737  0.00  0.00    +0.295 HD
ENDBRANCH  14  15
ENDBRANCH  10  14
BRANCH   5  17
ATOM     17  C   UNL     1     -34.315  28.021   3.270  0.00  0.00    +0.143 C 
BRANCH  17  18
ATOM     18  O   UNL     1     -32.934  27.868   3.001  0.00  0.00    -0.339 OA
BRANCH  18  19
ATOM     19  C   UNL     1     -32.184  28.998   3.431  0.00  0.00    +0.244 C 
BRANCH  19  24
ATOM     20  N   UNL     1     -31.309  27.781   5.420  0.00  0.00    -0.112 NA
ATOM     21  N   UNL     1     -32.191  29.830   5.808  0.00  0.00    -0.089 NA
ATOM     22  N   UNL     1     -31.276  28.155   6.708  0.00  0.00    -0.140 N 
ATOM     23  N   UNL     1     -31.788  29.362   6.984  0.00  0.00    -0.022 NA
ATOM     24  C   UNL     1     -31.891  28.862   4.897  0.00  0.00    +0.081 C 
ATOM     25  H   UNL     1     -30.899  27.577   7.409  0.00  0.00    +0.197 HD
ENDBRANCH  19  24
ENDBRANCH  18  19
ENDBRANCH  17  18
ENDBRANCH   5  17
TORSDOF 6
ENDMDL
MODEL 2
REMARK VINA RESULT:      -6.0      3.479      7.412
REMARK  Name = 57340714
REMARK  6 active torsions:
REMARK  status: ('A' for Active; 'I' for Inactive)
REMARK    1  A    between atoms: C_5  and  C_17
REMARK    2  A    between atoms: CA_10  and  C_14
REMARK    3  A    between atoms: C_14  and  O_15
REMARK    4  A    between atoms: C_17  and  O_18
REMARK    5  A    between atoms: O_18  and  C_19
REMARK    6  A    between atoms: C_19  and  C_24
REMARK                            x       y       z     vdW  Elec       q    Type
REMARK                         _______ _______ _______ _____ _____    ______ ____
ROOT
ATOM      1  N   UNL     1     -34.240  26.315   5.341  0.00  0.00    +0.392 N 
ATOM      2  C   UNL     1     -35.736  24.621   3.462  0.00  0.00    -0.003 C 
ATOM      3  C   UNL     1     -35.979  24.561   4.982  0.00  0.00    -0.021 C 
ATOM      4  C   UNL     1     -36.030  23.268   2.792  0.00  0.00    +0.002 C 
ATOM      5  C   UNL     1     -35.315  22.084   3.460  0.00  0.00    +0.030 C 
ATOM      6  C   UNL     1     -35.238  23.382   5.635  0.00  0.00    -0.002 C 
ATOM      7  C   UNL     1     -34.317  25.127   3.143  0.00  0.00    -0.011 C 
ATOM      8  C   UNL     1     -35.596  22.056   4.967  0.00  0.00    +0.002 C 
ATOM      9  C   UNL     1     -35.609  25.901   5.635  0.00  0.00    -0.081 C 
ATOM     10  CA  UNL     1     -33.945  26.398   3.912  0.00  0.00    +0.040 C 
ATOM     11  H1  UNL     1     -33.601  25.641   5.763  0.00  0.00    -0.084 HD
ATOM     12  H2  UNL     1     -34.123  27.253   5.725  0.00  0.00    -0.084 HD
ENDROOT
BRANCH  10  14
ATOM     13  OXT UNL     1     -35.564  27.609   2.586  0.00  0.00    -0.253 OA
ATOM     14  C   UNL     1     -34.611  27.618   3.349  0.00  0.00    +0.293 C 
BRANCH  14  15
ATOM     15  O   UNL     1     -34.007  28.744   3.801  0.00  0.00    -0.482 OA
ATOM     16  H   UNL     1     -34.463  29.563   3.778  0.00  0.00    +0.295 HD
ENDBRANCH  14  15
ENDBRANCH  10  14
BRANCH   5  17
ATOM     17  C   UNL     1     -35.739  20.767   2.810  0.00  0.00    +0.143 C 
BRANCH  17  18
ATOM     18  O   UNL     1     -34.588  19.961   2.642  0.00  0.00    -0.339 OA
BRANCH  18  19
ATOM     19  C   UNL     1     -34.402  19.583   1.283  0.00  0.00    +0.244 C 
BRANCH  19  24
ATOM     20  N   UNL     1     -32.070  19.731   0.420  0.00  0.00    -0.112 NA
ATOM     21  N   UNL     1     -32.576  17.884   1.628  0.00  0.00    -0.089 NA
ATOM     22  N   UNL     1     -31.048  18.874   0.561  0.00  0.00    -0.140 N 
ATOM     23  N   UNL     1     -31.303  17.765   1.269  0.00  0.00    -0.022 NA
ATOM     24  C   UNL     1     -33.004  19.067   1.104  0.00  0.00    +0.081 C 
ATOM     25  H   UNL     1     -30.164  19.049   0.167  0.00  0.00    +0.197 HD
ENDBRANCH  19  24
ENDBRANCH  18  19
ENDBRANCH  17  18
ENDBRANCH   5  17
TORSDOF 6
ENDMDL
MODEL 3
REMARK VINA RESULT:      -6.0      1.597      2.432
REMARK  Name = 57340714
REMARK  6 active torsions:
REMARK  status: ('A' for Active; 'I' for Inactive)
REMARK    1  A    between atoms: C_5  and  C_17
REMARK    2  A    between atoms: CA_10  and  C_14
REMARK    3  A    between atoms: C_14  and  O_15
REMARK    4  A    between atoms: C_17  and  O_18
REMARK    5  A    between atoms: O_18  and  C_19
REMARK    6  A    between atoms: C_19  and  C_24
REMARK                            x       y       z     vdW  Elec       q    Type
REMARK                         _______ _______ _______ _____ _____    ______ ____
ROOT
ATOM      1  N   UNL     1     -36.007  22.140   3.268  0.00  0.00    +0.392 N 
ATOM      2  C   UNL     1     -35.960  24.859   4.386  0.00  0.00    -0.003 C 
ATOM      3  C   UNL     1     -36.964  24.446   3.293  0.00  0.00    -0.021 C 
ATOM      4  C   UNL     1     -35.620  26.356   4.299  0.00  0.00    +0.002 C 
ATOM      5  C   UNL     1     -35.188  26.808   2.897  0.00  0.00    +0.030 C 
ATOM      6  C   UNL     1     -36.503  24.889   1.893  0.00  0.00    -0.002 C 
ATOM      7  C   UNL     1     -34.698  23.976   4.346  0.00  0.00    -0.011 C 
ATOM      8  C   UNL     1     -36.221  26.389   1.845  0.00  0.00    +0.002 C 
ATOM      9  C   UNL     1     -37.230  22.935   3.356  0.00  0.00    -0.081 C 
ATOM     10  CA  UNL     1     -35.012  22.480   4.284  0.00  0.00    +0.040 C 
ATOM     11  H1  UNL     1     -35.591  22.288   2.348  0.00  0.00    -0.084 HD
ATOM     12  H2  UNL     1     -36.272  21.168   3.423  0.00  0.00    -0.084 HD
ENDROOT
BRANCH  10  14
ATOM     13  OXT UNL     1     -35.925  22.609   6.519  0.00  0.00    -0.253 OA
ATOM     14  C   UNL     1     -35.466  21.939   5.607  0.00  0.00    +0.293 C 
BRANCH  14  15
ATOM     15  O   UNL     1     -35.293  20.596   5.659  0.00  0.00    -0.482 OA
ATOM     16  H   UNL     1     -34.595  20.193   5.179  0.00  0.00    +0.295 HD
ENDBRANCH  14  15
ENDBRANCH  10  14
BRANCH   5  17
ATOM     17  C   UNL     1     -34.972  28.321   2.864  0.00  0.00    +0.143 C 
BRANCH  17  18
ATOM     18  O   UNL     1     -34.084  28.669   3.910  0.00  0.00    -0.339 OA
BRANCH  18  19
ATOM     19  C   UNL     1     -32.732  28.382   3.572  0.00  0.00    +0.244 C 
BRANCH  19  24
ATOM     20  N   UNL     1     -32.501  28.189   6.045  0.00  0.00    -0.112 NA
ATOM     21  N   UNL     1     -30.587  28.031   4.845  0.00  0.00    -0.089 NA
ATOM     22  N   UNL     1     -31.402  28.002   6.791  0.00  0.00    -0.140 N 
ATOM     23  N   UNL     1     -30.245  27.903   6.122  0.00  0.00    -0.022 NA
ATOM     24  C   UNL     1     -31.939  28.201   4.834  0.00  0.00    +0.081 C 
ATOM     25  H   UNL     1     -31.443  27.942   7.772  0.00  0.00    +0.197 HD
ENDBRANCH  19  24
ENDBRANCH  18  19
ENDBRANCH  17  18
ENDBRANCH   5  17
TORSDOF 6
ENDMDL
MODEL 4
REMARK VINA RESULT:      -5.9      1.551      1.657
REMARK  Name = 57340714
REMARK  6 active torsions:
REMARK  status: ('A' for Active; 'I' for Inactive)
REMARK    1  A    between atoms: C_5  and  C_17
REMARK    2  A    between atoms: CA_10  and  C_14
REMARK    3  A    between atoms: C_14  and  O_15
REMARK    4  A    between atoms: C_17  and  O_18
REMARK    5  A    between atoms: O_18  and  C_19
REMARK    6  A    between atoms: C_19  and  C_24
REMARK                            x       y       z     vdW  Elec       q    Type
REMARK                         _______ _______ _______ _____ _____    ______ ____
ROOT
ATOM      1  N   UNL     1     -36.702  22.905   4.472  0.00  0.00    +0.392 N 
ATOM      2  C   UNL     1     -34.323  24.310   3.469  0.00  0.00    -0.003 C 
ATOM      3  C   UNL     1     -34.456  23.887   4.944  0.00  0.00    -0.021 C 
ATOM      4  C   UNL     1     -33.452  25.569   3.322  0.00  0.00    +0.002 C 
ATOM      5  C   UNL     1     -33.885  26.726   4.233  0.00  0.00    +0.030 C 
ATOM      6  C   UNL     1     -34.912  25.055   5.837  0.00  0.00    -0.002 C 
ATOM      7  C   UNL     1     -35.706  24.485   2.812  0.00  0.00    -0.011 C 
ATOM      8  C   UNL     1     -33.991  26.264   5.691  0.00  0.00    +0.002 C 
ATOM      9  C   UNL     1     -35.389  22.674   5.069  0.00  0.00    -0.081 C 
ATOM     10  CA  UNL     1     -36.646  23.304   3.067  0.00  0.00    +0.040 C 
ATOM     11  H1  UNL     1     -37.171  23.642   4.998  0.00  0.00    -0.084 HD
ATOM     12  H2  UNL     1     -37.207  22.019   4.511  0.00  0.00    -0.084 HD
ENDROOT
BRANCH  10  14
ATOM     13  OXT UNL     1     -35.439  22.083   1.366  0.00  0.00    -0.253 OA
ATOM     14  C   UNL     1     -36.295  22.107   2.236  0.00  0.00    +0.293 C 
BRANCH  14  15
ATOM     15  O   UNL     1     -37.063  21.044   2.579  0.00  0.00    -0.482 OA
ATOM     16  H   UNL     1     -37.990  21.146   2.672  0.00  0.00    +0.295 HD
ENDBRANCH  14  15
ENDBRANCH  10  14
BRANCH   5  17
ATOM     17  C   UNL     1     -32.912  27.898   4.110  0.00  0.00    +0.143 C 
BRANCH  17  18
ATOM     18  O   UNL     1     -31.821  27.667   4.981  0.00  0.00    -0.339 OA
BRANCH  18  19
ATOM     19  C   UNL     1     -30.744  28.562   4.727  0.00  0.00    +0.244 C 
BRANCH  19  24
ATOM     20  N   UNL     1     -29.223  27.483   6.379  0.00  0.00    -0.112 NA
ATOM     21  N   UNL     1     -29.544  29.712   6.620  0.00  0.00    -0.089 NA
ATOM     22  N   UNL     1     -28.552  28.024   7.407  0.00  0.00    -0.140 N 
ATOM     23  N   UNL     1     -28.713  29.342   7.587  0.00  0.00    -0.022 NA
ATOM     24  C   UNL     1     -29.830  28.579   5.918  0.00  0.00    +0.081 C 
ATOM     25  H   UNL     1     -27.975  27.484   7.994  0.00  0.00    +0.197 HD
ENDBRANCH  19  24
ENDBRANCH  18  19
ENDBRANCH  17  18
ENDBRANCH   5  17
TORSDOF 6
ENDMDL
MODEL 5
REMARK VINA RESULT:      -5.8      2.152      2.836
REMARK  Name = 57340714
REMARK  6 active torsions:
REMARK  status: ('A' for Active; 'I' for Inactive)
REMARK    1  A    between atoms: C_5  and  C_17
REMARK    2  A    between atoms: CA_10  and  C_14
REMARK    3  A    between atoms: C_14  and  O_15
REMARK    4  A    between atoms: C_17  and  O_18
REMARK    5  A    between atoms: O_18  and  C_19
REMARK    6  A    between atoms: C_19  and  C_24
REMARK                            x       y       z     vdW  Elec       q    Type
REMARK                         _______ _______ _______ _____ _____    ______ ____
ROOT
ATOM      1  N   UNL     1     -36.300  23.227   3.686  0.00  0.00    +0.392 N 
ATOM      2  C   UNL     1     -34.792  25.091   5.387  0.00  0.00    -0.003 C 
ATOM      3  C   UNL     1     -36.045  25.533   4.608  0.00  0.00    -0.021 C 
ATOM      4  C   UNL     1     -33.812  26.260   5.583  0.00  0.00    +0.002 C 
ATOM      5  C   UNL     1     -33.470  26.999   4.282  0.00  0.00    +0.030 C 
ATOM      6  C   UNL     1     -35.682  26.252   3.297  0.00  0.00    -0.002 C 
ATOM      7  C   UNL     1     -34.119  23.877   4.718  0.00  0.00    -0.011 C 
ATOM      8  C   UNL     1     -34.744  27.431   3.547  0.00  0.00    +0.002 C 
ATOM      9  C   UNL     1     -36.972  24.333   4.363  0.00  0.00    -0.081 C 
ATOM     10  CA  UNL     1     -35.102  22.755   4.379  0.00  0.00    +0.040 C 
ATOM     11  H1  UNL     1     -36.030  23.536   2.752  0.00  0.00    -0.084 HD
ATOM     12  H2  UNL     1     -36.958  22.447   3.663  0.00  0.00    -0.084 HD
ENDROOT
BRANCH  10  14
ATOM     13  OXT UNL     1     -35.979  22.464   6.613  0.00  0.00    -0.253 OA
ATOM     14  C   UNL     1     -35.519  21.978   5.592  0.00  0.00    +0.293 C 
BRANCH  14  15
ATOM     15  O   UNL     1     -35.312  20.652   5.405  0.00  0.00    -0.482 OA
ATOM     16  H   UNL     1     -34.488  20.268   5.638  0.00  0.00    +0.295 HD
ENDBRANCH  14  15
ENDBRANCH  10  14
BRANCH   5  17
ATOM     17  C   UNL     1     -32.580  28.208   4.570  0.00  0.00    +0.143 C 
BRANCH  17  18
ATOM     18  O   UNL     1     -31.776  27.914   5.697  0.00  0.00    -0.339 OA
BRANCH  18  19
ATOM     19  C   UNL     1     -31.057  29.057   6.146  0.00  0.00    +0.244 C 
BRANCH  19  24
ATOM     20  N   UNL     1     -29.239  27.388   6.482  0.00  0.00    -0.112 NA
ATOM     21  N   UNL     1     -28.881  29.448   7.350  0.00  0.00    -0.089 NA
ATOM     22  N   UNL     1     -28.059  27.519   7.107  0.00  0.00    -0.140 N 
ATOM     23  N   UNL     1     -27.805  28.723   7.637  0.00  0.00    -0.022 NA
ATOM     24  C   UNL     1     -29.717  28.621   6.662  0.00  0.00    +0.081 C 
ATOM     25  H   UNL     1     -27.419  26.775   7.172  0.00  0.00    +0.197 HD
ENDBRANCH  19  24
ENDBRANCH  18  19
ENDBRANCH  17  18
ENDBRANCH   5  17
TORSDOF 6
ENDMDL
MODEL 6
REMARK VINA RESULT:      -5.8      1.962      2.717
REMARK  Name = 57340714
REMARK  6 active torsions:
REMARK  status: ('A' for Active; 'I' for Inactive)
REMARK    1  A    between atoms: C_5  and  C_17
REMARK    2  A    between atoms: CA_10  and  C_14
REMARK    3  A    between atoms: C_14  and  O_15
REMARK    4  A    between atoms: C_17  and  O_18
REMARK    5  A    between atoms: O_18  and  C_19
REMARK    6  A    between atoms: C_19  and  C_24
REMARK                            x       y       z     vdW  Elec       q    Type
REMARK                         _______ _______ _______ _____ _____    ______ ____
ROOT
ATOM      1  N   UNL     1     -37.037  20.374   2.566  0.00  0.00    +0.392 N 
ATOM      2  C   UNL     1     -36.216  23.197   2.581  0.00  0.00    -0.003 C 
ATOM      3  C   UNL     1     -35.345  22.093   3.209  0.00  0.00    -0.021 C 
ATOM      4  C   UNL     1     -36.009  24.547   3.288  0.00  0.00    +0.002 C 
ATOM      5  C   UNL     1     -36.160  24.469   4.814  0.00  0.00    +0.030 C 
ATOM      6  C   UNL     1     -35.526  22.017   4.735  0.00  0.00    -0.002 C 
ATOM      7  C   UNL     1     -37.700  22.784   2.546  0.00  0.00    -0.011 C 
ATOM      8  C   UNL     1     -35.266  23.369   5.397  0.00  0.00    +0.002 C 
ATOM      9  C   UNL     1     -35.624  20.743   2.533  0.00  0.00    -0.081 C 
ATOM     10  CA  UNL     1     -37.920  21.380   1.978  0.00  0.00    +0.040 C 
ATOM     11  H1  UNL     1     -37.311  20.234   3.538  0.00  0.00    -0.084 HD
ATOM     12  H2  UNL     1     -37.137  19.526   2.008  0.00  0.00    -0.084 HD
ENDROOT
BRANCH  10  14
ATOM     13  OXT UNL     1     -37.516  22.303  -0.220  0.00  0.00    -0.253 OA
ATOM     14  C   UNL     1     -37.774  21.341   0.486  0.00  0.00    +0.293 C 
BRANCH  14  15
ATOM     15  O   UNL     1     -37.971  20.084   0.019  0.00  0.00    -0.482 OA
ATOM     16  H   UNL     1     -37.291  19.442   0.099  0.00  0.00    +0.295 HD
ENDBRANCH  14  15
ENDBRANCH  10  14
BRANCH   5  17
ATOM     17  C   UNL     1     -35.836  25.819   5.454  0.00  0.00    +0.143 C 
BRANCH  17  18
ATOM     18  O   UNL     1     -34.435  25.905   5.633  0.00  0.00    -0.339 OA
BRANCH  18  19
ATOM     19  C   UNL     1     -33.852  26.885   4.783  0.00  0.00    +0.244 C 
BRANCH  19  24
ATOM     20  N   UNL     1     -32.561  27.719   6.743  0.00  0.00    -0.112 NA
ATOM     21  N   UNL     1     -31.464  27.685   4.763  0.00  0.00    -0.089 NA
ATOM     22  N   UNL     1     -31.296  28.159   6.813  0.00  0.00    -0.140 N 
ATOM     23  N   UNL     1     -30.608  28.156   5.663  0.00  0.00    -0.022 NA
ATOM     24  C   UNL     1     -32.620  27.435   5.441  0.00  0.00    +0.081 C 
ATOM     25  H   UNL     1     -30.897  28.465   7.658  0.00  0.00    +0.197 HD
ENDBRANCH  19  24
ENDBRANCH  18  19
ENDBRANCH  17  18
ENDBRANCH   5  17
TORSDOF 6
ENDMDL
MODEL 7
REMARK VINA RESULT:      -5.8      1.827      2.288
REMARK  Name = 57340714
REMARK  6 active torsions:
REMARK  status: ('A' for Active; 'I' for Inactive)
REMARK    1  A    between atoms: C_5  and  C_17
REMARK    2  A    between atoms: CA_10  and  C_14
REMARK    3  A    between atoms: C_14  and  O_15
REMARK    4  A    between atoms: C_17  and  O_18
REMARK    5  A    between atoms: O_18  and  C_19
REMARK    6  A    between atoms: C_19  and  C_24
REMARK                            x       y       z     vdW  Elec       q    Type
REMARK                         _______ _______ _______ _____ _____    ______ ____
ROOT
ATOM      1  N   UNL     1     -36.637  22.537   4.461  0.00  0.00    +0.392 N 
ATOM      2  C   UNL     1     -34.296  24.066   3.556  0.00  0.00    -0.003 C 
ATOM      3  C   UNL     1     -34.597  23.849   5.051  0.00  0.00    -0.021 C 
ATOM      4  C   UNL     1     -33.546  25.388   3.320  0.00  0.00    +0.002 C 
ATOM      5  C   UNL     1     -34.225  26.603   3.970  0.00  0.00    +0.030 C 
ATOM      6  C   UNL     1     -35.296  25.068   5.678  0.00  0.00    -0.002 C 
ATOM      7  C   UNL     1     -35.578  23.969   2.708  0.00  0.00    -0.011 C 
ATOM      8  C   UNL     1     -34.493  26.348   5.457  0.00  0.00    +0.002 C 
ATOM      9  C   UNL     1     -35.408  22.561   5.250  0.00  0.00    -0.081 C 
ATOM     10  CA  UNL     1     -36.419  22.731   3.028  0.00  0.00    +0.040 C 
ATOM     11  H1  UNL     1     -37.251  23.279   4.797  0.00  0.00    -0.084 HD
ATOM     12  H2  UNL     1     -37.048  21.610   4.577  0.00  0.00    -0.084 HD
ENDROOT
BRANCH  10  14
ATOM     13  OXT UNL     1     -34.932  21.441   1.625  0.00  0.00    -0.253 OA
ATOM     14  C   UNL     1     -35.829  21.479   2.453  0.00  0.00    +0.293 C 
BRANCH  14  15
ATOM     15  O   UNL     1     -36.431  20.383   2.976  0.00  0.00    -0.482 OA
ATOM     16  H   UNL     1     -37.335  20.212   2.793  0.00  0.00    +0.295 HD
ENDBRANCH  14  15
ENDBRANCH  10  14
BRANCH   5  17
ATOM     17  C   UNL     1     -33.370  27.856   3.785  0.00  0.00    +0.143 C 
BRANCH  17  18
ATOM     18  O   UNL     1     -32.070  27.588   4.276  0.00  0.00    -0.339 OA
BRANCH  18  19
ATOM     19  C   UNL     1     -31.065  28.190   3.467  0.00  0.00    +0.244 C 
BRANCH  19  24
ATOM     20  N   UNL     1     -29.692  26.388   2.430  0.00  0.00    -0.112 NA
ATOM     21  N   UNL     1     -28.882  27.291   4.342  0.00  0.00    -0.089 NA
ATOM     22  N   UNL     1     -28.527  25.859   2.833  0.00  0.00    -0.140 N 
ATOM     23  N   UNL     1     -28.010  26.364   3.962  0.00  0.00    -0.022 NA
ATOM     24  C   UNL     1     -29.874  27.279   3.408  0.00  0.00    +0.081 C 
ATOM     25  H   UNL     1     -28.079  25.143   2.330  0.00  0.00    +0.197 HD
ENDBRANCH  19  24
ENDBRANCH  18  19
ENDBRANCH  17  18
ENDBRANCH   5  17
TORSDOF 6
ENDMDL
MODEL 8
REMARK VINA RESULT:      -5.6      3.946      7.949
REMARK  Name = 57340714
REMARK  6 active torsions:
REMARK  status: ('A' for Active; 'I' for Inactive)
REMARK    1  A    between atoms: C_5  and  C_17
REMARK    2  A    between atoms: CA_10  and  C_14
REMARK    3  A    between atoms: C_14  and  O_15
REMARK    4  A    between atoms: C_17  and  O_18
REMARK    5  A    between atoms: O_18  and  C_19
REMARK    6  A    between atoms: C_19  and  C_24
REMARK                            x       y       z     vdW  Elec       q    Type
REMARK                         _______ _______ _______ _____ _____    ______ ____
ROOT
ATOM      1  N   UNL     1     -37.012  25.010   4.772  0.00  0.00    +0.392 N 
ATOM      2  C   UNL     1     -35.546  23.278   2.904  0.00  0.00    -0.003 C 
ATOM      3  C   UNL     1     -36.859  23.978   2.505  0.00  0.00    -0.021 C 
ATOM      4  C   UNL     1     -35.359  21.956   2.140  0.00  0.00    +0.002 C 
ATOM      5  C   UNL     1     -36.576  21.023   2.221  0.00  0.00    +0.030 C 
ATOM      6  C   UNL     1     -38.068  23.033   2.613  0.00  0.00    -0.002 C 
ATOM      7  C   UNL     1     -35.460  23.081   4.429  0.00  0.00    -0.011 C 
ATOM      8  C   UNL     1     -37.856  21.756   1.803  0.00  0.00    +0.002 C 
ATOM      9  C   UNL     1     -37.055  25.256   3.333  0.00  0.00    -0.081 C 
ATOM     10  CA  UNL     1     -35.785  24.351   5.219  0.00  0.00    +0.040 C 
ATOM     11  H1  UNL     1     -37.804  24.419   5.023  0.00  0.00    -0.084 HD
ATOM     12  H2  UNL     1     -37.046  25.921   5.231  0.00  0.00    -0.084 HD
ENDROOT
BRANCH  10  14
ATOM     13  OXT UNL     1     -33.521  25.102   4.825  0.00  0.00    -0.253 OA
ATOM     14  C   UNL     1     -34.662  25.345   5.186  0.00  0.00    +0.293 C 
BRANCH  14  15
ATOM     15  O   UNL     1     -35.084  26.558   5.619  0.00  0.00    -0.482 OA
ATOM     16  H   UNL     1     -35.513  26.637   6.450  0.00  0.00    +0.295 HD
ENDBRANCH  14  15
ENDBRANCH  10  14
BRANCH   5  17
ATOM     17  C   UNL     1     -36.360  19.783   1.353  0.00  0.00    +0.143 C 
BRANCH  17  18
ATOM     18  O   UNL     1     -34.974  19.499   1.318  0.00  0.00    -0.339 OA
BRANCH  18  19
ATOM     19  C   UNL     1     -34.628  18.699   0.192  0.00  0.00    +0.244 C 
BRANCH  19  24
ATOM     20  N   UNL     1     -33.172  16.678   0.140  0.00  0.00    -0.112 NA
ATOM     21  N   UNL     1     -32.305  18.512   1.147  0.00  0.00    -0.089 NA
ATOM     22  N   UNL     1     -31.933  16.502   0.622  0.00  0.00    -0.140 N 
ATOM     23  N   UNL     1     -31.380  17.562   1.227  0.00  0.00    -0.022 NA
ATOM     24  C   UNL     1     -33.362  17.951   0.493  0.00  0.00    +0.081 C 
ATOM     25  H   UNL     1     -31.458  15.644   0.536  0.00  0.00    +0.197 HD
ENDBRANCH  19  24
ENDBRANCH  18  19
ENDBRANCH  17  18
ENDBRANCH   5  17
TORSDOF 6
ENDMDL
MODEL 9
REMARK VINA RESULT:      -5.5      4.043      8.865
REMARK  Name = 57340714
REMARK  6 active torsions:
REMARK  status: ('A' for Active; 'I' for Inactive)
REMARK    1  A    between atoms: C_5  and  C_17
REMARK    2  A    between atoms: CA_10  and  C_14
REMARK    3  A    between atoms: C_14  and  O_15
REMARK    4  A    between atoms: C_17  and  O_18
REMARK    5  A    between atoms: O_18  and  C_19
REMARK    6  A    between atoms: C_19  and  C_24
REMARK                            x       y       z     vdW  Elec       q    Type
REMARK                         _______ _______ _______ _____ _____    ______ ____
ROOT
ATOM      1  N   UNL     1     -37.173  24.883   4.705  0.00  0.00    +0.392 N 
ATOM      2  C   UNL     1     -35.501  23.411   2.787  0.00  0.00    -0.003 C 
ATOM      3  C   UNL     1     -36.930  23.865   2.439  0.00  0.00    -0.021 C 
ATOM      4  C   UNL     1     -35.115  22.133   2.024  0.00  0.00    +0.002 C 
ATOM      5  C   UNL     1     -36.145  21.003   2.160  0.00  0.00    +0.030 C 
ATOM      6  C   UNL     1     -37.950  22.725   2.601  0.00  0.00    -0.002 C 
ATOM      7  C   UNL     1     -35.321  23.252   4.309  0.00  0.00    -0.011 C 
ATOM      8  C   UNL     1     -37.549  21.495   1.790  0.00  0.00    +0.002 C 
ATOM      9  C   UNL     1     -37.316  25.099   3.267  0.00  0.00    -0.081 C 
ATOM     10  CA  UNL     1     -35.833  24.455   5.104  0.00  0.00    +0.040 C 
ATOM     11  H1  UNL     1     -37.839  24.165   4.991  0.00  0.00    -0.084 HD
ATOM     12  H2  UNL     1     -37.348  25.779   5.160  0.00  0.00    -0.084 HD
ENDROOT
BRANCH  10  14
ATOM     13  OXT UNL     1     -35.246  26.800   5.068  0.00  0.00    -0.253 OA
ATOM     14  C   UNL     1     -34.904  25.629   5.020  0.00  0.00    +0.293 C 
BRANCH  14  15
ATOM     15  O   UNL     1     -33.621  25.215   4.879  0.00  0.00    -0.482 OA
ATOM     16  H   UNL     1     -33.347  24.803   4.082  0.00  0.00    +0.295 HD
ENDBRANCH  14  15
ENDBRANCH  10  14
BRANCH   5  17
ATOM     17  C   UNL     1     -35.749  19.809   1.291  0.00  0.00    +0.143 C 
BRANCH  17  18
ATOM     18  O   UNL     1     -36.694  19.682   0.246  0.00  0.00    -0.339 OA
BRANCH  18  19
ATOM     19  C   UNL     1     -36.235  18.809  -0.780  0.00  0.00    +0.244 C 
BRANCH  19  24
ATOM     20  N   UNL     1     -35.505  16.493  -0.225  0.00  0.00    -0.112 NA
ATOM     21  N   UNL     1     -37.727  16.903  -0.087  0.00  0.00    -0.089 NA
ATOM     22  N   UNL     1     -36.234  15.431   0.150  0.00  0.00    -0.140 N 
ATOM     23  N   UNL     1     -37.556  15.628   0.245  0.00  0.00    -0.022 NA
ATOM     24  C   UNL     1     -36.484  17.389  -0.362  0.00  0.00    +0.081 C 
ATOM     25  H   UNL     1     -35.822  14.559   0.344  0.00  0.00    +0.197 HD
ENDBRANCH  19  24
ENDBRANCH  18  19
ENDBRANCH  17  18
ENDBRANCH   5  17
TORSDOF 6
ENDMDL
