MODEL 1
REMARK VINA RESULT:      -6.6      0.000      0.000
REMARK  Name = 5834
REMARK  6 active torsions:
REMARK  status: ('A' for Active; 'I' for Inactive)
REMARK    1  A    between atoms: C_6  and  O_21
REMARK    2  A    between atoms: C_6  and  C_26
REMARK    3  A    between atoms: C_9  and  O_23
REMARK    4  A    between atoms: C_26  and  C_27
REMARK    5  A    between atoms: C_27  and  O_28
REMARK    6  A    between atoms: O_28  and  C_30
REMARK                            x       y       z     vdW  Elec       q    Type
REMARK                         _______ _______ _______ _____ _____    ______ ____
ROOT
ATOM      1  O   UNL     1     -34.935  20.900   5.978  0.00  0.00    -0.287 OA
ATOM      2  C   UNL     1     -39.705  25.636   1.237  0.00  0.00    +0.031 C 
ATOM      3  C   UNL     1     -39.239  24.186   0.985  0.00  0.00    +0.003 C 
ATOM      4  C   UNL     1     -37.760  23.947   1.325  0.00  0.00    +0.003 C 
ATOM      5  C   UNL     1     -37.536  24.259   2.848  0.00  0.00    +0.034 C 
ATOM      6  C   UNL     1     -41.172  25.522   0.738  0.00  0.00    +0.143 C 
ATOM      7  C   UNL     1     -39.522  25.927   2.741  0.00  0.00    +0.032 C 
ATOM      8  C   UNL     1     -39.725  23.898  -0.433  0.00  0.00    +0.003 C 
ATOM      9  C   UNL     1     -38.082  25.669   3.238  0.00  0.00    +0.111 C 
ATOM     10  C   UNL     1     -36.062  23.932   3.313  0.00  0.00    +0.036 C 
ATOM     11  C   UNL     1     -41.074  24.640  -0.529  0.00  0.00    +0.034 C 
ATOM     12  C   UNL     1     -37.357  22.500   0.990  0.00  0.00    +0.004 C 
ATOM     13  C   UNL     1     -38.944  26.684   0.377  0.00  0.00    +0.003 C 
ATOM     14  C   UNL     1     -35.934  22.177   1.429  0.00  0.00    +0.022 C 
ATOM     15  C   UNL     1     -35.759  22.489   2.893  0.00  0.00    -0.038 C 
ATOM     16  C   UNL     1     -34.987  24.851   2.689  0.00  0.00    +0.009 C 
ATOM     17  C   UNL     1     -35.942  24.102   4.821  0.00  0.00    -0.020 C 
ATOM     18  C   UNL     1     -35.401  21.522   3.751  0.00  0.00    +0.034 C 
ATOM     19  C   UNL     1     -35.588  23.142   5.681  0.00  0.00    +0.038 C 
ATOM     20  C   UNL     1     -35.278  21.784   5.200  0.00  0.00    +0.195 C 
ENDROOT
BRANCH   6  21
ATOM     21  O   UNL     1     -41.997  24.873   1.701  0.00  0.00    -0.380 OA
ATOM     22  H   UNL     1     -42.797  25.402   1.851  0.00  0.00    +0.211 HD
ENDBRANCH   6  21
BRANCH   9  23
ATOM     23  O   UNL     1     -37.224  26.702   2.771  0.00  0.00    -0.384 OA
ATOM     24  H   UNL     1     -36.646  26.993   3.493  0.00  0.00    +0.210 HD
ENDBRANCH   9  23
BRANCH   6  26
ATOM     25  O   UNL     1     -41.697  27.444  -0.567  0.00  0.00    -0.290 OA
ATOM     26  C   UNL     1     -41.852  26.834   0.490  0.00  0.00    +0.218 C 
BRANCH  26  27
ATOM     27  C   UNL     1     -42.730  27.357   1.606  0.00  0.00    +0.274 C 
BRANCH  27  28
ATOM     28  O   UNL     1     -41.964  28.082   2.545  0.00  0.00    -0.440 OA
BRANCH  28  30
ATOM     29  O   UNL     1     -42.047  28.824   4.732  0.00  0.00    -0.250 OA
ATOM     30  C   UNL     1     -42.438  28.092   3.832  0.00  0.00    +0.318 C 
ATOM     31  C   UNL     1     -43.520  27.068   3.994  0.00  0.00    +0.121 C 
ENDBRANCH  28  30
ENDBRANCH  27  28
ENDBRANCH  26  27
ENDBRANCH   6  26
TORSDOF 6
ENDMDL
MODEL 2
REMARK VINA RESULT:      -6.5      4.661      9.240
REMARK  Name = 5834
REMARK  6 active torsions:
REMARK  status: ('A' for Active; 'I' for Inactive)
REMARK    1  A    between atoms: C_6  and  O_21
REMARK    2  A    between atoms: C_6  and  C_26
REMARK    3  A    between atoms: C_9  and  O_23
REMARK    4  A    between atoms: C_26  and  C_27
REMARK    5  A    between atoms: C_27  and  O_28
REMARK    6  A    between atoms: O_28  and  C_30
REMARK                            x       y       z     vdW  Elec       q    Type
REMARK                         _______ _______ _______ _____ _____    ______ ____
ROOT
ATOM      1  O   UNL     1     -34.919  26.171   5.891  0.00  0.00    -0.287 OA
ATOM      2  C   UNL     1     -34.371  20.000   0.480  0.00  0.00    +0.031 C 
ATOM      3  C   UNL     1     -34.115  21.505   0.249  0.00  0.00    +0.003 C 
ATOM      4  C   UNL     1     -35.156  22.416   0.915  0.00  0.00    +0.003 C 
ATOM      5  C   UNL     1     -35.130  22.163   2.465  0.00  0.00    +0.034 C 
ATOM      6  C   UNL     1     -33.205  19.411  -0.361  0.00  0.00    +0.143 C 
ATOM      7  C   UNL     1     -34.305  19.747   2.000  0.00  0.00    +0.032 C 
ATOM      8  C   UNL     1     -33.908  21.602  -1.260  0.00  0.00    +0.003 C 
ATOM      9  C   UNL     1     -35.267  20.646   2.808  0.00  0.00    +0.111 C 
ATOM     10  C   UNL     1     -36.096  23.141   3.245  0.00  0.00    +0.036 C 
ATOM     11  C   UNL     1     -33.162  20.302  -1.625  0.00  0.00    +0.034 C 
ATOM     12  C   UNL     1     -34.869  23.892   0.588  0.00  0.00    +0.004 C 
ATOM     13  C   UNL     1     -35.728  19.512  -0.100  0.00  0.00    +0.003 C 
ATOM     14  C   UNL     1     -35.799  24.842   1.332  0.00  0.00    +0.022 C 
ATOM     15  C   UNL     1     -35.746  24.569   2.814  0.00  0.00    -0.038 C 
ATOM     16  C   UNL     1     -37.596  22.905   2.960  0.00  0.00    +0.009 C 
ATOM     17  C   UNL     1     -35.916  22.961   4.746  0.00  0.00    -0.020 C 
ATOM     18  C   UNL     1     -35.368  25.535   3.665  0.00  0.00    +0.034 C 
ATOM     19  C   UNL     1     -35.537  23.918   5.599  0.00  0.00    +0.038 C 
ATOM     20  C   UNL     1     -35.250  25.280   5.115  0.00  0.00    +0.195 C 
ENDROOT
BRANCH   6  21
ATOM     21  O   UNL     1     -31.964  19.515   0.331  0.00  0.00    -0.380 OA
ATOM     22  H   UNL     1     -31.917  20.371   0.784  0.00  0.00    +0.211 HD
ENDBRANCH   6  21
BRANCH   9  23
ATOM     23  O   UNL     1     -36.603  20.194   2.630  0.00  0.00    -0.384 OA
ATOM     24  H   UNL     1     -36.599  19.249   2.413  0.00  0.00    +0.210 HD
ENDBRANCH   9  23
BRANCH   6  26
ATOM     25  O   UNL     1     -33.666  17.566  -1.795  0.00  0.00    -0.290 OA
ATOM     26  C   UNL     1     -33.335  17.952  -0.675  0.00  0.00    +0.218 C 
BRANCH  26  27
ATOM     27  C   UNL     1     -33.038  16.993   0.457  0.00  0.00    +0.274 C 
BRANCH  27  28
ATOM     28  O   UNL     1     -31.645  16.829   0.620  0.00  0.00    -0.440 OA
BRANCH  28  30
ATOM     29  O   UNL     1     -31.318  14.588   0.156  0.00  0.00    -0.250 OA
ATOM     30  C   UNL     1     -31.079  15.771  -0.047  0.00  0.00    +0.318 C 
ATOM     31  C   UNL     1     -30.111  16.268  -1.078  0.00  0.00    +0.121 C 
ENDBRANCH  28  30
ENDBRANCH  27  28
ENDBRANCH  26  27
ENDBRANCH   6  26
TORSDOF 6
ENDMDL
MODEL 3
REMARK VINA RESULT:      -6.5      3.475      5.719
REMARK  Name = 5834
REMARK  6 active torsions:
REMARK  status: ('A' for Active; 'I' for Inactive)
REMARK    1  A    between atoms: C_6  and  O_21
REMARK    2  A    between atoms: C_6  and  C_26
REMARK    3  A    between atoms: C_9  and  O_23
REMARK    4  A    between atoms: C_26  and  C_27
REMARK    5  A    between atoms: C_27  and  O_28
REMARK    6  A    between atoms: O_28  and  C_30
REMARK                            x       y       z     vdW  Elec       q    Type
REMARK                         _______ _______ _______ _____ _____    ______ ____
ROOT
ATOM      1  O   UNL     1     -31.670  16.485   0.756  0.00  0.00    -0.287 OA
ATOM      2  C   UNL     1     -36.813  22.861   1.500  0.00  0.00    +0.031 C 
ATOM      3  C   UNL     1     -37.155  21.359   1.392  0.00  0.00    +0.003 C 
ATOM      4  C   UNL     1     -36.327  20.614   0.335  0.00  0.00    +0.003 C 
ATOM      5  C   UNL     1     -34.807  20.728   0.713  0.00  0.00    +0.034 C 
ATOM      6  C   UNL     1     -37.852  23.282   2.577  0.00  0.00    +0.143 C 
ATOM      7  C   UNL     1     -35.330  22.970   1.910  0.00  0.00    +0.032 C 
ATOM      8  C   UNL     1     -38.677  21.349   1.279  0.00  0.00    +0.003 C 
ATOM      9  C   UNL     1     -34.379  22.210   0.959  0.00  0.00    +0.111 C 
ATOM     10  C   UNL     1     -33.886  19.893  -0.263  0.00  0.00    +0.036 C 
ATOM     11  C   UNL     1     -39.133  22.507   2.190  0.00  0.00    +0.034 C 
ATOM     12  C   UNL     1     -36.768  19.142   0.245  0.00  0.00    +0.004 C 
ATOM     13  C   UNL     1     -37.080  23.648   0.186  0.00  0.00    +0.003 C 
ATOM     14  C   UNL     1     -35.889  18.331  -0.699  0.00  0.00    +0.022 C 
ATOM     15  C   UNL     1     -34.440  18.465  -0.305  0.00  0.00    -0.038 C 
ATOM     16  C   UNL     1     -33.845  20.437  -1.709  0.00  0.00    +0.009 C 
ATOM     17  C   UNL     1     -32.448  19.910   0.237  0.00  0.00    -0.020 C 
ATOM     18  C   UNL     1     -33.727  17.377   0.025  0.00  0.00    +0.034 C 
ATOM     19  C   UNL     1     -31.733  18.831   0.569  0.00  0.00    +0.038 C 
ATOM     20  C   UNL     1     -32.322  17.484   0.472  0.00  0.00    +0.195 C 
ENDROOT
BRANCH   6  21
ATOM     21  O   UNL     1     -37.436  22.884   3.880  0.00  0.00    -0.380 OA
ATOM     22  H   UNL     1     -37.238  21.934   3.881  0.00  0.00    +0.211 HD
ENDBRANCH   6  21
BRANCH   9  23
ATOM     23  O   UNL     1     -34.258  22.923  -0.264  0.00  0.00    -0.384 OA
ATOM     24  H   UNL     1     -34.888  22.566  -0.910  0.00  0.00    +0.210 HD
ENDBRANCH   9  23
BRANCH   6  26
ATOM     25  O   UNL     1     -39.147  25.272   2.387  0.00  0.00    -0.290 OA
ATOM     26  C   UNL     1     -38.070  24.760   2.691  0.00  0.00    +0.218 C 
BRANCH  26  27
ATOM     27  C   UNL     1     -36.899  25.574   3.196  0.00  0.00    +0.274 C 
BRANCH  27  28
ATOM     28  O   UNL     1     -36.736  25.403   4.588  0.00  0.00    -0.440 OA
BRANCH  28  30
ATOM     29  O   UNL     1     -34.890  26.696   5.102  0.00  0.00    -0.250 OA
ATOM     30  C   UNL     1     -35.473  25.620   5.079  0.00  0.00    +0.318 C 
ATOM     31  C   UNL     1     -34.890  24.339   5.595  0.00  0.00    +0.121 C 
ENDBRANCH  28  30
ENDBRANCH  27  28
ENDBRANCH  26  27
ENDBRANCH   6  26
TORSDOF 6
ENDMDL
MODEL 4
REMARK VINA RESULT:      -6.3      4.277      7.165
REMARK  Name = 5834
REMARK  6 active torsions:
REMARK  status: ('A' for Active; 'I' for Inactive)
REMARK    1  A    between atoms: C_6  and  O_21
REMARK    2  A    between atoms: C_6  and  C_26
REMARK    3  A    between atoms: C_9  and  O_23
REMARK    4  A    between atoms: C_26  and  C_27
REMARK    5  A    between atoms: C_27  and  O_28
REMARK    6  A    between atoms: O_28  and  C_30
REMARK                            x       y       z     vdW  Elec       q    Type
REMARK                         _______ _______ _______ _____ _____    ______ ____
ROOT
ATOM      1  O   UNL     1     -32.077  33.459   2.980  0.00  0.00    -0.287 OA
ATOM      2  C   UNL     1     -35.159  25.845   3.420  0.00  0.00    +0.031 C 
ATOM      3  C   UNL     1     -34.328  26.607   4.475  0.00  0.00    +0.003 C 
ATOM      4  C   UNL     1     -33.140  27.379   3.883  0.00  0.00    +0.003 C 
ATOM      5  C   UNL     1     -33.684  28.434   2.856  0.00  0.00    +0.034 C 
ATOM      6  C   UNL     1     -36.191  25.158   4.356  0.00  0.00    +0.143 C 
ATOM      7  C   UNL     1     -35.726  26.888   2.435  0.00  0.00    +0.032 C 
ATOM      8  C   UNL     1     -34.063  25.553   5.547  0.00  0.00    +0.003 C 
ATOM      9  C   UNL     1     -34.636  27.783   1.803  0.00  0.00    +0.111 C 
ATOM     10  C   UNL     1     -32.535  29.352   2.278  0.00  0.00    +0.036 C 
ATOM     11  C   UNL     1     -35.355  24.711   5.578  0.00  0.00    +0.034 C 
ATOM     12  C   UNL     1     -32.328  28.058   5.000  0.00  0.00    +0.004 C 
ATOM     13  C   UNL     1     -34.342  24.761   2.662  0.00  0.00    +0.003 C 
ATOM     14  C   UNL     1     -31.213  28.941   4.452  0.00  0.00    +0.022 C 
ATOM     15  C   UNL     1     -31.775  29.940   3.472  0.00  0.00    -0.038 C 
ATOM     16  C   UNL     1     -31.522  28.604   1.383  0.00  0.00    +0.009 C 
ATOM     17  C   UNL     1     -33.134  30.453   1.413  0.00  0.00    -0.020 C 
ATOM     18  C   UNL     1     -31.633  31.255   3.694  0.00  0.00    +0.034 C 
ATOM     19  C   UNL     1     -32.998  31.765   1.629  0.00  0.00    +0.038 C 
ATOM     20  C   UNL     1     -32.223  32.257   2.782  0.00  0.00    +0.195 C 
ENDROOT
BRANCH   6  21
ATOM     21  O   UNL     1     -37.195  26.075   4.781  0.00  0.00    -0.380 OA
ATOM     22  H   UNL     1     -37.047  26.308   5.711  0.00  0.00    +0.211 HD
ENDBRANCH   6  21
BRANCH   9  23
ATOM     23  O   UNL     1     -33.906  27.036   0.839  0.00  0.00    -0.384 OA
ATOM     24  H   UNL     1     -33.028  26.823   1.192  0.00  0.00    +0.210 HD
ENDBRANCH   9  23
BRANCH   6  26
ATOM     25  O   UNL     1     -36.673  22.860   3.955  0.00  0.00    -0.290 OA
ATOM     26  C   UNL     1     -36.956  24.035   3.725  0.00  0.00    +0.218 C 
BRANCH  26  27
ATOM     27  C   UNL     1     -38.086  24.430   2.798  0.00  0.00    +0.274 C 
BRANCH  27  28
ATOM     28  O   UNL     1     -39.269  24.673   3.530  0.00  0.00    -0.440 OA
BRANCH  28  30
ATOM     29  O   UNL     1     -40.507  26.607   3.269  0.00  0.00    -0.250 OA
ATOM     30  C   UNL     1     -40.202  25.474   2.921  0.00  0.00    +0.318 C 
ATOM     31  C   UNL     1     -40.809  24.764   1.749  0.00  0.00    +0.121 C 
ENDBRANCH  28  30
ENDBRANCH  27  28
ENDBRANCH  26  27
ENDBRANCH   6  26
TORSDOF 6
ENDMDL
MODEL 5
REMARK VINA RESULT:      -6.2      6.564     10.459
REMARK  Name = 5834
REMARK  6 active torsions:
REMARK  status: ('A' for Active; 'I' for Inactive)
REMARK    1  A    between atoms: C_6  and  O_21
REMARK    2  A    between atoms: C_6  and  C_26
REMARK    3  A    between atoms: C_9  and  O_23
REMARK    4  A    between atoms: C_26  and  C_27
REMARK    5  A    between atoms: C_27  and  O_28
REMARK    6  A    between atoms: O_28  and  C_30
REMARK                            x       y       z     vdW  Elec       q    Type
REMARK                         _______ _______ _______ _____ _____    ______ ____
ROOT
ATOM      1  O   UNL     1     -39.471  36.004   2.157  0.00  0.00    -0.287 OA
ATOM      2  C   UNL     1     -33.429  30.453   2.739  0.00  0.00    +0.031 C 
ATOM      3  C   UNL     1     -33.325  31.993   2.776  0.00  0.00    +0.003 C 
ATOM      4  C   UNL     1     -34.201  32.695   1.728  0.00  0.00    +0.003 C 
ATOM      5  C   UNL     1     -35.702  32.315   1.989  0.00  0.00    +0.034 C 
ATOM      6  C   UNL     1     -32.398  30.102   3.847  0.00  0.00    +0.143 C 
ATOM      7  C   UNL     1     -34.896  30.081   3.036  0.00  0.00    +0.032 C 
ATOM      8  C   UNL     1     -31.820  32.247   2.768  0.00  0.00    +0.003 C 
ATOM      9  C   UNL     1     -35.902  30.769   2.086  0.00  0.00    +0.111 C 
ATOM     10  C   UNL     1     -36.688  33.083   1.022  0.00  0.00    +0.036 C 
ATOM     11  C   UNL     1     -31.237  31.096   3.614  0.00  0.00    +0.034 C 
ATOM     12  C   UNL     1     -33.995  34.219   1.786  0.00  0.00    +0.004 C 
ATOM     13  C   UNL     1     -32.968  29.839   1.388  0.00  0.00    +0.003 C 
ATOM     14  C   UNL     1     -34.938  34.968   0.853  0.00  0.00    +0.022 C 
ATOM     15  C   UNL     1     -36.367  34.577   1.134  0.00  0.00    -0.038 C 
ATOM     16  C   UNL     1     -36.562  32.673  -0.462  0.00  0.00    +0.009 C 
ATOM     17  C   UNL     1     -38.131  32.800   1.419  0.00  0.00    -0.020 C 
ATOM     18  C   UNL     1     -37.261  35.508   1.500  0.00  0.00    +0.034 C 
ATOM     19  C   UNL     1     -39.026  33.722   1.787  0.00  0.00    +0.038 C 
ATOM     20  C   UNL     1     -38.653  35.147   1.839  0.00  0.00    +0.195 C 
ENDROOT
BRANCH   6  21
ATOM     21  O   UNL     1     -32.944  30.311   5.147  0.00  0.00    -0.380 OA
ATOM     22  H   UNL     1     -32.593  31.137   5.516  0.00  0.00    +0.211 HD
ENDBRANCH   6  21
BRANCH   9  23
ATOM     23  O   UNL     1     -35.840  30.159   0.804  0.00  0.00    -0.384 OA
ATOM     24  H   UNL     1     -36.474  30.591   0.210  0.00  0.00    +0.210 HD
ENDBRANCH   9  23
BRANCH   6  26
ATOM     25  O   UNL     1     -31.225  28.222   2.974  0.00  0.00    -0.290 OA
ATOM     26  C   UNL     1     -31.954  28.670   3.857  0.00  0.00    +0.218 C 
BRANCH  26  27
ATOM     27  C   UNL     1     -32.453  27.821   5.006  0.00  0.00    +0.274 C 
BRANCH  27  28
ATOM     28  O   UNL     1     -33.794  27.434   4.794  0.00  0.00    -0.440 OA
BRANCH  28  30
ATOM     29  O   UNL     1     -33.326  25.179   4.605  0.00  0.00    -0.250 OA
ATOM     30  C   UNL     1     -34.066  26.096   4.933  0.00  0.00    +0.318 C 
ATOM     31  C   UNL     1     -35.418  25.904   5.551  0.00  0.00    +0.121 C 
ENDBRANCH  28  30
ENDBRANCH  27  28
ENDBRANCH  26  27
ENDBRANCH   6  26
TORSDOF 6
ENDMDL
MODEL 6
REMARK VINA RESULT:      -6.2      4.448      8.750
REMARK  Name = 5834
REMARK  6 active torsions:
REMARK  status: ('A' for Active; 'I' for Inactive)
REMARK    1  A    between atoms: C_6  and  O_21
REMARK    2  A    between atoms: C_6  and  C_26
REMARK    3  A    between atoms: C_9  and  O_23
REMARK    4  A    between atoms: C_26  and  C_27
REMARK    5  A    between atoms: C_27  and  O_28
REMARK    6  A    between atoms: O_28  and  C_30
REMARK                            x       y       z     vdW  Elec       q    Type
REMARK                         _______ _______ _______ _____ _____    ______ ____
ROOT
ATOM      1  O   UNL     1     -35.241  26.624   5.233  0.00  0.00    -0.287 OA
ATOM      2  C   UNL     1     -34.464  19.812   0.688  0.00  0.00    +0.031 C 
ATOM      3  C   UNL     1     -34.275  21.282   0.255  0.00  0.00    +0.003 C 
ATOM      4  C   UNL     1     -35.350  22.230   0.807  0.00  0.00    +0.003 C 
ATOM      5  C   UNL     1     -35.302  22.188   2.376  0.00  0.00    +0.034 C 
ATOM      6  C   UNL     1     -33.279  19.166  -0.081  0.00  0.00    +0.143 C 
ATOM      7  C   UNL     1     -34.376  19.768   2.228  0.00  0.00    +0.032 C 
ATOM      8  C   UNL     1     -34.082  21.185  -1.256  0.00  0.00    +0.003 C 
ATOM      9  C   UNL     1     -35.371  20.726   2.921  0.00  0.00    +0.111 C 
ATOM     10  C   UNL     1     -36.303  23.220   3.031  0.00  0.00    +0.036 C 
ATOM     11  C   UNL     1     -33.283  19.880  -1.453  0.00  0.00    +0.034 C 
ATOM     12  C   UNL     1     -35.129  23.659   0.282  0.00  0.00    +0.004 C 
ATOM     13  C   UNL     1     -35.802  19.194   0.196  0.00  0.00    +0.003 C 
ATOM     14  C   UNL     1     -36.094  24.661   0.904  0.00  0.00    +0.022 C 
ATOM     15  C   UNL     1     -36.019  24.591   2.408  0.00  0.00    -0.038 C 
ATOM     16  C   UNL     1     -37.794  22.885   2.798  0.00  0.00    +0.009 C 
ATOM     17  C   UNL     1     -36.106  23.251   4.540  0.00  0.00    -0.020 C 
ATOM     18  C   UNL     1     -35.677  25.678   3.118  0.00  0.00    +0.034 C 
ATOM     19  C   UNL     1     -35.763  24.329   5.252  0.00  0.00    +0.038 C 
ATOM     20  C   UNL     1     -35.538  25.625   4.588  0.00  0.00    +0.195 C 
ENDROOT
BRANCH   6  21
ATOM     21  O   UNL     1     -32.039  19.413   0.575  0.00  0.00    -0.380 OA
ATOM     22  H   UNL     1     -32.193  19.962   1.360  0.00  0.00    +0.211 HD
ENDBRANCH   6  21
BRANCH   9  23
ATOM     23  O   UNL     1     -36.687  20.199   2.822  0.00  0.00    -0.384 OA
ATOM     24  H   UNL     1     -36.866  19.631   3.587  0.00  0.00    +0.210 HD
ENDBRANCH   9  23
BRANCH   6  26
ATOM     25  O   UNL     1     -33.027  16.945   0.742  0.00  0.00    -0.290 OA
ATOM     26  C   UNL     1     -33.348  17.673  -0.196  0.00  0.00    +0.218 C 
BRANCH  26  27
ATOM     27  C   UNL     1     -33.831  17.123  -1.521  0.00  0.00    +0.274 C 
BRANCH  27  28
ATOM     28  O   UNL     1     -34.252  15.783  -1.381  0.00  0.00    -0.440 OA
BRANCH  28  30
ATOM     29  O   UNL     1     -35.936  15.007  -0.001  0.00  0.00    -0.250 OA
ATOM     30  C   UNL     1     -35.558  15.596  -1.005  0.00  0.00    +0.318 C 
ATOM     31  C   UNL     1     -36.480  16.220  -2.009  0.00  0.00    +0.121 C 
ENDBRANCH  28  30
ENDBRANCH  27  28
ENDBRANCH  26  27
ENDBRANCH   6  26
TORSDOF 6
ENDMDL
MODEL 7
REMARK VINA RESULT:      -6.2      3.775      6.105
REMARK  Name = 5834
REMARK  6 active torsions:
REMARK  status: ('A' for Active; 'I' for Inactive)
REMARK    1  A    between atoms: C_6  and  O_21
REMARK    2  A    between atoms: C_6  and  C_26
REMARK    3  A    between atoms: C_9  and  O_23
REMARK    4  A    between atoms: C_26  and  C_27
REMARK    5  A    between atoms: C_27  and  O_28
REMARK    6  A    between atoms: O_28  and  C_30
REMARK                            x       y       z     vdW  Elec       q    Type
REMARK                         _______ _______ _______ _____ _____    ______ ____
ROOT
ATOM      1  O   UNL     1     -30.937  17.553   1.153  0.00  0.00    -0.287 OA
ATOM      2  C   UNL     1     -35.679  24.258   1.624  0.00  0.00    +0.031 C 
ATOM      3  C   UNL     1     -35.919  22.867   2.250  0.00  0.00    +0.003 C 
ATOM      4  C   UNL     1     -35.593  21.702   1.303  0.00  0.00    +0.003 C 
ATOM      5  C   UNL     1     -34.078  21.786   0.901  0.00  0.00    +0.034 C 
ATOM      6  C   UNL     1     -36.159  25.152   2.800  0.00  0.00    +0.143 C 
ATOM      7  C   UNL     1     -34.182  24.354   1.266  0.00  0.00    +0.032 C 
ATOM      8  C   UNL     1     -37.326  22.975   2.829  0.00  0.00    +0.003 C 
ATOM      9  C   UNL     1     -33.699  23.201   0.358  0.00  0.00    +0.111 C 
ATOM     10  C   UNL     1     -33.627  20.559   0.014  0.00  0.00    +0.036 C 
ATOM     11  C   UNL     1     -37.415  24.429   3.338  0.00  0.00    +0.034 C 
ATOM     12  C   UNL     1     -35.915  20.355   1.976  0.00  0.00    +0.004 C 
ATOM     13  C   UNL     1     -36.562  24.528   0.373  0.00  0.00    +0.003 C 
ATOM     14  C   UNL     1     -35.489  19.165   1.125  0.00  0.00    +0.022 C 
ATOM     15  C   UNL     1     -34.031  19.282   0.760  0.00  0.00    -0.038 C 
ATOM     16  C   UNL     1     -34.275  20.523  -1.388  0.00  0.00    +0.009 C 
ATOM     17  C   UNL     1     -32.122  20.608  -0.215  0.00  0.00    -0.020 C 
ATOM     18  C   UNL     1     -33.165  18.324   1.124  0.00  0.00    +0.034 C 
ATOM     19  C   UNL     1     -31.255  19.658   0.147  0.00  0.00    +0.038 C 
ATOM     20  C   UNL     1     -31.722  18.440   0.832  0.00  0.00    +0.195 C 
ENDROOT
BRANCH   6  21
ATOM     21  O   UNL     1     -35.177  25.222   3.831  0.00  0.00    -0.380 OA
ATOM     22  H   UNL     1     -34.975  24.326   4.145  0.00  0.00    +0.211 HD
ENDBRANCH   6  21
BRANCH   9  23
ATOM     23  O   UNL     1     -34.189  23.396  -0.961  0.00  0.00    -0.384 OA
ATOM     24  H   UNL     1     -33.452  23.351  -1.590  0.00  0.00    +0.210 HD
ENDBRANCH   9  23
BRANCH   6  26
ATOM     25  O   UNL     1     -37.558  27.001   2.255  0.00  0.00    -0.290 OA
ATOM     26  C   UNL     1     -36.415  26.582   2.434  0.00  0.00    +0.218 C 
BRANCH  26  27
ATOM     27  C   UNL     1     -35.197  27.469   2.298  0.00  0.00    +0.274 C 
BRANCH  27  28
ATOM     28  O   UNL     1     -34.809  27.980   3.556  0.00  0.00    -0.440 OA
BRANCH  28  30
ATOM     29  O   UNL     1     -32.938  28.637   4.744  0.00  0.00    -0.250 OA
ATOM     30  C   UNL     1     -33.461  28.151   3.750  0.00  0.00    +0.318 C 
ATOM     31  C   UNL     1     -32.700  27.654   2.558  0.00  0.00    +0.121 C 
ENDBRANCH  28  30
ENDBRANCH  27  28
ENDBRANCH  26  27
ENDBRANCH   6  26
TORSDOF 6
ENDMDL
MODEL 8
REMARK VINA RESULT:      -6.2      4.157      7.093
REMARK  Name = 5834
REMARK  6 active torsions:
REMARK  status: ('A' for Active; 'I' for Inactive)
REMARK    1  A    between atoms: C_6  and  O_21
REMARK    2  A    between atoms: C_6  and  C_26
REMARK    3  A    between atoms: C_9  and  O_23
REMARK    4  A    between atoms: C_26  and  C_27
REMARK    5  A    between atoms: C_27  and  O_28
REMARK    6  A    between atoms: O_28  and  C_30
REMARK                            x       y       z     vdW  Elec       q    Type
REMARK                         _______ _______ _______ _____ _____    ______ ____
ROOT
ATOM      1  O   UNL     1     -33.062  18.860  -2.589  0.00  0.00    -0.287 OA
ATOM      2  C   UNL     1     -35.294  24.285   3.177  0.00  0.00    +0.031 C 
ATOM      3  C   UNL     1     -35.156  22.752   3.303  0.00  0.00    +0.003 C 
ATOM      4  C   UNL     1     -35.732  21.982   2.105  0.00  0.00    +0.003 C 
ATOM      5  C   UNL     1     -34.966  22.422   0.807  0.00  0.00    +0.034 C 
ATOM      6  C   UNL     1     -34.688  24.708   4.543  0.00  0.00    +0.143 C 
ATOM      7  C   UNL     1     -34.508  24.720   1.923  0.00  0.00    +0.032 C 
ATOM      8  C   UNL     1     -35.700  22.460   4.698  0.00  0.00    +0.003 C 
ATOM      9  C   UNL     1     -34.946  23.975   0.642  0.00  0.00    +0.111 C 
ATOM     10  C   UNL     1     -35.419  21.596  -0.461  0.00  0.00    +0.036 C 
ATOM     11  C   UNL     1     -35.245  23.668   5.543  0.00  0.00    +0.034 C 
ATOM     12  C   UNL     1     -35.613  20.465   2.333  0.00  0.00    +0.004 C 
ATOM     13  C   UNL     1     -36.771  24.764   3.093  0.00  0.00    +0.003 C 
ATOM     14  C   UNL     1     -36.053  19.659   1.117  0.00  0.00    +0.022 C 
ATOM     15  C   UNL     1     -35.297  20.110  -0.107  0.00  0.00    -0.038 C 
ATOM     16  C   UNL     1     -36.875  21.867  -0.903  0.00  0.00    +0.009 C 
ATOM     17  C   UNL     1     -34.541  21.949  -1.654  0.00  0.00    -0.020 C 
ATOM     18  C   UNL     1     -34.539  19.239  -0.790  0.00  0.00    +0.034 C 
ATOM     19  C   UNL     1     -33.782  21.087  -2.337  0.00  0.00    +0.038 C 
ATOM     20  C   UNL     1     -33.741  19.664  -1.959  0.00  0.00    +0.195 C 
ENDROOT
BRANCH   6  21
ATOM     21  O   UNL     1     -33.266  24.631   4.525  0.00  0.00    -0.380 OA
ATOM     22  H   UNL     1     -32.967  24.011   5.209  0.00  0.00    +0.211 HD
ENDBRANCH   6  21
BRANCH   9  23
ATOM     23  O   UNL     1     -36.209  24.465   0.215  0.00  0.00    -0.384 OA
ATOM     24  H   UNL     1     -36.214  25.434   0.265  0.00  0.00    +0.210 HD
ENDBRANCH   9  23
BRANCH   6  26
ATOM     25  O   UNL     1     -36.018  26.420   5.530  0.00  0.00    -0.290 OA
ATOM     26  C   UNL     1     -34.978  26.123   4.945  0.00  0.00    +0.218 C 
BRANCH  26  27
ATOM     27  C   UNL     1     -33.925  27.150   4.589  0.00  0.00    +0.274 C 
BRANCH  27  28
ATOM     28  O   UNL     1     -33.160  27.493   5.725  0.00  0.00    -0.440 OA
BRANCH  28  30
ATOM     29  O   UNL     1     -31.201  27.905   4.568  0.00  0.00    -0.250 OA
ATOM     30  C   UNL     1     -31.978  28.147   5.482  0.00  0.00    +0.318 C 
ATOM     31  C   UNL     1     -31.761  29.221   6.505  0.00  0.00    +0.121 C 
ENDBRANCH  28  30
ENDBRANCH  27  28
ENDBRANCH  26  27
ENDBRANCH   6  26
TORSDOF 6
ENDMDL
MODEL 9
REMARK VINA RESULT:      -6.2      4.802      6.956
REMARK  Name = 5834
REMARK  6 active torsions:
REMARK  status: ('A' for Active; 'I' for Inactive)
REMARK    1  A    between atoms: C_6  and  O_21
REMARK    2  A    between atoms: C_6  and  C_26
REMARK    3  A    between atoms: C_9  and  O_23
REMARK    4  A    between atoms: C_26  and  C_27
REMARK    5  A    between atoms: C_27  and  O_28
REMARK    6  A    between atoms: O_28  and  C_30
REMARK                            x       y       z     vdW  Elec       q    Type
REMARK                         _______ _______ _______ _____ _____    ______ ____
ROOT
ATOM      1  O   UNL     1     -32.403  17.986   0.706  0.00  0.00    -0.287 OA
ATOM      2  C   UNL     1     -34.485  25.721   2.574  0.00  0.00    +0.031 C 
ATOM      3  C   UNL     1     -34.881  24.418   3.302  0.00  0.00    +0.003 C 
ATOM      4  C   UNL     1     -35.270  23.276   2.352  0.00  0.00    +0.003 C 
ATOM      5  C   UNL     1     -34.043  22.949   1.427  0.00  0.00    +0.034 C 
ATOM      6  C   UNL     1     -34.230  26.633   3.806  0.00  0.00    +0.143 C 
ATOM      7  C   UNL     1     -33.256  25.407   1.697  0.00  0.00    +0.032 C 
ATOM      8  C   UNL     1     -35.892  24.886   4.345  0.00  0.00    +0.003 C 
ATOM      9  C   UNL     1     -33.488  24.229   0.725  0.00  0.00    +0.111 C 
ATOM     10  C   UNL     1     -34.318  21.708   0.489  0.00  0.00    +0.036 C 
ATOM     11  C   UNL     1     -35.364  26.266   4.791  0.00  0.00    +0.034 C 
ATOM     12  C   UNL     1     -35.709  22.036   3.150  0.00  0.00    +0.004 C 
ATOM     13  C   UNL     1     -35.635  26.318   1.716  0.00  0.00    +0.003 C 
ATOM     14  C   UNL     1     -35.982  20.835   2.254  0.00  0.00    +0.022 C 
ATOM     15  C   UNL     1     -34.784  20.553   1.383  0.00  0.00    -0.038 C 
ATOM     16  C   UNL     1     -35.404  21.956  -0.583  0.00  0.00    +0.009 C 
ATOM     17  C   UNL     1     -33.051  21.338  -0.270  0.00  0.00    -0.020 C 
ATOM     18  C   UNL     1     -34.166  19.364   1.450  0.00  0.00    +0.034 C 
ATOM     19  C   UNL     1     -32.429  20.156  -0.205  0.00  0.00    +0.038 C 
ATOM     20  C   UNL     1     -32.955  19.080   0.653  0.00  0.00    +0.195 C 
ENDROOT
BRANCH   6  21
ATOM     21  O   UNL     1     -32.971  26.347   4.409  0.00  0.00    -0.380 OA
ATOM     22  H   UNL     1     -32.450  27.163   4.473  0.00  0.00    +0.211 HD
ENDBRANCH   6  21
BRANCH   9  23
ATOM     23  O   UNL     1     -34.336  24.646  -0.336  0.00  0.00    -0.384 OA
ATOM     24  H   UNL     1     -33.929  24.417  -1.185  0.00  0.00    +0.210 HD
ENDBRANCH   9  23
BRANCH   6  26
ATOM     25  O   UNL     1     -35.184  28.731   3.207  0.00  0.00    -0.290 OA
ATOM     26  C   UNL     1     -34.170  28.098   3.498  0.00  0.00    +0.218 C 
BRANCH  26  27
ATOM     27  C   UNL     1     -32.803  28.743   3.565  0.00  0.00    +0.274 C 
BRANCH  27  28
ATOM     28  O   UNL     1     -32.619  29.396   4.803  0.00  0.00    -0.440 OA
BRANCH  28  30
ATOM     29  O   UNL     1     -30.763  28.092   5.250  0.00  0.00    -0.250 OA
ATOM     30  C   UNL     1     -31.580  28.943   5.577  0.00  0.00    +0.318 C 
ATOM     31  C   UNL     1     -31.578  29.643   6.902  0.00  0.00    +0.121 C 
ENDBRANCH  28  30
ENDBRANCH  27  28
ENDBRANCH  26  27
ENDBRANCH   6  26
TORSDOF 6
ENDMDL
