MODEL 1
REMARK VINA RESULT:      -6.0      0.000      0.000
REMARK  Name = 57333288
REMARK  5 active torsions:
REMARK  status: ('A' for Active; 'I' for Inactive)
REMARK    1  A    between atoms: C_4  and  O_17
REMARK    2  A    between atoms: C_4  and  C_22
REMARK    3  A    between atoms: C_5  and  O_19
REMARK    4  A    between atoms: C_13  and  O_25
REMARK    5  A    between atoms: C_22  and  O_23
REMARK                            x       y       z     vdW  Elec       q    Type
REMARK                         _______ _______ _______ _____ _____    ______ ____
ROOT
ATOM      1  S   UNL     1     -35.898  27.558   1.469  0.00  0.00    -0.076 S 
ATOM      2  O   UNL     1     -33.818  28.435   2.780  0.00  0.00    -0.447 OA
ATOM      3  O   UNL     1     -34.193  26.091   6.062  0.00  0.00    -0.286 OA
ATOM      4  C   UNL     1     -36.094  25.570   3.973  0.00  0.00    +0.228 C 
ATOM      5  C   UNL     1     -36.976  25.369   2.722  0.00  0.00    +0.160 C 
ATOM      6  C   UNL     1     -37.381  26.704   2.091  0.00  0.00    +0.085 C 
ATOM      7  C   UNL     1     -35.006  26.624   3.870  0.00  0.00    +0.094 A 
ATOM      8  C   UNL     1     -34.836  27.495   2.850  0.00  0.00    +0.173 A 
ATOM      9  C   UNL     1     -38.353  26.519   0.927  0.00  0.00    +0.015 C 
ATOM     10  C   UNL     1     -34.064  26.745   5.035  0.00  0.00    +0.204 A 
ATOM     11  C   UNL     1     -32.959  27.704   4.913  0.00  0.00    +0.107 A 
ATOM     12  C   UNL     1     -32.893  28.503   3.782  0.00  0.00    +0.152 A 
ATOM     13  C   UNL     1     -31.991  27.820   5.915  0.00  0.00    +0.140 C 
ATOM     14  C   UNL     1     -31.858  29.429   3.638  0.00  0.00    +0.038 C 
ATOM     15  C   UNL     1     -30.956  28.745   5.771  0.00  0.00    +0.037 C 
ATOM     16  C   UNL     1     -30.889  29.549   4.633  0.00  0.00    +0.006 C 
ENDROOT
BRANCH   4  17
ATOM     17  O   UNL     1     -36.935  25.948   5.065  0.00  0.00    -0.371 OA
ATOM     18  H   UNL     1     -36.427  26.487   5.692  0.00  0.00    +0.211 HD
ENDBRANCH   4  17
BRANCH   5  19
ATOM     19  O   UNL     1     -36.336  24.536   1.752  0.00  0.00    -0.380 OA
ATOM     20  H   UNL     1     -35.899  25.092   1.086  0.00  0.00    +0.211 HD
ENDBRANCH   5  19
BRANCH   4  22
ATOM     21  O   UNL     1     -34.529  23.739   3.763  0.00  0.00    -0.247 OA
ATOM     22  C   UNL     1     -35.479  24.243   4.347  0.00  0.00    +0.348 C 
BRANCH  22  23
ATOM     23  O   UNL     1     -36.142  23.718   5.416  0.00  0.00    -0.443 OA
ATOM     24  C   UNL     1     -35.488  22.627   6.071  0.00  0.00    +0.256 C 
ENDBRANCH  22  23
ENDBRANCH   4  22
BRANCH  13  25
ATOM     25  O   UNL     1     -32.005  27.058   7.044  0.00  0.00    -0.505 OA
ATOM     26  H   UNL     1     -32.813  26.890   7.485  0.00  0.00    +0.292 HD
ENDBRANCH  13  25
TORSDOF 5
ENDMDL
MODEL 2
REMARK VINA RESULT:      -5.8      4.281      6.194
REMARK  Name = 57333288
REMARK  5 active torsions:
REMARK  status: ('A' for Active; 'I' for Inactive)
REMARK    1  A    between atoms: C_4  and  O_17
REMARK    2  A    between atoms: C_4  and  C_22
REMARK    3  A    between atoms: C_5  and  O_19
REMARK    4  A    between atoms: C_13  and  O_25
REMARK    5  A    between atoms: C_22  and  O_23
REMARK                            x       y       z     vdW  Elec       q    Type
REMARK                         _______ _______ _______ _____ _____    ______ ____
ROOT
ATOM      1  S   UNL     1     -37.562  22.820  -0.217  0.00  0.00    -0.076 S 
ATOM      2  O   UNL     1     -36.984  23.655   2.188  0.00  0.00    -0.447 OA
ATOM      3  O   UNL     1     -35.065  20.334   3.490  0.00  0.00    -0.286 OA
ATOM      4  C   UNL     1     -35.883  20.265   0.737  0.00  0.00    +0.228 C 
ATOM      5  C   UNL     1     -36.315  20.432  -0.735  0.00  0.00    +0.160 C 
ATOM      6  C   UNL     1     -37.680  21.118  -0.853  0.00  0.00    +0.085 C 
ATOM      7  C   UNL     1     -36.120  21.455   1.651  0.00  0.00    +0.094 A 
ATOM      8  C   UNL     1     -36.802  22.578   1.333  0.00  0.00    +0.173 A 
ATOM      9  C   UNL     1     -38.170  21.178  -2.298  0.00  0.00    +0.015 C 
ATOM     10  C   UNL     1     -35.594  21.349   3.055  0.00  0.00    +0.204 A 
ATOM     11  C   UNL     1     -35.745  22.524   3.923  0.00  0.00    +0.107 A 
ATOM     12  C   UNL     1     -36.436  23.624   3.438  0.00  0.00    +0.152 A 
ATOM     13  C   UNL     1     -35.212  22.539   5.214  0.00  0.00    +0.140 C 
ATOM     14  C   UNL     1     -36.602  24.754   4.240  0.00  0.00    +0.038 C 
ATOM     15  C   UNL     1     -35.377  23.670   6.016  0.00  0.00    +0.037 C 
ATOM     16  C   UNL     1     -36.071  24.777   5.529  0.00  0.00    +0.006 C 
ENDROOT
BRANCH   4  17
ATOM     17  O   UNL     1     -36.600  19.163   1.298  0.00  0.00    -0.371 OA
ATOM     18  H   UNL     1     -36.233  18.947   2.170  0.00  0.00    +0.211 HD
ENDBRANCH   4  17
BRANCH   5  19
ATOM     19  O   UNL     1     -35.336  21.143  -1.496  0.00  0.00    -0.380 OA
ATOM     20  H   UNL     1     -35.499  21.005  -2.443  0.00  0.00    +0.211 HD
ENDBRANCH   5  19
BRANCH   4  22
ATOM     21  O   UNL     1     -33.504  20.689   0.693  0.00  0.00    -0.247 OA
ATOM     22  C   UNL     1     -34.422  19.885   0.770  0.00  0.00    +0.348 C 
BRANCH  22  23
ATOM     23  O   UNL     1     -34.306  18.532   0.898  0.00  0.00    -0.443 OA
ATOM     24  C   UNL     1     -32.997  18.056   1.228  0.00  0.00    +0.256 C 
ENDBRANCH  22  23
ENDBRANCH   4  22
BRANCH  13  25
ATOM     25  O   UNL     1     -34.521  21.489   5.739  0.00  0.00    -0.505 OA
ATOM     26  H   UNL     1     -34.649  21.245   6.634  0.00  0.00    +0.292 HD
ENDBRANCH  13  25
TORSDOF 5
ENDMDL
MODEL 3
REMARK VINA RESULT:      -5.8      3.440      5.750
REMARK  Name = 57333288
REMARK  5 active torsions:
REMARK  status: ('A' for Active; 'I' for Inactive)
REMARK    1  A    between atoms: C_4  and  O_17
REMARK    2  A    between atoms: C_4  and  C_22
REMARK    3  A    between atoms: C_5  and  O_19
REMARK    4  A    between atoms: C_13  and  O_25
REMARK    5  A    between atoms: C_22  and  O_23
REMARK                            x       y       z     vdW  Elec       q    Type
REMARK                         _______ _______ _______ _____ _____    ______ ____
ROOT
ATOM      1  S   UNL     1     -39.258  22.002   1.438  0.00  0.00    -0.076 S 
ATOM      2  O   UNL     1     -37.461  22.711   3.195  0.00  0.00    -0.447 OA
ATOM      3  O   UNL     1     -37.609  26.710   2.567  0.00  0.00    -0.286 OA
ATOM      4  C   UNL     1     -39.517  25.173   1.068  0.00  0.00    +0.228 C 
ATOM      5  C   UNL     1     -40.526  24.207   0.411  0.00  0.00    +0.160 C 
ATOM      6  C   UNL     1     -39.858  22.899  -0.028  0.00  0.00    +0.085 C 
ATOM      7  C   UNL     1     -38.531  24.558   2.046  0.00  0.00    +0.094 A 
ATOM      8  C   UNL     1     -38.361  23.238   2.279  0.00  0.00    +0.173 A 
ATOM      9  C   UNL     1     -40.822  21.989  -0.788  0.00  0.00    +0.015 C 
ATOM     10  C   UNL     1     -37.624  25.505   2.783  0.00  0.00    +0.204 A 
ATOM     11  C   UNL     1     -36.724  24.930   3.790  0.00  0.00    +0.107 A 
ATOM     12  C   UNL     1     -36.692  23.553   3.945  0.00  0.00    +0.152 A 
ATOM     13  C   UNL     1     -35.908  25.748   4.577  0.00  0.00    +0.140 C 
ATOM     14  C   UNL     1     -35.842  22.975   4.890  0.00  0.00    +0.038 C 
ATOM     15  C   UNL     1     -35.060  25.171   5.523  0.00  0.00    +0.037 C 
ATOM     16  C   UNL     1     -35.027  23.785   5.679  0.00  0.00    +0.006 C 
ENDROOT
BRANCH   4  17
ATOM     17  O   UNL     1     -38.745  25.793   0.037  0.00  0.00    -0.371 OA
ATOM     18  H   UNL     1     -39.108  25.551  -0.829  0.00  0.00    +0.211 HD
ENDBRANCH   4  17
BRANCH   5  19
ATOM     19  O   UNL     1     -41.634  23.933   1.272  0.00  0.00    -0.380 OA
ATOM     20  H   UNL     1     -41.408  23.199   1.866  0.00  0.00    +0.211 HD
ENDBRANCH   5  19
BRANCH   4  22
ATOM     21  O   UNL     1     -40.457  27.391   1.271  0.00  0.00    -0.247 OA
ATOM     22  C   UNL     1     -40.285  26.279   1.751  0.00  0.00    +0.348 C 
BRANCH  22  23
ATOM     23  O   UNL     1     -40.741  25.839   2.958  0.00  0.00    -0.443 OA
ATOM     24  C   UNL     1     -41.596  26.746   3.660  0.00  0.00    +0.256 C 
ENDBRANCH  22  23
ENDBRANCH   4  22
BRANCH  13  25
ATOM     25  O   UNL     1     -35.903  27.106   4.470  0.00  0.00    -0.505 OA
ATOM     26  H   UNL     1     -36.580  27.540   3.990  0.00  0.00    +0.292 HD
ENDBRANCH  13  25
TORSDOF 5
ENDMDL
MODEL 4
REMARK VINA RESULT:      -5.7      4.009      6.373
REMARK  Name = 57333288
REMARK  5 active torsions:
REMARK  status: ('A' for Active; 'I' for Inactive)
REMARK    1  A    between atoms: C_4  and  O_17
REMARK    2  A    between atoms: C_4  and  C_22
REMARK    3  A    between atoms: C_5  and  O_19
REMARK    4  A    between atoms: C_13  and  O_25
REMARK    5  A    between atoms: C_22  and  O_23
REMARK                            x       y       z     vdW  Elec       q    Type
REMARK                         _______ _______ _______ _____ _____    ______ ____
ROOT
ATOM      1  S   UNL     1     -36.504  20.081   1.399  0.00  0.00    -0.076 S 
ATOM      2  O   UNL     1     -35.880  21.790   3.272  0.00  0.00    -0.447 OA
ATOM      3  O   UNL     1     -38.124  24.899   1.964  0.00  0.00    -0.286 OA
ATOM      4  C   UNL     1     -38.425  22.468   0.465  0.00  0.00    +0.228 C 
ATOM      5  C   UNL     1     -38.527  21.064  -0.170  0.00  0.00    +0.160 C 
ATOM      6  C   UNL     1     -37.158  20.385  -0.272  0.00  0.00    +0.085 C 
ATOM      7  C   UNL     1     -37.516  22.597   1.675  0.00  0.00    +0.094 A 
ATOM      8  C   UNL     1     -36.685  21.644   2.151  0.00  0.00    +0.173 A 
ATOM      9  C   UNL     1     -37.232  19.049  -1.010  0.00  0.00    +0.015 C 
ATOM     10  C   UNL     1     -37.502  23.928   2.375  0.00  0.00    +0.204 A 
ATOM     11  C   UNL     1     -36.690  24.040   3.593  0.00  0.00    +0.107 A 
ATOM     12  C   UNL     1     -35.918  22.956   3.981  0.00  0.00    +0.152 A 
ATOM     13  C   UNL     1     -36.686  25.215   4.350  0.00  0.00    +0.140 C 
ATOM     14  C   UNL     1     -35.131  23.033   5.131  0.00  0.00    +0.038 C 
ATOM     15  C   UNL     1     -35.900  25.293   5.501  0.00  0.00    +0.037 C 
ATOM     16  C   UNL     1     -35.123  24.202   5.891  0.00  0.00    +0.006 C 
ENDROOT
BRANCH   4  17
ATOM     17  O   UNL     1     -37.932  23.377  -0.521  0.00  0.00    -0.371 OA
ATOM     18  H   UNL     1     -38.356  23.191  -1.374  0.00  0.00    +0.211 HD
ENDBRANCH   4  17
BRANCH   5  19
ATOM     19  O   UNL     1     -39.443  20.228   0.540  0.00  0.00    -0.380 OA
ATOM     20  H   UNL     1     -39.650  20.630   1.399  0.00  0.00    +0.211 HD
ENDBRANCH   5  19
BRANCH   4  22
ATOM     21  O   UNL     1     -40.433  22.557   1.808  0.00  0.00    -0.247 OA
ATOM     22  C   UNL     1     -39.815  22.936   0.823  0.00  0.00    +0.348 C 
BRANCH  22  23
ATOM     23  O   UNL     1     -40.249  23.830  -0.111  0.00  0.00    -0.443 OA
ATOM     24  C   UNL     1     -41.454  24.528   0.218  0.00  0.00    +0.256 C 
ENDBRANCH  22  23
ENDBRANCH   4  22
BRANCH  13  25
ATOM     25  O   UNL     1     -37.428  26.309   4.018  0.00  0.00    -0.505 OA
ATOM     26  H   UNL     1     -37.174  26.844   3.293  0.00  0.00    +0.292 HD
ENDBRANCH  13  25
TORSDOF 5
ENDMDL
MODEL 5
REMARK VINA RESULT:      -5.7      3.293      6.938
REMARK  Name = 57333288
REMARK  5 active torsions:
REMARK  status: ('A' for Active; 'I' for Inactive)
REMARK    1  A    between atoms: C_4  and  O_17
REMARK    2  A    between atoms: C_4  and  C_22
REMARK    3  A    between atoms: C_5  and  O_19
REMARK    4  A    between atoms: C_13  and  O_25
REMARK    5  A    between atoms: C_22  and  O_23
REMARK                            x       y       z     vdW  Elec       q    Type
REMARK                         _______ _______ _______ _____ _____    ______ ____
ROOT
ATOM      1  S   UNL     1     -37.187  21.296   0.751  0.00  0.00    -0.076 S 
ATOM      2  O   UNL     1     -39.287  22.846   0.797  0.00  0.00    -0.447 OA
ATOM      3  O   UNL     1     -38.318  25.007   4.084  0.00  0.00    -0.286 OA
ATOM      4  C   UNL     1     -36.323  23.123   3.237  0.00  0.00    +0.228 C 
ATOM      5  C   UNL     1     -35.333  22.127   2.594  0.00  0.00    +0.160 C 
ATOM      6  C   UNL     1     -36.040  20.863   2.097  0.00  0.00    +0.085 C 
ATOM      7  C   UNL     1     -37.641  23.329   2.510  0.00  0.00    +0.094 A 
ATOM      8  C   UNL     1     -38.083  22.619   1.449  0.00  0.00    +0.173 A 
ATOM      9  C   UNL     1     -35.053  19.821   1.572  0.00  0.00    +0.015 C 
ATOM     10  C   UNL     1     -38.561  24.384   3.058  0.00  0.00    +0.204 A 
ATOM     11  C   UNL     1     -39.801  24.648   2.318  0.00  0.00    +0.107 A 
ATOM     12  C   UNL     1     -40.099  23.861   1.217  0.00  0.00    +0.152 A 
ATOM     13  C   UNL     1     -40.672  25.668   2.712  0.00  0.00    +0.140 C 
ATOM     14  C   UNL     1     -41.273  24.083   0.495  0.00  0.00    +0.038 C 
ATOM     15  C   UNL     1     -41.845  25.891   1.989  0.00  0.00    +0.037 C 
ATOM     16  C   UNL     1     -42.145  25.099   0.881  0.00  0.00    +0.006 C 
ENDROOT
BRANCH   4  17
ATOM     17  O   UNL     1     -36.642  22.661   4.551  0.00  0.00    -0.371 OA
ATOM     18  H   UNL     1     -37.152  21.837   4.490  0.00  0.00    +0.211 HD
ENDBRANCH   4  17
BRANCH   5  19
ATOM     19  O   UNL     1     -34.591  22.730   1.531  0.00  0.00    -0.380 OA
ATOM     20  H   UNL     1     -34.869  23.655   1.427  0.00  0.00    +0.211 HD
ENDBRANCH   5  19
BRANCH   4  22
ATOM     21  O   UNL     1     -35.456  25.257   2.504  0.00  0.00    -0.247 OA
ATOM     22  C   UNL     1     -35.626  24.451   3.408  0.00  0.00    +0.348 C 
BRANCH  22  23
ATOM     23  O   UNL     1     -35.233  24.596   4.706  0.00  0.00    -0.443 OA
ATOM     24  C   UNL     1     -35.107  25.946   5.164  0.00  0.00    +0.256 C 
ENDBRANCH  22  23
ENDBRANCH   4  22
BRANCH  13  25
ATOM     25  O   UNL     1     -40.427  26.474   3.782  0.00  0.00    -0.505 OA
ATOM     26  H   UNL     1     -39.638  26.369   4.276  0.00  0.00    +0.292 HD
ENDBRANCH  13  25
TORSDOF 5
ENDMDL
MODEL 6
REMARK VINA RESULT:      -5.6      4.005      5.860
REMARK  Name = 57333288
REMARK  5 active torsions:
REMARK  status: ('A' for Active; 'I' for Inactive)
REMARK    1  A    between atoms: C_4  and  O_17
REMARK    2  A    between atoms: C_4  and  C_22
REMARK    3  A    between atoms: C_5  and  O_19
REMARK    4  A    between atoms: C_13  and  O_25
REMARK    5  A    between atoms: C_22  and  O_23
REMARK                            x       y       z     vdW  Elec       q    Type
REMARK                         _______ _______ _______ _____ _____    ______ ____
ROOT
ATOM      1  S   UNL     1     -39.914  25.885   2.184  0.00  0.00    -0.076 S 
ATOM      2  O   UNL     1     -37.871  25.231   3.673  0.00  0.00    -0.447 OA
ATOM      3  O   UNL     1     -37.563  21.357   2.531  0.00  0.00    -0.286 OA
ATOM      4  C   UNL     1     -39.560  22.879   1.137  0.00  0.00    +0.228 C 
ATOM      5  C   UNL     1     -40.521  23.863   0.434  0.00  0.00    +0.160 C 
ATOM      6  C   UNL     1     -41.182  24.820   1.430  0.00  0.00    +0.085 C 
ATOM      7  C   UNL     1     -38.658  23.466   2.210  0.00  0.00    +0.094 A 
ATOM      8  C   UNL     1     -38.724  24.722   2.703  0.00  0.00    +0.173 A 
ATOM      9  C   UNL     1     -42.225  25.714   0.760  0.00  0.00    +0.015 C 
ATOM     10  C   UNL     1     -37.635  22.546   2.816  0.00  0.00    +0.204 A 
ATOM     11  C   UNL     1     -36.705  23.122   3.794  0.00  0.00    +0.107 A 
ATOM     12  C   UNL     1     -36.872  24.445   4.172  0.00  0.00    +0.152 A 
ATOM     13  C   UNL     1     -35.672  22.357   4.344  0.00  0.00    +0.140 C 
ATOM     14  C   UNL     1     -36.008  25.021   5.105  0.00  0.00    +0.038 C 
ATOM     15  C   UNL     1     -34.807  22.933   5.276  0.00  0.00    +0.037 C 
ATOM     16  C   UNL     1     -34.975  24.265   5.656  0.00  0.00    +0.006 C 
ENDROOT
BRANCH   4  17
ATOM     17  O   UNL     1     -40.336  21.856   1.764  0.00  0.00    -0.371 OA
ATOM     18  H   UNL     1     -41.093  21.632   1.199  0.00  0.00    +0.211 HD
ENDBRANCH   4  17
BRANCH   5  19
ATOM     19  O   UNL     1     -39.861  24.599  -0.598  0.00  0.00    -0.380 OA
ATOM     20  H   UNL     1     -39.448  25.391  -0.218  0.00  0.00    +0.211 HD
ENDBRANCH   5  19
BRANCH   4  22
ATOM     21  O   UNL     1     -37.727  22.694  -0.428  0.00  0.00    -0.247 OA
ATOM     22  C   UNL     1     -38.718  22.195   0.087  0.00  0.00    +0.348 C 
BRANCH  22  23
ATOM     23  O   UNL     1     -39.235  20.962  -0.180  0.00  0.00    -0.443 OA
ATOM     24  C   UNL     1     -38.280  19.956  -0.530  0.00  0.00    +0.256 C 
ENDBRANCH  22  23
ENDBRANCH   4  22
BRANCH  13  25
ATOM     25  O   UNL     1     -35.460  21.055   4.006  0.00  0.00    -0.505 OA
ATOM     26  H   UNL     1     -35.796  20.720   3.199  0.00  0.00    +0.292 HD
ENDBRANCH  13  25
TORSDOF 5
ENDMDL
MODEL 7
REMARK VINA RESULT:      -5.5      3.186      6.056
REMARK  Name = 57333288
REMARK  5 active torsions:
REMARK  status: ('A' for Active; 'I' for Inactive)
REMARK    1  A    between atoms: C_4  and  O_17
REMARK    2  A    between atoms: C_4  and  C_22
REMARK    3  A    between atoms: C_5  and  O_19
REMARK    4  A    between atoms: C_13  and  O_25
REMARK    5  A    between atoms: C_22  and  O_23
REMARK                            x       y       z     vdW  Elec       q    Type
REMARK                         _______ _______ _______ _____ _____    ______ ____
ROOT
ATOM      1  S   UNL     1     -34.537  26.150   1.565  0.00  0.00    -0.076 S 
ATOM      2  O   UNL     1     -34.209  23.601   1.106  0.00  0.00    -0.447 OA
ATOM      3  O   UNL     1     -37.254  22.222   3.395  0.00  0.00    -0.286 OA
ATOM      4  C   UNL     1     -37.061  25.083   3.225  0.00  0.00    +0.228 C 
ATOM      5  C   UNL     1     -36.862  26.590   2.954  0.00  0.00    +0.160 C 
ATOM      6  C   UNL     1     -35.379  26.976   2.952  0.00  0.00    +0.085 C 
ATOM      7  C   UNL     1     -36.118  24.136   2.502  0.00  0.00    +0.094 A 
ATOM      8  C   UNL     1     -35.040  24.493   1.769  0.00  0.00    +0.173 A 
ATOM      9  C   UNL     1     -35.179  28.484   2.807  0.00  0.00    +0.015 C 
ATOM     10  C   UNL     1     -36.379  22.664   2.662  0.00  0.00    +0.204 A 
ATOM     11  C   UNL     1     -35.525  21.741   1.903  0.00  0.00    +0.107 A 
ATOM     12  C   UNL     1     -34.479  22.263   1.158  0.00  0.00    +0.152 A 
ATOM     13  C   UNL     1     -35.752  20.363   1.930  0.00  0.00    +0.140 C 
ATOM     14  C   UNL     1     -33.645  21.412   0.430  0.00  0.00    +0.038 C 
ATOM     15  C   UNL     1     -34.919  19.511   1.202  0.00  0.00    +0.037 C 
ATOM     16  C   UNL     1     -33.867  20.036   0.452  0.00  0.00    +0.006 C 
ENDROOT
BRANCH   4  17
ATOM     17  O   UNL     1     -36.891  24.847   4.624  0.00  0.00    -0.371 OA
ATOM     18  H   UNL     1     -35.976  24.574   4.798  0.00  0.00    +0.211 HD
ENDBRANCH   4  17
BRANCH   5  19
ATOM     19  O   UNL     1     -37.481  26.994   1.730  0.00  0.00    -0.380 OA
ATOM     20  H   UNL     1     -37.434  27.960   1.647  0.00  0.00    +0.211 HD
ENDBRANCH   5  19
BRANCH   4  22
ATOM     21  O   UNL     1     -39.375  24.606   3.736  0.00  0.00    -0.247 OA
ATOM     22  C   UNL     1     -38.490  24.720   2.900  0.00  0.00    +0.348 C 
BRANCH  22  23
ATOM     23  O   UNL     1     -38.622  24.549   1.553  0.00  0.00    -0.443 OA
ATOM     24  C   UNL     1     -39.919  24.141   1.109  0.00  0.00    +0.256 C 
ENDBRANCH  22  23
ENDBRANCH   4  22
BRANCH  13  25
ATOM     25  O   UNL     1     -36.767  19.797   2.641  0.00  0.00    -0.505 OA
ATOM     26  H   UNL     1     -37.166  20.269   3.344  0.00  0.00    +0.292 HD
ENDBRANCH  13  25
TORSDOF 5
ENDMDL
MODEL 8
REMARK VINA RESULT:      -5.5      1.915      6.081
REMARK  Name = 57333288
REMARK  5 active torsions:
REMARK  status: ('A' for Active; 'I' for Inactive)
REMARK    1  A    between atoms: C_4  and  O_17
REMARK    2  A    between atoms: C_4  and  C_22
REMARK    3  A    between atoms: C_5  and  O_19
REMARK    4  A    between atoms: C_13  and  O_25
REMARK    5  A    between atoms: C_22  and  O_23
REMARK                            x       y       z     vdW  Elec       q    Type
REMARK                         _______ _______ _______ _____ _____    ______ ____
ROOT
ATOM      1  S   UNL     1     -35.522  27.824   2.321  0.00  0.00    -0.076 S 
ATOM      2  O   UNL     1     -37.914  27.020   1.649  0.00  0.00    -0.447 OA
ATOM      3  O   UNL     1     -37.606  23.195   2.949  0.00  0.00    -0.286 OA
ATOM      4  C   UNL     1     -35.336  24.860   3.520  0.00  0.00    +0.228 C 
ATOM      5  C   UNL     1     -34.246  25.912   3.817  0.00  0.00    +0.160 C 
ATOM      6  C   UNL     1     -34.017  26.846   2.625  0.00  0.00    +0.085 C 
ATOM      7  C   UNL     1     -36.580  25.359   2.806  0.00  0.00    +0.094 A 
ATOM      8  C   UNL     1     -36.755  26.592   2.281  0.00  0.00    +0.173 A 
ATOM      9  C   UNL     1     -32.857  27.811   2.865  0.00  0.00    +0.015 C 
ATOM     10  C   UNL     1     -37.699  24.371   2.619  0.00  0.00    +0.204 A 
ATOM     11  C   UNL     1     -38.937  24.863   2.004  0.00  0.00    +0.107 A 
ATOM     12  C   UNL     1     -38.980  26.173   1.550  0.00  0.00    +0.152 A 
ATOM     13  C   UNL     1     -40.054  24.034   1.868  0.00  0.00    +0.140 C 
ATOM     14  C   UNL     1     -40.141  26.669   0.954  0.00  0.00    +0.038 C 
ATOM     15  C   UNL     1     -41.215  24.530   1.274  0.00  0.00    +0.037 C 
ATOM     16  C   UNL     1     -41.258  25.847   0.818  0.00  0.00    +0.006 C 
ENDROOT
BRANCH   4  17
ATOM     17  O   UNL     1     -34.768  23.839   2.697  0.00  0.00    -0.371 OA
ATOM     18  H   UNL     1     -34.212  23.257   3.240  0.00  0.00    +0.211 HD
ENDBRANCH   4  17
BRANCH   5  19
ATOM     19  O   UNL     1     -34.550  26.671   4.990  0.00  0.00    -0.380 OA
ATOM     20  H   UNL     1     -35.448  27.031   4.919  0.00  0.00    +0.211 HD
ENDBRANCH   5  19
BRANCH   4  22
ATOM     21  O   UNL     1     -36.496  24.686   5.634  0.00  0.00    -0.247 OA
ATOM     22  C   UNL     1     -35.729  24.195   4.817  0.00  0.00    +0.348 C 
BRANCH  22  23
ATOM     23  O   UNL     1     -35.104  22.987   4.918  0.00  0.00    -0.443 OA
ATOM     24  C   UNL     1     -35.426  22.222   6.083  0.00  0.00    +0.256 C 
ENDBRANCH  22  23
ENDBRANCH   4  22
BRANCH  13  25
ATOM     25  O   UNL     1     -40.068  22.742   2.300  0.00  0.00    -0.505 OA
ATOM     26  H   UNL     1     -39.877  22.046   1.702  0.00  0.00    +0.292 HD
ENDBRANCH  13  25
TORSDOF 5
ENDMDL
MODEL 9
REMARK VINA RESULT:      -5.3      5.318      7.551
REMARK  Name = 57333288
REMARK  5 active torsions:
REMARK  status: ('A' for Active; 'I' for Inactive)
REMARK    1  A    between atoms: C_4  and  O_17
REMARK    2  A    between atoms: C_4  and  C_22
REMARK    3  A    between atoms: C_5  and  O_19
REMARK    4  A    between atoms: C_13  and  O_25
REMARK    5  A    between atoms: C_22  and  O_23
REMARK                            x       y       z     vdW  Elec       q    Type
REMARK                         _______ _______ _______ _____ _____    ______ ____
ROOT
ATOM      1  S   UNL     1     -39.067  20.273  -0.886  0.00  0.00    -0.076 S 
ATOM      2  O   UNL     1     -39.992  22.408   0.299  0.00  0.00    -0.447 OA
ATOM      3  O   UNL     1     -37.304  22.579   3.325  0.00  0.00    -0.286 OA
ATOM      4  C   UNL     1     -36.827  20.510   1.391  0.00  0.00    +0.228 C 
ATOM      5  C   UNL     1     -36.675  19.515   0.220  0.00  0.00    +0.160 C 
ATOM      6  C   UNL     1     -38.025  18.939  -0.217  0.00  0.00    +0.085 C 
ATOM      7  C   UNL     1     -37.981  21.493   1.296  0.00  0.00    +0.094 A 
ATOM      8  C   UNL     1     -38.962  21.481   0.366  0.00  0.00    +0.173 A 
ATOM      9  C   UNL     1     -37.871  17.864  -1.291  0.00  0.00    +0.015 C 
ATOM     10  C   UNL     1     -38.068  22.544   2.368  0.00  0.00    +0.204 A 
ATOM     11  C   UNL     1     -39.130  23.549   2.242  0.00  0.00    +0.107 A 
ATOM     12  C   UNL     1     -40.042  23.428   1.205  0.00  0.00    +0.152 A 
ATOM     13  C   UNL     1     -39.232  24.608   3.149  0.00  0.00    +0.140 C 
ATOM     14  C   UNL     1     -41.067  24.364   1.061  0.00  0.00    +0.038 C 
ATOM     15  C   UNL     1     -40.256  25.545   3.005  0.00  0.00    +0.037 C 
ATOM     16  C   UNL     1     -41.173  25.423   1.961  0.00  0.00    +0.006 C 
ENDROOT
BRANCH   4  17
ATOM     17  O   UNL     1     -37.017  19.765   2.597  0.00  0.00    -0.371 OA
ATOM     18  H   UNL     1     -36.183  19.337   2.847  0.00  0.00    +0.211 HD
ENDBRANCH   4  17
BRANCH   5  19
ATOM     19  O   UNL     1     -36.005  20.110  -0.895  0.00  0.00    -0.380 OA
ATOM     20  H   UNL     1     -35.082  19.810  -0.915  0.00  0.00    +0.211 HD
ENDBRANCH   5  19
BRANCH   4  22
ATOM     21  O   UNL     1     -34.679  20.992   2.389  0.00  0.00    -0.247 OA
ATOM     22  C   UNL     1     -35.530  21.265   1.554  0.00  0.00    +0.348 C 
BRANCH  22  23
ATOM     23  O   UNL     1     -35.471  22.271   0.636  0.00  0.00    -0.443 OA
ATOM     24  C   UNL     1     -34.652  23.387   0.998  0.00  0.00    +0.256 C 
ENDBRANCH  22  23
ENDBRANCH   4  22
BRANCH  13  25
ATOM     25  O   UNL     1     -38.362  24.777   4.184  0.00  0.00    -0.505 OA
ATOM     26  H   UNL     1     -38.513  25.451   4.817  0.00  0.00    +0.292 HD
ENDBRANCH  13  25
TORSDOF 5
ENDMDL
