MODEL 1
REMARK VINA RESULT:      -7.0      0.000      0.000
REMARK  Name = 194750
REMARK  12 active torsions:
REMARK  status: ('A' for Active; 'I' for Inactive)
REMARK    1  A    between atoms: C_1  and  O_2
REMARK    2  A    between atoms: C_1  and  C_21
REMARK    3  A    between atoms: O_2  and  C_8
REMARK    4  A    between atoms: C_4  and  N_10
REMARK    5  A    between atoms: C_5  and  O_14
REMARK    6  A    between atoms: C_6  and  O_16
REMARK    7  A    between atoms: C_7  and  C_18
REMARK    8  A    between atoms: C_18  and  O_19
REMARK    9  A    between atoms: C_21  and  N_22
REMARK   10  A    between atoms: N_22  and  S_24
REMARK   11  A    between atoms: S_24  and  C_27
REMARK   12  A    between atoms: C_30  and  N_37
REMARK                            x       y       z     vdW  Elec       q    Type
REMARK                         _______ _______ _______ _____ _____    ______ ____
ROOT
ATOM      1  C   UNL     1     -38.262  23.791   2.728  0.00  0.00    +0.164 C 
ENDROOT
BRANCH   1   2
ATOM      2  O   UNL     1     -37.048  24.526   2.687  0.00  0.00    -0.328 OA
BRANCH   2   8
ATOM      3  O   UNL     1     -36.574  24.488   5.003  0.00  0.00    -0.327 OA
ATOM      4  C   UNL     1     -35.777  26.359   3.656  0.00  0.00    +0.158 C 
ATOM      5  C   UNL     1     -34.404  25.687   3.540  0.00  0.00    +0.162 C 
ATOM      6  C   UNL     1     -34.162  24.757   4.736  0.00  0.00    +0.169 C 
ATOM      7  C   UNL     1     -35.332  23.777   4.889  0.00  0.00    +0.176 C 
ATOM      8  C   UNL     1     -36.875  25.307   3.868  0.00  0.00    +0.256 C 
BRANCH   4  10
ATOM      9  O   UNL     1     -34.982  29.117   3.215  0.00  0.00    -0.275 OA
ATOM     10  N   UNL     1     -36.059  27.180   2.500  0.00  0.00    -0.299 N 
ATOM     11  C   UNL     1     -35.634  28.494   2.381  0.00  0.00    +0.223 C 
ATOM     12  C   UNL     1     -36.040  29.108   1.070  0.00  0.00    +0.095 C 
ATOM     13  H   UNL     1     -36.577  26.787   1.761  0.00  0.00    +0.150 HD
ENDBRANCH   4  10
BRANCH   5  14
ATOM     14  O   UNL     1     -33.386  26.683   3.492  0.00  0.00    -0.380 OA
ATOM     15  H   UNL     1     -32.571  26.330   3.882  0.00  0.00    +0.211 HD
ENDBRANCH   5  14
BRANCH   6  16
ATOM     16  O   UNL     1     -34.038  25.557   5.914  0.00  0.00    -0.379 OA
ATOM     17  H   UNL     1     -33.961  26.491   5.665  0.00  0.00    +0.211 HD
ENDBRANCH   6  16
BRANCH   7  18
ATOM     18  C   UNL     1     -35.206  22.890   6.123  0.00  0.00    +0.169 C 
BRANCH  18  19
ATOM     19  O   UNL     1     -36.148  21.837   6.019  0.00  0.00    -0.379 OA
ATOM     20  H   UNL     1     -35.863  21.216   5.331  0.00  0.00    +0.211 HD
ENDBRANCH  18  19
ENDBRANCH   7  18
ENDBRANCH   2   8
ENDBRANCH   1   2
BRANCH   1  21
ATOM     21  C   UNL     1     -37.976  22.329   2.439  0.00  0.00    +0.124 C 
BRANCH  21  22
ATOM     22  N   UNL     1     -36.625  22.195   1.846  0.00  0.00    -0.177 NA
ATOM     23  H   UNL     1     -36.725  22.359   0.844  0.00  0.00    +0.149 HD
BRANCH  22  24
ATOM     24  S   UNL     1     -35.764  20.741   2.022  0.00  0.00    +0.060 S 
ATOM     25  O   UNL     1     -35.312  20.628   3.396  0.00  0.00    -0.153 OA
ATOM     26  O   UNL     1     -36.510  19.661   1.408  0.00  0.00    -0.153 OA
BRANCH  24  27
ATOM     27  C   UNL     1     -34.331  21.045   1.033  0.00  0.00    +0.122 C 
ATOM     28  C   UNL     1     -33.316  20.092   0.852  0.00  0.00    +0.020 C 
ATOM     29  C   UNL     1     -32.200  20.415   0.042  0.00  0.00    +0.015 C 
ATOM     30  C   UNL     1     -31.184  19.463  -0.138  0.00  0.00    +0.048 C 
ATOM     31  C   UNL     1     -34.248  22.298   0.424  0.00  0.00    +0.020 C 
ATOM     32  C   UNL     1     -33.382  18.826   1.456  0.00  0.00    +0.001 C 
ATOM     33  C   UNL     1     -32.133  21.681  -0.562  0.00  0.00    +0.001 C 
ATOM     34  C   UNL     1     -33.151  22.615  -0.371  0.00  0.00    +0.001 C 
ATOM     35  C   UNL     1     -31.266  18.209   0.470  0.00  0.00    +0.015 C 
ATOM     36  C   UNL     1     -32.363  17.892   1.265  0.00  0.00    +0.001 C 
BRANCH  30  37
ATOM     37  N   UNL     1     -30.046  19.734  -0.936  0.00  0.00    -0.304 N 
ATOM     38  C   UNL     1     -28.834  20.241  -0.328  0.00  0.00    +0.112 C 
ATOM     39  C   UNL     1     -30.082  19.495  -2.362  0.00  0.00    +0.112 C 
ENDBRANCH  30  37
ENDBRANCH  24  27
ENDBRANCH  22  24
ENDBRANCH  21  22
ENDBRANCH   1  21
TORSDOF 12
ENDMDL
MODEL 2
REMARK VINA RESULT:      -6.7      1.614      2.096
REMARK  Name = 194750
REMARK  12 active torsions:
REMARK  status: ('A' for Active; 'I' for Inactive)
REMARK    1  A    between atoms: C_1  and  O_2
REMARK    2  A    between atoms: C_1  and  C_21
REMARK    3  A    between atoms: O_2  and  C_8
REMARK    4  A    between atoms: C_4  and  N_10
REMARK    5  A    between atoms: C_5  and  O_14
REMARK    6  A    between atoms: C_6  and  O_16
REMARK    7  A    between atoms: C_7  and  C_18
REMARK    8  A    between atoms: C_18  and  O_19
REMARK    9  A    between atoms: C_21  and  N_22
REMARK   10  A    between atoms: N_22  and  S_24
REMARK   11  A    between atoms: S_24  and  C_27
REMARK   12  A    between atoms: C_30  and  N_37
REMARK                            x       y       z     vdW  Elec       q    Type
REMARK                         _______ _______ _______ _____ _____    ______ ____
ROOT
ATOM      1  C   UNL     1     -38.546  23.102   1.023  0.00  0.00    +0.164 C 
ENDROOT
BRANCH   1   2
ATOM      2  O   UNL     1     -37.625  24.085   1.474  0.00  0.00    -0.328 OA
BRANCH   2   8
ATOM      3  O   UNL     1     -37.685  24.336   3.824  0.00  0.00    -0.327 OA
ATOM      4  C   UNL     1     -37.818  26.319   2.412  0.00  0.00    +0.158 C 
ATOM      5  C   UNL     1     -36.314  26.550   2.599  0.00  0.00    +0.162 C 
ATOM      6  C   UNL     1     -35.839  25.930   3.920  0.00  0.00    +0.169 C 
ATOM      7  C   UNL     1     -36.265  24.459   3.997  0.00  0.00    +0.176 C 
ATOM      8  C   UNL     1     -38.157  24.830   2.567  0.00  0.00    +0.256 C 
BRANCH   4  10
ATOM      9  O   UNL     1     -40.542  26.969   1.640  0.00  0.00    -0.275 OA
ATOM     10  N   UNL     1     -38.272  26.827   1.137  0.00  0.00    -0.299 N 
ATOM     11  C   UNL     1     -39.601  27.109   0.862  0.00  0.00    +0.223 C 
ATOM     12  C   UNL     1     -39.794  27.648  -0.529  0.00  0.00    +0.095 C 
ATOM     13  H   UNL     1     -37.605  26.981   0.430  0.00  0.00    +0.150 HD
ENDBRANCH   4  10
BRANCH   5  14
ATOM     14  O   UNL     1     -36.040  27.949   2.598  0.00  0.00    -0.380 OA
ATOM     15  H   UNL     1     -35.258  28.124   2.051  0.00  0.00    +0.211 HD
ENDBRANCH   5  14
BRANCH   6  16
ATOM     16  O   UNL     1     -36.420  26.664   5.000  0.00  0.00    -0.379 OA
ATOM     17  H   UNL     1     -36.110  26.299   5.844  0.00  0.00    +0.211 HD
ENDBRANCH   6  16
BRANCH   7  18
ATOM     18  C   UNL     1     -35.915  23.809   5.331  0.00  0.00    +0.169 C 
BRANCH  18  19
ATOM     19  O   UNL     1     -36.273  22.440   5.273  0.00  0.00    -0.379 OA
ATOM     20  H   UNL     1     -35.984  22.066   4.426  0.00  0.00    +0.211 HD
ENDBRANCH  18  19
ENDBRANCH   7  18
ENDBRANCH   2   8
ENDBRANCH   1   2
BRANCH   1  21
ATOM     21  C   UNL     1     -38.078  21.730   1.471  0.00  0.00    +0.124 C 
BRANCH  21  22
ATOM     22  N   UNL     1     -36.723  21.834   2.059  0.00  0.00    -0.177 NA
ATOM     23  H   UNL     1     -36.222  22.544   1.523  0.00  0.00    +0.149 HD
BRANCH  22  24
ATOM     24  S   UNL     1     -35.718  20.465   2.119  0.00  0.00    +0.060 S 
ATOM     25  O   UNL     1     -35.160  20.354   3.454  0.00  0.00    -0.153 OA
ATOM     26  O   UNL     1     -36.403  19.338   1.518  0.00  0.00    -0.153 OA
BRANCH  24  27
ATOM     27  C   UNL     1     -34.396  20.936   1.045  0.00  0.00    +0.122 C 
ATOM     28  C   UNL     1     -33.281  20.117   0.807  0.00  0.00    +0.020 C 
ATOM     29  C   UNL     1     -32.265  20.569  -0.069  0.00  0.00    +0.015 C 
ATOM     30  C   UNL     1     -31.149  19.750  -0.306  0.00  0.00    +0.048 C 
ATOM     31  C   UNL     1     -34.508  22.183   0.429  0.00  0.00    +0.020 C 
ATOM     32  C   UNL     1     -33.151  18.859   1.418  0.00  0.00    +0.001 C 
ATOM     33  C   UNL     1     -32.393  21.827  -0.680  0.00  0.00    +0.001 C 
ATOM     34  C   UNL     1     -33.509  22.627  -0.432  0.00  0.00    +0.001 C 
ATOM     35  C   UNL     1     -31.036  18.502   0.310  0.00  0.00    +0.015 C 
ATOM     36  C   UNL     1     -32.036  18.058   1.170  0.00  0.00    +0.001 C 
BRANCH  30  37
ATOM     37  N   UNL     1     -30.103  20.154  -1.172  0.00  0.00    -0.304 N 
ATOM     38  C   UNL     1     -30.175  19.860  -2.587  0.00  0.00    +0.112 C 
ATOM     39  C   UNL     1     -28.963  20.874  -0.649  0.00  0.00    +0.112 C 
ENDBRANCH  30  37
ENDBRANCH  24  27
ENDBRANCH  22  24
ENDBRANCH  21  22
ENDBRANCH   1  21
TORSDOF 12
ENDMDL
MODEL 3
REMARK VINA RESULT:      -6.5      1.626      2.639
REMARK  Name = 194750
REMARK  12 active torsions:
REMARK  status: ('A' for Active; 'I' for Inactive)
REMARK    1  A    between atoms: C_1  and  O_2
REMARK    2  A    between atoms: C_1  and  C_21
REMARK    3  A    between atoms: O_2  and  C_8
REMARK    4  A    between atoms: C_4  and  N_10
REMARK    5  A    between atoms: C_5  and  O_14
REMARK    6  A    between atoms: C_6  and  O_16
REMARK    7  A    between atoms: C_7  and  C_18
REMARK    8  A    between atoms: C_18  and  O_19
REMARK    9  A    between atoms: C_21  and  N_22
REMARK   10  A    between atoms: N_22  and  S_24
REMARK   11  A    between atoms: S_24  and  C_27
REMARK   12  A    between atoms: C_30  and  N_37
REMARK                            x       y       z     vdW  Elec       q    Type
REMARK                         _______ _______ _______ _____ _____    ______ ____
ROOT
ATOM      1  C   UNL     1     -37.734  22.179   2.087  0.00  0.00    +0.164 C 
ENDROOT
BRANCH   1   2
ATOM      2  O   UNL     1     -36.771  23.211   2.244  0.00  0.00    -0.328 OA
BRANCH   2   8
ATOM      3  O   UNL     1     -36.752  23.276   4.607  0.00  0.00    -0.327 OA
ATOM      4  C   UNL     1     -36.239  25.306   3.357  0.00  0.00    +0.158 C 
ATOM      5  C   UNL     1     -34.741  25.027   3.525  0.00  0.00    +0.162 C 
ATOM      6  C   UNL     1     -34.492  24.183   4.782  0.00  0.00    +0.169 C 
ATOM      7  C   UNL     1     -35.368  22.925   4.755  0.00  0.00    +0.176 C 
ATOM      8  C   UNL     1     -37.038  23.996   3.404  0.00  0.00    +0.256 C 
BRANCH   4  10
ATOM      9  O   UNL     1     -38.720  26.598   2.576  0.00  0.00    -0.275 OA
ATOM     10  N   UNL     1     -36.503  26.034   2.137  0.00  0.00    -0.299 N 
ATOM     11  C   UNL     1     -37.727  26.619   1.852  0.00  0.00    +0.223 C 
ATOM     12  C   UNL     1     -37.724  27.335   0.529  0.00  0.00    +0.095 C 
ATOM     13  H   UNL     1     -35.779  26.119   1.476  0.00  0.00    +0.150 HD
ENDBRANCH   4  10
BRANCH   5  14
ATOM     14  O   UNL     1     -34.032  26.260   3.626  0.00  0.00    -0.380 OA
ATOM     15  H   UNL     1     -33.202  26.117   4.107  0.00  0.00    +0.211 HD
ENDBRANCH   5  14
BRANCH   6  16
ATOM     16  O   UNL     1     -34.810  24.974   5.929  0.00  0.00    -0.379 OA
ATOM     17  H   UNL     1     -35.639  24.657   6.323  0.00  0.00    +0.211 HD
ENDBRANCH   6  16
BRANCH   7  18
ATOM     18  C   UNL     1     -35.248  22.090   6.026  0.00  0.00    +0.169 C 
BRANCH  18  19
ATOM     19  O   UNL     1     -35.196  20.722   5.664  0.00  0.00    -0.379 OA
ATOM     20  H   UNL     1     -35.743  20.576   4.876  0.00  0.00    +0.211 HD
ENDBRANCH  18  19
ENDBRANCH   7  18
ENDBRANCH   2   8
ENDBRANCH   1   2
BRANCH   1  21
ATOM     21  C   UNL     1     -37.065  20.951   1.498  0.00  0.00    +0.124 C 
BRANCH  21  22
ATOM     22  N   UNL     1     -35.605  21.017   1.738  0.00  0.00    -0.177 NA
ATOM     23  H   UNL     1     -35.460  21.690   2.491  0.00  0.00    +0.149 HD
BRANCH  22  24
ATOM     24  S   UNL     1     -34.558  21.457   0.475  0.00  0.00    +0.060 S 
ATOM     25  O   UNL     1     -35.232  21.236  -0.791  0.00  0.00    -0.153 OA
ATOM     26  O   UNL     1     -33.963  22.746   0.770  0.00  0.00    -0.153 OA
BRANCH  24  27
ATOM     27  C   UNL     1     -33.293  20.230   0.606  0.00  0.00    +0.122 C 
ATOM     28  C   UNL     1     -32.027  20.376   0.016  0.00  0.00    +0.020 C 
ATOM     29  C   UNL     1     -31.069  19.345   0.169  0.00  0.00    +0.015 C 
ATOM     30  C   UNL     1     -29.804  19.491  -0.422  0.00  0.00    +0.048 C 
ATOM     31  C   UNL     1     -33.609  19.085   1.338  0.00  0.00    +0.020 C 
ATOM     32  C   UNL     1     -31.690  21.522  -0.724  0.00  0.00    +0.001 C 
ATOM     33  C   UNL     1     -31.405  18.199   0.908  0.00  0.00    +0.001 C 
ATOM     34  C   UNL     1     -32.667  18.071   1.488  0.00  0.00    +0.001 C 
ATOM     35  C   UNL     1     -29.486  20.636  -1.154  0.00  0.00    +0.015 C 
ATOM     36  C   UNL     1     -30.428  21.650  -1.304  0.00  0.00    +0.001 C 
BRANCH  30  37
ATOM     37  N   UNL     1     -28.809  18.489  -0.302  0.00  0.00    -0.304 N 
ATOM     38  C   UNL     1     -28.721  17.429  -1.283  0.00  0.00    +0.112 C 
ATOM     39  C   UNL     1     -27.867  18.527   0.794  0.00  0.00    +0.112 C 
ENDBRANCH  30  37
ENDBRANCH  24  27
ENDBRANCH  22  24
ENDBRANCH  21  22
ENDBRANCH   1  21
TORSDOF 12
ENDMDL
MODEL 4
REMARK VINA RESULT:      -6.4      2.117      4.183
REMARK  Name = 194750
REMARK  12 active torsions:
REMARK  status: ('A' for Active; 'I' for Inactive)
REMARK    1  A    between atoms: C_1  and  O_2
REMARK    2  A    between atoms: C_1  and  C_21
REMARK    3  A    between atoms: O_2  and  C_8
REMARK    4  A    between atoms: C_4  and  N_10
REMARK    5  A    between atoms: C_5  and  O_14
REMARK    6  A    between atoms: C_6  and  O_16
REMARK    7  A    between atoms: C_7  and  C_18
REMARK    8  A    between atoms: C_18  and  O_19
REMARK    9  A    between atoms: C_21  and  N_22
REMARK   10  A    between atoms: N_22  and  S_24
REMARK   11  A    between atoms: S_24  and  C_27
REMARK   12  A    between atoms: C_30  and  N_37
REMARK                            x       y       z     vdW  Elec       q    Type
REMARK                         _______ _______ _______ _____ _____    ______ ____
ROOT
ATOM      1  C   UNL     1     -37.989  21.425   1.753  0.00  0.00    +0.164 C 
ENDROOT
BRANCH   1   2
ATOM      2  O   UNL     1     -38.127  22.682   2.399  0.00  0.00    -0.328 OA
BRANCH   2   8
ATOM      3  O   UNL     1     -37.286  24.497   1.137  0.00  0.00    -0.327 OA
ATOM      4  C   UNL     1     -36.539  24.201   3.440  0.00  0.00    +0.158 C 
ATOM      5  C   UNL     1     -37.577  25.230   3.905  0.00  0.00    +0.162 C 
ATOM      6  C   UNL     1     -37.911  26.203   2.767  0.00  0.00    +0.169 C 
ATOM      7  C   UNL     1     -38.315  25.426   1.509  0.00  0.00    +0.176 C 
ATOM      8  C   UNL     1     -37.001  23.521   2.144  0.00  0.00    +0.256 C 
BRANCH   4  10
ATOM      9  O   UNL     1     -34.345  24.213   5.343  0.00  0.00    -0.275 OA
ATOM     10  N   UNL     1     -36.267  23.227   4.472  0.00  0.00    -0.299 N 
ATOM     11  C   UNL     1     -35.188  23.320   5.338  0.00  0.00    +0.223 C 
ATOM     12  C   UNL     1     -35.154  22.189   6.330  0.00  0.00    +0.095 C 
ATOM     13  H   UNL     1     -36.878  22.461   4.566  0.00  0.00    +0.150 HD
ENDBRANCH   4  10
BRANCH   5  14
ATOM     14  O   UNL     1     -37.066  25.954   5.022  0.00  0.00    -0.380 OA
ATOM     15  H   UNL     1     -36.323  26.508   4.736  0.00  0.00    +0.211 HD
ENDBRANCH   5  14
BRANCH   6  16
ATOM     16  O   UNL     1     -36.756  27.001   2.498  0.00  0.00    -0.379 OA
ATOM     17  H   UNL     1     -36.022  26.709   3.063  0.00  0.00    +0.211 HD
ENDBRANCH   6  16
BRANCH   7  18
ATOM     18  C   UNL     1     -38.562  26.330   0.306  0.00  0.00    +0.169 C 
BRANCH  18  19
ATOM     19  O   UNL     1     -39.027  27.584   0.771  0.00  0.00    -0.379 OA
ATOM     20  H   UNL     1     -39.910  27.756   0.407  0.00  0.00    +0.211 HD
ENDBRANCH  18  19
ENDBRANCH   7  18
ENDBRANCH   2   8
ENDBRANCH   1   2
BRANCH   1  21
ATOM     21  C   UNL     1     -36.609  20.862   2.036  0.00  0.00    +0.124 C 
BRANCH  21  22
ATOM     22  N   UNL     1     -35.951  20.493   0.762  0.00  0.00    -0.177 NA
ATOM     23  H   UNL     1     -35.691  19.509   0.838  0.00  0.00    +0.149 HD
BRANCH  22  24
ATOM     24  S   UNL     1     -34.564  21.330   0.250  0.00  0.00    +0.060 S 
ATOM     25  O   UNL     1     -34.672  21.588  -1.174  0.00  0.00    -0.153 OA
ATOM     26  O   UNL     1     -34.290  22.416   1.170  0.00  0.00    -0.153 OA
BRANCH  24  27
ATOM     27  C   UNL     1     -33.304  20.108   0.458  0.00  0.00    +0.122 C 
ATOM     28  C   UNL     1     -31.991  20.282  -0.008  0.00  0.00    +0.020 C 
ATOM     29  C   UNL     1     -31.041  19.253   0.200  0.00  0.00    +0.015 C 
ATOM     30  C   UNL     1     -29.728  19.428  -0.267  0.00  0.00    +0.048 C 
ATOM     31  C   UNL     1     -33.675  18.937   1.120  0.00  0.00    +0.020 C 
ATOM     32  C   UNL     1     -31.599  21.454  -0.676  0.00  0.00    +0.001 C 
ATOM     33  C   UNL     1     -31.432  18.081   0.867  0.00  0.00    +0.001 C 
ATOM     34  C   UNL     1     -32.741  17.926   1.324  0.00  0.00    +0.001 C 
ATOM     35  C   UNL     1     -29.356  20.599  -0.929  0.00  0.00    +0.015 C 
ATOM     36  C   UNL     1     -30.290  21.610  -1.133  0.00  0.00    +0.001 C 
BRANCH  30  37
ATOM     37  N   UNL     1     -28.739  18.430  -0.088  0.00  0.00    -0.304 N 
ATOM     38  C   UNL     1     -27.681  18.620   0.882  0.00  0.00    +0.112 C 
ATOM     39  C   UNL     1     -28.786  17.210  -0.862  0.00  0.00    +0.112 C 
ENDBRANCH  30  37
ENDBRANCH  24  27
ENDBRANCH  22  24
ENDBRANCH  21  22
ENDBRANCH   1  21
TORSDOF 12
ENDMDL
MODEL 5
REMARK VINA RESULT:      -6.3      4.244      7.134
REMARK  Name = 194750
REMARK  12 active torsions:
REMARK  status: ('A' for Active; 'I' for Inactive)
REMARK    1  A    between atoms: C_1  and  O_2
REMARK    2  A    between atoms: C_1  and  C_21
REMARK    3  A    between atoms: O_2  and  C_8
REMARK    4  A    between atoms: C_4  and  N_10
REMARK    5  A    between atoms: C_5  and  O_14
REMARK    6  A    between atoms: C_6  and  O_16
REMARK    7  A    between atoms: C_7  and  C_18
REMARK    8  A    between atoms: C_18  and  O_19
REMARK    9  A    between atoms: C_21  and  N_22
REMARK   10  A    between atoms: N_22  and  S_24
REMARK   11  A    between atoms: S_24  and  C_27
REMARK   12  A    between atoms: C_30  and  N_37
REMARK                            x       y       z     vdW  Elec       q    Type
REMARK                         _______ _______ _______ _____ _____    ______ ____
ROOT
ATOM      1  C   UNL     1     -33.697  30.855   3.262  0.00  0.00    +0.164 C 
ENDROOT
BRANCH   1   2
ATOM      2  O   UNL     1     -33.297  30.045   4.357  0.00  0.00    -0.328 OA
BRANCH   2   8
ATOM      3  O   UNL     1     -31.095  29.441   3.743  0.00  0.00    -0.327 OA
ATOM      4  C   UNL     1     -32.480  27.830   4.940  0.00  0.00    +0.158 C 
ATOM      5  C   UNL     1     -31.814  28.242   6.258  0.00  0.00    +0.162 C 
ATOM      6  C   UNL     1     -30.408  28.798   5.995  0.00  0.00    +0.169 C 
ATOM      7  C   UNL     1     -30.469  29.914   4.946  0.00  0.00    +0.176 C 
ATOM      8  C   UNL     1     -32.439  28.987   3.932  0.00  0.00    +0.256 C 
BRANCH   4  10
ATOM      9  O   UNL     1     -33.391  25.091   5.264  0.00  0.00    -0.275 OA
ATOM     10  N   UNL     1     -33.835  27.375   5.156  0.00  0.00    -0.299 N 
ATOM     11  C   UNL     1     -34.172  26.039   5.300  0.00  0.00    +0.223 C 
ATOM     12  C   UNL     1     -35.645  25.844   5.538  0.00  0.00    +0.095 C 
ATOM     13  H   UNL     1     -34.552  28.047   5.204  0.00  0.00    +0.150 HD
ENDBRANCH   4  10
BRANCH   5  14
ATOM     14  O   UNL     1     -31.730  27.113   7.125  0.00  0.00    -0.380 OA
ATOM     15  H   UNL     1     -31.053  27.275   7.800  0.00  0.00    +0.211 HD
ENDBRANCH   5  14
BRANCH   6  16
ATOM     16  O   UNL     1     -29.579  27.732   5.527  0.00  0.00    -0.379 OA
ATOM     17  H   UNL     1     -28.704  27.797   5.941  0.00  0.00    +0.211 HD
ENDBRANCH   6  16
BRANCH   7  18
ATOM     18  C   UNL     1     -29.092  30.442   4.560  0.00  0.00    +0.169 C 
BRANCH  18  19
ATOM     19  O   UNL     1     -28.246  30.367   5.693  0.00  0.00    -0.379 OA
ATOM     20  H   UNL     1     -28.593  30.942   6.393  0.00  0.00    +0.211 HD
ENDBRANCH  18  19
ENDBRANCH   7  18
ENDBRANCH   2   8
ENDBRANCH   1   2
BRANCH   1  21
ATOM     21  C   UNL     1     -35.197  30.729   3.065  0.00  0.00    +0.124 C 
BRANCH  21  22
ATOM     22  N   UNL     1     -35.563  29.300   2.934  0.00  0.00    -0.177 NA
ATOM     23  H   UNL     1     -34.810  28.762   3.365  0.00  0.00    +0.149 HD
BRANCH  22  24
ATOM     24  S   UNL     1     -35.827  28.629   1.396  0.00  0.00    +0.060 S 
ATOM     25  O   UNL     1     -37.252  28.627   1.125  0.00  0.00    -0.153 OA
ATOM     26  O   UNL     1     -34.905  29.222   0.447  0.00  0.00    -0.153 OA
BRANCH  24  27
ATOM     27  C   UNL     1     -35.347  26.947   1.644  0.00  0.00    +0.122 C 
ATOM     28  C   UNL     1     -36.238  25.960   2.096  0.00  0.00    +0.020 C 
ATOM     29  C   UNL     1     -35.772  24.634   2.268  0.00  0.00    +0.015 C 
ATOM     30  C   UNL     1     -36.663  23.648   2.721  0.00  0.00    +0.048 C 
ATOM     31  C   UNL     1     -34.016  26.631   1.365  0.00  0.00    +0.020 C 
ATOM     32  C   UNL     1     -37.580  26.259   2.381  0.00  0.00    +0.001 C 
ATOM     33  C   UNL     1     -34.430  24.334   1.984  0.00  0.00    +0.001 C 
ATOM     34  C   UNL     1     -33.559  25.327   1.535  0.00  0.00    +0.001 C 
ATOM     35  C   UNL     1     -37.994  23.963   3.000  0.00  0.00    +0.015 C 
ATOM     36  C   UNL     1     -38.451  25.266   2.830  0.00  0.00    +0.001 C 
BRANCH  30  37
ATOM     37  N   UNL     1     -36.250  22.306   2.912  0.00  0.00    -0.304 N 
ATOM     38  C   UNL     1     -36.502  21.315   1.889  0.00  0.00    +0.112 C 
ATOM     39  C   UNL     1     -35.563  21.922   4.125  0.00  0.00    +0.112 C 
ENDBRANCH  30  37
ENDBRANCH  24  27
ENDBRANCH  22  24
ENDBRANCH  21  22
ENDBRANCH   1  21
TORSDOF 12
ENDMDL
MODEL 6
REMARK VINA RESULT:      -6.3      2.322      3.065
REMARK  Name = 194750
REMARK  12 active torsions:
REMARK  status: ('A' for Active; 'I' for Inactive)
REMARK    1  A    between atoms: C_1  and  O_2
REMARK    2  A    between atoms: C_1  and  C_21
REMARK    3  A    between atoms: O_2  and  C_8
REMARK    4  A    between atoms: C_4  and  N_10
REMARK    5  A    between atoms: C_5  and  O_14
REMARK    6  A    between atoms: C_6  and  O_16
REMARK    7  A    between atoms: C_7  and  C_18
REMARK    8  A    between atoms: C_18  and  O_19
REMARK    9  A    between atoms: C_21  and  N_22
REMARK   10  A    between atoms: N_22  and  S_24
REMARK   11  A    between atoms: S_24  and  C_27
REMARK   12  A    between atoms: C_30  and  N_37
REMARK                            x       y       z     vdW  Elec       q    Type
REMARK                         _______ _______ _______ _____ _____    ______ ____
ROOT
ATOM      1  C   UNL     1     -35.889  23.966   0.242  0.00  0.00    +0.164 C 
ENDROOT
BRANCH   1   2
ATOM      2  O   UNL     1     -35.435  24.765   1.325  0.00  0.00    -0.328 OA
BRANCH   2   8
ATOM      3  O   UNL     1     -36.591  24.481   3.368  0.00  0.00    -0.327 OA
ATOM      4  C   UNL     1     -36.416  26.713   2.400  0.00  0.00    +0.158 C 
ATOM      5  C   UNL     1     -35.223  27.013   3.316  0.00  0.00    +0.162 C 
ATOM      6  C   UNL     1     -35.295  26.154   4.585  0.00  0.00    +0.169 C 
ATOM      7  C   UNL     1     -35.447  24.674   4.214  0.00  0.00    +0.176 C 
ATOM      8  C   UNL     1     -36.524  25.205   2.135  0.00  0.00    +0.256 C 
BRANCH   4  10
ATOM      9  O   UNL     1     -38.607  27.777   0.819  0.00  0.00    -0.275 OA
ATOM     10  N   UNL     1     -36.326  27.455   1.163  0.00  0.00    -0.299 N 
ATOM     11  C   UNL     1     -37.436  27.924   0.478  0.00  0.00    +0.223 C 
ATOM     12  C   UNL     1     -37.061  28.684  -0.765  0.00  0.00    +0.095 C 
ATOM     13  H   UNL     1     -35.434  27.636   0.789  0.00  0.00    +0.150 HD
ENDBRANCH   4  10
BRANCH   5  14
ATOM     14  O   UNL     1     -35.225  28.394   3.669  0.00  0.00    -0.380 OA
ATOM     15  H   UNL     1     -35.347  28.931   2.871  0.00  0.00    +0.211 HD
ENDBRANCH   5  14
BRANCH   6  16
ATOM     16  O   UNL     1     -36.418  26.581   5.358  0.00  0.00    -0.379 OA
ATOM     17  H   UNL     1     -36.274  27.490   5.666  0.00  0.00    +0.211 HD
ENDBRANCH   6  16
BRANCH   7  18
ATOM     18  C   UNL     1     -35.629  23.772   5.430  0.00  0.00    +0.169 C 
BRANCH  18  19
ATOM     19  O   UNL     1     -36.452  22.680   5.062  0.00  0.00    -0.379 OA
ATOM     20  H   UNL     1     -36.514  22.634   4.096  0.00  0.00    +0.211 HD
ENDBRANCH  18  19
ENDBRANCH   7  18
ENDBRANCH   2   8
ENDBRANCH   1   2
BRANCH   1  21
ATOM     21  C   UNL     1     -35.099  22.671   0.206  0.00  0.00    +0.124 C 
BRANCH  21  22
ATOM     22  N   UNL     1     -34.883  22.182   1.587  0.00  0.00    -0.177 NA
ATOM     23  H   UNL     1     -33.940  21.792   1.618  0.00  0.00    +0.149 HD
BRANCH  22  24
ATOM     24  S   UNL     1     -35.921  21.009   2.244  0.00  0.00    +0.060 S 
ATOM     25  O   UNL     1     -35.308  20.456   3.437  0.00  0.00    -0.153 OA
ATOM     26  O   UNL     1     -37.271  21.535   2.295  0.00  0.00    -0.153 OA
BRANCH  24  27
ATOM     27  C   UNL     1     -35.874  19.747   1.007  0.00  0.00    +0.122 C 
ATOM     28  C   UNL     1     -34.740  18.952   0.776  0.00  0.00    +0.020 C 
ATOM     29  C   UNL     1     -34.785  17.961  -0.235  0.00  0.00    +0.015 C 
ATOM     30  C   UNL     1     -33.651  17.166  -0.467  0.00  0.00    +0.048 C 
ATOM     31  C   UNL     1     -37.035  19.569   0.254  0.00  0.00    +0.020 C 
ATOM     32  C   UNL     1     -33.563  19.117   1.524  0.00  0.00    +0.001 C 
ATOM     33  C   UNL     1     -35.961  17.796  -0.984  0.00  0.00    +0.001 C 
ATOM     34  C   UNL     1     -37.078  18.595  -0.740  0.00  0.00    +0.001 C 
ATOM     35  C   UNL     1     -32.489  17.344   0.286  0.00  0.00    +0.015 C 
ATOM     36  C   UNL     1     -32.445  18.318   1.279  0.00  0.00    +0.001 C 
BRANCH  30  37
ATOM     37  N   UNL     1     -33.641  16.163  -1.467  0.00  0.00    -0.304 N 
ATOM     38  C   UNL     1     -33.231  16.484  -2.817  0.00  0.00    +0.112 C 
ATOM     39  C   UNL     1     -34.026  14.808  -1.142  0.00  0.00    +0.112 C 
ENDBRANCH  30  37
ENDBRANCH  24  27
ENDBRANCH  22  24
ENDBRANCH  21  22
ENDBRANCH   1  21
TORSDOF 12
ENDMDL
MODEL 7
REMARK VINA RESULT:      -6.2      4.266      7.836
REMARK  Name = 194750
REMARK  12 active torsions:
REMARK  status: ('A' for Active; 'I' for Inactive)
REMARK    1  A    between atoms: C_1  and  O_2
REMARK    2  A    between atoms: C_1  and  C_21
REMARK    3  A    between atoms: O_2  and  C_8
REMARK    4  A    between atoms: C_4  and  N_10
REMARK    5  A    between atoms: C_5  and  O_14
REMARK    6  A    between atoms: C_6  and  O_16
REMARK    7  A    between atoms: C_7  and  C_18
REMARK    8  A    between atoms: C_18  and  O_19
REMARK    9  A    between atoms: C_21  and  N_22
REMARK   10  A    between atoms: N_22  and  S_24
REMARK   11  A    between atoms: S_24  and  C_27
REMARK   12  A    between atoms: C_30  and  N_37
REMARK                            x       y       z     vdW  Elec       q    Type
REMARK                         _______ _______ _______ _____ _____    ______ ____
ROOT
ATOM      1  C   UNL     1     -34.356  24.282   0.312  0.00  0.00    +0.164 C 
ENDROOT
BRANCH   1   2
ATOM      2  O   UNL     1     -34.476  23.541   1.518  0.00  0.00    -0.328 OA
BRANCH   2   8
ATOM      3  O   UNL     1     -36.110  21.970   0.847  0.00  0.00    -0.327 OA
ATOM      4  C   UNL     1     -36.037  22.690   3.176  0.00  0.00    +0.158 C 
ATOM      5  C   UNL     1     -35.229  21.437   3.535  0.00  0.00    +0.162 C 
ATOM      6  C   UNL     1     -35.522  20.309   2.537  0.00  0.00    +0.169 C 
ATOM      7  C   UNL     1     -35.310  20.805   1.102  0.00  0.00    +0.176 C 
ATOM      8  C   UNL     1     -35.810  23.073   1.707  0.00  0.00    +0.256 C 
BRANCH   4  10
ATOM      9  O   UNL     1     -37.858  24.693   4.227  0.00  0.00    -0.275 OA
ATOM     10  N   UNL     1     -35.718  23.790   4.057  0.00  0.00    -0.299 N 
ATOM     11  C   UNL     1     -36.662  24.700   4.508  0.00  0.00    +0.223 C 
ATOM     12  C   UNL     1     -36.069  25.728   5.431  0.00  0.00    +0.095 C 
ATOM     13  H   UNL     1     -34.786  23.899   4.353  0.00  0.00    +0.150 HD
ENDBRANCH   4  10
BRANCH   5  14
ATOM     14  O   UNL     1     -35.565  21.012   4.853  0.00  0.00    -0.380 OA
ATOM     15  H   UNL     1     -35.342  20.073   4.956  0.00  0.00    +0.211 HD
ENDBRANCH   5  14
BRANCH   6  16
ATOM     16  O   UNL     1     -36.876  19.888   2.713  0.00  0.00    -0.379 OA
ATOM     17  H   UNL     1     -37.097  19.894   3.658  0.00  0.00    +0.211 HD
ENDBRANCH   6  16
BRANCH   7  18
ATOM     18  C   UNL     1     -35.684  19.764   0.052  0.00  0.00    +0.169 C 
BRANCH  18  19
ATOM     19  O   UNL     1     -35.327  18.483   0.541  0.00  0.00    -0.379 OA
ATOM     20  H   UNL     1     -35.923  17.817   0.164  0.00  0.00    +0.211 HD
ENDBRANCH  18  19
ENDBRANCH   7  18
ENDBRANCH   2   8
ENDBRANCH   1   2
BRANCH   1  21
ATOM     21  C   UNL     1     -34.303  25.764   0.635  0.00  0.00    +0.124 C 
BRANCH  21  22
ATOM     22  N   UNL     1     -33.066  26.064   1.392  0.00  0.00    -0.177 NA
ATOM     23  H   UNL     1     -32.516  25.206   1.411  0.00  0.00    +0.149 HD
BRANCH  22  24
ATOM     24  S   UNL     1     -33.167  26.619   2.995  0.00  0.00    +0.060 S 
ATOM     25  O   UNL     1     -34.270  27.556   3.098  0.00  0.00    -0.153 OA
ATOM     26  O   UNL     1     -33.081  25.491   3.901  0.00  0.00    -0.153 OA
BRANCH  24  27
ATOM     27  C   UNL     1     -31.678  27.557   3.150  0.00  0.00    +0.122 C 
ATOM     28  C   UNL     1     -31.328  28.241   4.326  0.00  0.00    +0.020 C 
ATOM     29  C   UNL     1     -30.115  28.970   4.367  0.00  0.00    +0.015 C 
ATOM     30  C   UNL     1     -29.767  29.655   5.543  0.00  0.00    +0.048 C 
ATOM     31  C   UNL     1     -30.843  27.591   2.032  0.00  0.00    +0.020 C 
ATOM     32  C   UNL     1     -32.155  28.218   5.461  0.00  0.00    +0.001 C 
ATOM     33  C   UNL     1     -29.289  28.994   3.233  0.00  0.00    +0.001 C 
ATOM     34  C   UNL     1     -29.651  28.309   2.073  0.00  0.00    +0.001 C 
ATOM     35  C   UNL     1     -30.600  29.621   6.662  0.00  0.00    +0.015 C 
ATOM     36  C   UNL     1     -31.792  28.904   6.620  0.00  0.00    +0.001 C 
BRANCH  30  37
ATOM     37  N   UNL     1     -28.566  30.401   5.638  0.00  0.00    -0.304 N 
ATOM     38  C   UNL     1     -27.374  29.794   6.190  0.00  0.00    +0.112 C 
ATOM     39  C   UNL     1     -28.520  31.769   5.172  0.00  0.00    +0.112 C 
ENDBRANCH  30  37
ENDBRANCH  24  27
ENDBRANCH  22  24
ENDBRANCH  21  22
ENDBRANCH   1  21
TORSDOF 12
ENDMDL
MODEL 8
REMARK VINA RESULT:      -6.1      2.512      4.404
REMARK  Name = 194750
REMARK  12 active torsions:
REMARK  status: ('A' for Active; 'I' for Inactive)
REMARK    1  A    between atoms: C_1  and  O_2
REMARK    2  A    between atoms: C_1  and  C_21
REMARK    3  A    between atoms: O_2  and  C_8
REMARK    4  A    between atoms: C_4  and  N_10
REMARK    5  A    between atoms: C_5  and  O_14
REMARK    6  A    between atoms: C_6  and  O_16
REMARK    7  A    between atoms: C_7  and  C_18
REMARK    8  A    between atoms: C_18  and  O_19
REMARK    9  A    between atoms: C_21  and  N_22
REMARK   10  A    between atoms: N_22  and  S_24
REMARK   11  A    between atoms: S_24  and  C_27
REMARK   12  A    between atoms: C_30  and  N_37
REMARK                            x       y       z     vdW  Elec       q    Type
REMARK                         _______ _______ _______ _____ _____    ______ ____
ROOT
ATOM      1  C   UNL     1     -39.331  21.685   2.021  0.00  0.00    +0.164 C 
ENDROOT
BRANCH   1   2
ATOM      2  O   UNL     1     -38.966  22.810   2.807  0.00  0.00    -0.328 OA
BRANCH   2   8
ATOM      3  O   UNL     1     -38.130  24.457   1.331  0.00  0.00    -0.327 OA
ATOM      4  C   UNL     1     -36.966  24.042   3.433  0.00  0.00    +0.158 C 
ATOM      5  C   UNL     1     -37.697  25.230   4.069  0.00  0.00    +0.162 C 
ATOM      6  C   UNL     1     -38.103  26.245   2.992  0.00  0.00    +0.169 C 
ATOM      7  C   UNL     1     -38.890  25.546   1.877  0.00  0.00    +0.176 C 
ATOM      8  C   UNL     1     -37.800  23.447   2.290  0.00  0.00    +0.256 C 
BRANCH   4  10
ATOM      9  O   UNL     1     -34.500  23.785   4.947  0.00  0.00    -0.275 OA
ATOM     10  N   UNL     1     -36.642  23.036   4.420  0.00  0.00    -0.299 N 
ATOM     11  C   UNL     1     -35.431  22.997   5.093  0.00  0.00    +0.223 C 
ATOM     12  C   UNL     1     -35.365  21.864   6.081  0.00  0.00    +0.095 C 
ATOM     13  H   UNL     1     -37.314  22.347   4.624  0.00  0.00    +0.150 HD
ENDBRANCH   4  10
BRANCH   5  14
ATOM     14  O   UNL     1     -36.847  25.859   5.025  0.00  0.00    -0.380 OA
ATOM     15  H   UNL     1     -35.924  25.625   4.841  0.00  0.00    +0.211 HD
ENDBRANCH   5  14
BRANCH   6  16
ATOM     16  O   UNL     1     -36.918  26.837   2.456  0.00  0.00    -0.379 OA
ATOM     17  H   UNL     1     -36.551  26.261   1.767  0.00  0.00    +0.211 HD
ENDBRANCH   6  16
BRANCH   7  18
ATOM     18  C   UNL     1     -39.237  26.478   0.721  0.00  0.00    +0.169 C 
BRANCH  18  19
ATOM     19  O   UNL     1     -40.282  27.339   1.134  0.00  0.00    -0.379 OA
ATOM     20  H   UNL     1     -41.102  26.829   1.230  0.00  0.00    +0.211 HD
ENDBRANCH  18  19
ENDBRANCH   7  18
ENDBRANCH   2   8
ENDBRANCH   1   2
BRANCH   1  21
ATOM     21  C   UNL     1     -38.150  21.267   1.164  0.00  0.00    +0.124 C 
BRANCH  21  22
ATOM     22  N   UNL     1     -37.299  20.319   1.919  0.00  0.00    -0.177 NA
ATOM     23  H   UNL     1     -37.508  20.457   2.908  0.00  0.00    +0.149 HD
BRANCH  22  24
ATOM     24  S   UNL     1     -35.608  20.387   1.761  0.00  0.00    +0.060 S 
ATOM     25  O   UNL     1     -35.255  21.591   1.032  0.00  0.00    -0.153 OA
ATOM     26  O   UNL     1     -34.993  20.103   3.042  0.00  0.00    -0.153 OA
BRANCH  24  27
ATOM     27  C   UNL     1     -35.287  19.022   0.686  0.00  0.00    +0.122 C 
ATOM     28  C   UNL     1     -33.996  18.519   0.460  0.00  0.00    +0.020 C 
ATOM     29  C   UNL     1     -33.825  17.421  -0.417  0.00  0.00    +0.015 C 
ATOM     30  C   UNL     1     -32.533  16.919  -0.644  0.00  0.00    +0.048 C 
ATOM     31  C   UNL     1     -36.394  18.449   0.058  0.00  0.00    +0.020 C 
ATOM     32  C   UNL     1     -32.870  19.082   1.083  0.00  0.00    +0.001 C 
ATOM     33  C   UNL     1     -34.950  16.858  -1.041  0.00  0.00    +0.001 C 
ATOM     34  C   UNL     1     -36.226  17.370  -0.804  0.00  0.00    +0.001 C 
ATOM     35  C   UNL     1     -31.426  17.490  -0.017  0.00  0.00    +0.015 C 
ATOM     36  C   UNL     1     -31.594  18.570   0.845  0.00  0.00    +0.001 C 
BRANCH  30  37
ATOM     37  N   UNL     1     -32.306  15.823  -1.513  0.00  0.00    -0.304 N 
ATOM     38  C   UNL     1     -32.084  16.048  -2.925  0.00  0.00    +0.112 C 
ATOM     39  C   UNL     1     -32.279  14.475  -0.992  0.00  0.00    +0.112 C 
ENDBRANCH  30  37
ENDBRANCH  24  27
ENDBRANCH  22  24
ENDBRANCH  21  22
ENDBRANCH   1  21
TORSDOF 12
ENDMDL
MODEL 9
REMARK VINA RESULT:      -6.1      3.747      6.601
REMARK  Name = 194750
REMARK  12 active torsions:
REMARK  status: ('A' for Active; 'I' for Inactive)
REMARK    1  A    between atoms: C_1  and  O_2
REMARK    2  A    between atoms: C_1  and  C_21
REMARK    3  A    between atoms: O_2  and  C_8
REMARK    4  A    between atoms: C_4  and  N_10
REMARK    5  A    between atoms: C_5  and  O_14
REMARK    6  A    between atoms: C_6  and  O_16
REMARK    7  A    between atoms: C_7  and  C_18
REMARK    8  A    between atoms: C_18  and  O_19
REMARK    9  A    between atoms: C_21  and  N_22
REMARK   10  A    between atoms: N_22  and  S_24
REMARK   11  A    between atoms: S_24  and  C_27
REMARK   12  A    between atoms: C_30  and  N_37
REMARK                            x       y       z     vdW  Elec       q    Type
REMARK                         _______ _______ _______ _____ _____    ______ ____
ROOT
ATOM      1  C   UNL     1     -34.432  29.935   2.651  0.00  0.00    +0.164 C 
ENDROOT
BRANCH   1   2
ATOM      2  O   UNL     1     -33.790  29.507   3.843  0.00  0.00    -0.328 OA
BRANCH   2   8
ATOM      3  O   UNL     1     -31.559  28.981   3.262  0.00  0.00    -0.327 OA
ATOM      4  C   UNL     1     -32.772  27.507   4.780  0.00  0.00    +0.158 C 
ATOM      5  C   UNL     1     -32.114  28.203   5.977  0.00  0.00    +0.162 C 
ATOM      6  C   UNL     1     -30.768  28.814   5.565  0.00  0.00    +0.169 C 
ATOM      7  C   UNL     1     -30.949  29.713   4.336  0.00  0.00    +0.176 C 
ATOM      8  C   UNL     1     -32.855  28.463   3.581  0.00  0.00    +0.256 C 
BRANCH   4  10
ATOM      9  O   UNL     1     -33.687  24.757   4.598  0.00  0.00    -0.275 OA
ATOM     10  N   UNL     1     -34.077  26.991   5.126  0.00  0.00    -0.299 N 
ATOM     11  C   UNL     1     -34.422  25.654   5.004  0.00  0.00    +0.223 C 
ATOM     12  C   UNL     1     -35.831  25.384   5.455  0.00  0.00    +0.095 C 
ATOM     13  H   UNL     1     -34.755  27.620   5.465  0.00  0.00    +0.150 HD
ENDBRANCH   4  10
BRANCH   5  14
ATOM     14  O   UNL     1     -31.913  27.261   7.028  0.00  0.00    -0.380 OA
ATOM     15  H   UNL     1     -32.759  26.843   7.252  0.00  0.00    +0.211 HD
ENDBRANCH   5  14
BRANCH   6  16
ATOM     16  O   UNL     1     -29.861  27.752   5.263  0.00  0.00    -0.379 OA
ATOM     17  H   UNL     1     -30.201  26.921   5.632  0.00  0.00    +0.211 HD
ENDBRANCH   6  16
BRANCH   7  18
ATOM     18  C   UNL     1     -29.632  30.272   3.810  0.00  0.00    +0.169 C 
BRANCH  18  19
ATOM     19  O   UNL     1     -28.704  30.323   4.879  0.00  0.00    -0.379 OA
ATOM     20  H   UNL     1     -28.596  29.435   5.254  0.00  0.00    +0.211 HD
ENDBRANCH  18  19
ENDBRANCH   7  18
ENDBRANCH   2   8
ENDBRANCH   1   2
BRANCH   1  21
ATOM     21  C   UNL     1     -34.853  28.721   1.843  0.00  0.00    +0.124 C 
BRANCH  21  22
ATOM     22  N   UNL     1     -36.298  28.468   2.040  0.00  0.00    -0.177 NA
ATOM     23  H   UNL     1     -36.392  27.967   2.924  0.00  0.00    +0.149 HD
BRANCH  22  24
ATOM     24  S   UNL     1     -37.171  27.586   0.880  0.00  0.00    +0.060 S 
ATOM     25  O   UNL     1     -38.494  28.166   0.749  0.00  0.00    -0.153 OA
ATOM     26  O   UNL     1     -36.344  27.383  -0.293  0.00  0.00    -0.153 OA
BRANCH  24  27
ATOM     27  C   UNL     1     -37.370  26.024   1.684  0.00  0.00    +0.122 C 
ATOM     28  C   UNL     1     -36.385  25.024   1.656  0.00  0.00    +0.020 C 
ATOM     29  C   UNL     1     -36.624  23.800   2.327  0.00  0.00    +0.015 C 
ATOM     30  C   UNL     1     -35.639  22.799   2.298  0.00  0.00    +0.048 C 
ATOM     31  C   UNL     1     -38.572  25.822   2.364  0.00  0.00    +0.020 C 
ATOM     32  C   UNL     1     -35.170  25.209   0.977  0.00  0.00    +0.001 C 
ATOM     33  C   UNL     1     -37.839  23.613   3.005  0.00  0.00    +0.001 C 
ATOM     34  C   UNL     1     -38.806  24.619   3.023  0.00  0.00    +0.001 C 
ATOM     35  C   UNL     1     -34.437  23.000   1.619  0.00  0.00    +0.015 C 
ATOM     36  C   UNL     1     -34.203  24.203   0.960  0.00  0.00    +0.001 C 
BRANCH  30  37
ATOM     37  N   UNL     1     -35.827  21.555   2.951  0.00  0.00    -0.304 N 
ATOM     38  C   UNL     1     -36.309  20.410   2.210  0.00  0.00    +0.112 C 
ATOM     39  C   UNL     1     -35.524  21.419   4.358  0.00  0.00    +0.112 C 
ENDBRANCH  30  37
ENDBRANCH  24  27
ENDBRANCH  22  24
ENDBRANCH  21  22
ENDBRANCH   1  21
TORSDOF 12
ENDMDL
