MODEL 1
REMARK VINA RESULT:      -6.1      0.000      0.000
REMARK  Name = 5312144
REMARK  4 active torsions:
REMARK  status: ('A' for Active; 'I' for Inactive)
REMARK    1  A    between atoms: N_1  and  C_5
REMARK    2  A    between atoms: N_1  and  S_15
REMARK    3  A    between atoms: S_15  and  C_18
REMARK    4  A    between atoms: C_23  and  N_24
REMARK                            x       y       z     vdW  Elec       q    Type
REMARK                         _______ _______ _______ _____ _____    ______ ____
ROOT
ATOM      1  N   UNL     1     -36.552  21.681   3.353  0.00  0.00    -0.218 N 
ATOM      2  H   UNL     1     -36.593  21.427   4.304  0.00  0.00    +0.173 HD
ENDROOT
BRANCH   1   5
ATOM      3  N   UNL     1     -35.333  18.908   0.412  0.00  0.00    -0.377 NA
ATOM      4  N   UNL     1     -33.062  19.263   1.039  0.00  0.00    -0.310 N 
ATOM      5  C   UNL     1     -36.137  20.737   2.351  0.00  0.00    +0.055 C 
ATOM      6  C   UNL     1     -34.790  20.460   2.184  0.00  0.00    +0.117 C 
ATOM      7  C   UNL     1     -37.087  20.111   1.561  0.00  0.00    +0.059 C 
ATOM      8  C   UNL     1     -34.442  19.542   1.207  0.00  0.00    +0.164 C 
ATOM      9  C   UNL     1     -36.636  19.210   0.611  0.00  0.00    +0.182 C 
ATOM     10  C   UNL     1     -32.575  18.337   0.069  0.00  0.00    +0.110 C 
ATOM     11  H   UNL     1     -32.414  19.728   1.617  0.00  0.00    +0.149 HD
ATOM     12  N   UNL     1     -37.612  18.573  -0.195  0.00  0.00    -0.307 N 
ATOM     13  C   UNL     1     -37.276  17.627  -1.209  0.00  0.00    +0.110 C 
ATOM     14  H   UNL     1     -38.560  18.792  -0.050  0.00  0.00    +0.149 HD
ENDBRANCH   1   5
BRANCH   1  15
ATOM     15  S   UNL     1     -36.977  23.271   2.843  0.00  0.00    +0.073 S 
ATOM     16  O   UNL     1     -36.533  23.438   1.465  0.00  0.00    -0.150 OA
ATOM     17  O   UNL     1     -38.374  23.530   3.167  0.00  0.00    -0.150 OA
BRANCH  15  18
ATOM     18  C   UNL     1     -35.972  24.283   3.851  0.00  0.00    +0.125 C 
ATOM     19  C   UNL     1     -36.553  25.097   4.822  0.00  0.00    +0.021 C 
ATOM     20  C   UNL     1     -34.586  24.276   3.684  0.00  0.00    +0.021 C 
ATOM     21  C   UNL     1     -35.750  25.905   5.627  0.00  0.00    +0.015 C 
ATOM     22  C   UNL     1     -33.783  25.084   4.489  0.00  0.00    +0.015 C 
ATOM     23  C   UNL     1     -34.365  25.899   5.460  0.00  0.00    +0.042 C 
BRANCH  23  24
ATOM     24  N   UNL     1     -33.553  26.714   6.275  0.00  0.00    -0.357 N 
ATOM     25  H   UNL     1     -32.729  27.111   5.910  0.00  0.00    +0.142 HD
ATOM     26  H   UNL     1     -33.810  26.887   7.210  0.00  0.00    +0.142 HD
ENDBRANCH  23  24
ENDBRANCH  15  18
ENDBRANCH   1  15
TORSDOF 4
ENDMDL
MODEL 2
REMARK VINA RESULT:      -6.1      0.200      2.346
REMARK  Name = 5312144
REMARK  4 active torsions:
REMARK  status: ('A' for Active; 'I' for Inactive)
REMARK    1  A    between atoms: N_1  and  C_5
REMARK    2  A    between atoms: N_1  and  S_15
REMARK    3  A    between atoms: S_15  and  C_18
REMARK    4  A    between atoms: C_23  and  N_24
REMARK                            x       y       z     vdW  Elec       q    Type
REMARK                         _______ _______ _______ _____ _____    ______ ____
ROOT
ATOM      1  N   UNL     1     -36.690  21.673   3.294  0.00  0.00    -0.218 N 
ATOM      2  H   UNL     1     -36.795  21.400   4.234  0.00  0.00    +0.173 HD
ENDROOT
BRANCH   1   5
ATOM      3  N   UNL     1     -35.289  18.950   0.385  0.00  0.00    -0.377 NA
ATOM      4  N   UNL     1     -37.490  18.800  -0.513  0.00  0.00    -0.310 N 
ATOM      5  C   UNL     1     -36.213  20.746   2.304  0.00  0.00    +0.055 C 
ATOM      6  C   UNL     1     -37.094  20.221   1.371  0.00  0.00    +0.117 C 
ATOM      7  C   UNL     1     -34.877  20.383   2.289  0.00  0.00    +0.059 C 
ATOM      8  C   UNL     1     -36.584  19.334   0.438  0.00  0.00    +0.164 C 
ATOM      9  C   UNL     1     -34.466  19.488   1.315  0.00  0.00    +0.182 C 
ATOM     10  C   UNL     1     -37.090  17.878  -1.525  0.00  0.00    +0.110 C 
ATOM     11  H   UNL     1     -38.434  19.077  -0.472  0.00  0.00    +0.149 HD
ATOM     12  N   UNL     1     -33.098  19.120   1.305  0.00  0.00    -0.307 N 
ATOM     13  C   UNL     1     -32.553  18.206   0.355  0.00  0.00    +0.110 C 
ATOM     14  H   UNL     1     -32.499  19.512   1.981  0.00  0.00    +0.149 HD
ENDBRANCH   1   5
BRANCH   1  15
ATOM     15  S   UNL     1     -37.075  23.274   2.787  0.00  0.00    +0.073 S 
ATOM     16  O   UNL     1     -36.614  23.436   1.413  0.00  0.00    -0.150 OA
ATOM     17  O   UNL     1     -38.468  23.562   3.099  0.00  0.00    -0.150 OA
BRANCH  15  18
ATOM     18  C   UNL     1     -36.056  24.258   3.808  0.00  0.00    +0.125 C 
ATOM     19  C   UNL     1     -36.630  25.099   4.762  0.00  0.00    +0.021 C 
ATOM     20  C   UNL     1     -34.668  24.204   3.670  0.00  0.00    +0.021 C 
ATOM     21  C   UNL     1     -35.817  25.886   5.578  0.00  0.00    +0.015 C 
ATOM     22  C   UNL     1     -33.856  24.990   4.486  0.00  0.00    +0.015 C 
ATOM     23  C   UNL     1     -34.430  25.831   5.440  0.00  0.00    +0.042 C 
BRANCH  23  24
ATOM     24  N   UNL     1     -33.607  26.625   6.266  0.00  0.00    -0.357 N 
ATOM     25  H   UNL     1     -33.601  26.480   7.240  0.00  0.00    +0.142 HD
ATOM     26  H   UNL     1     -33.040  27.325   5.868  0.00  0.00    +0.142 HD
ENDBRANCH  23  24
ENDBRANCH  15  18
ENDBRANCH   1  15
TORSDOF 4
ENDMDL
MODEL 3
REMARK VINA RESULT:      -6.0      2.727      6.724
REMARK  Name = 5312144
REMARK  4 active torsions:
REMARK  status: ('A' for Active; 'I' for Inactive)
REMARK    1  A    between atoms: N_1  and  C_5
REMARK    2  A    between atoms: N_1  and  S_15
REMARK    3  A    between atoms: S_15  and  C_18
REMARK    4  A    between atoms: C_23  and  N_24
REMARK                            x       y       z     vdW  Elec       q    Type
REMARK                         _______ _______ _______ _____ _____    ______ ____
ROOT
ATOM      1  N   UNL     1     -35.361  20.829   2.215  0.00  0.00    -0.218 N 
ATOM      2  H   UNL     1     -35.261  20.001   2.739  0.00  0.00    +0.173 HD
ENDROOT
BRANCH   1   5
ATOM      3  N   UNL     1     -37.287  24.214   3.847  0.00  0.00    -0.377 NA
ATOM      4  N   UNL     1     -35.328  24.700   5.112  0.00  0.00    -0.310 N 
ATOM      5  C   UNL     1     -36.017  21.981   2.770  0.00  0.00    +0.055 C 
ATOM      6  C   UNL     1     -35.345  22.784   3.678  0.00  0.00    +0.117 C 
ATOM      7  C   UNL     1     -37.316  22.281   2.394  0.00  0.00    +0.059 C 
ATOM      8  C   UNL     1     -36.020  23.883   4.183  0.00  0.00    +0.164 C 
ATOM      9  C   UNL     1     -37.903  23.402   2.958  0.00  0.00    +0.182 C 
ATOM     10  C   UNL     1     -35.912  25.860   5.703  0.00  0.00    +0.110 C 
ATOM     11  H   UNL     1     -34.406  24.456   5.359  0.00  0.00    +0.149 HD
ATOM     12  N   UNL     1     -39.232  23.704   2.570  0.00  0.00    -0.307 N 
ATOM     13  C   UNL     1     -39.947  24.828   3.079  0.00  0.00    +0.110 C 
ATOM     14  H   UNL     1     -39.681  23.113   1.923  0.00  0.00    +0.149 HD
ENDBRANCH   1   5
BRANCH   1  15
ATOM     15  S   UNL     1     -34.756  20.938   0.605  0.00  0.00    +0.073 S 
ATOM     16  O   UNL     1     -35.711  20.285  -0.283  0.00  0.00    -0.150 OA
ATOM     17  O   UNL     1     -34.362  22.313   0.325  0.00  0.00    -0.150 OA
BRANCH  15  18
ATOM     18  C   UNL     1     -33.320  19.945   0.663  0.00  0.00    +0.125 C 
ATOM     19  C   UNL     1     -32.164  20.351  -0.002  0.00  0.00    +0.021 C 
ATOM     20  C   UNL     1     -33.330  18.745   1.377  0.00  0.00    +0.021 C 
ATOM     21  C   UNL     1     -31.017  19.559   0.044  0.00  0.00    +0.015 C 
ATOM     22  C   UNL     1     -32.184  17.953   1.423  0.00  0.00    +0.015 C 
ATOM     23  C   UNL     1     -31.027  18.359   0.756  0.00  0.00    +0.042 C 
BRANCH  23  24
ATOM     24  N   UNL     1     -29.868  17.558   0.805  0.00  0.00    -0.357 N 
ATOM     25  H   UNL     1     -28.992  17.946   0.576  0.00  0.00    +0.142 HD
ATOM     26  H   UNL     1     -29.934  16.611   1.066  0.00  0.00    +0.142 HD
ENDBRANCH  23  24
ENDBRANCH  15  18
ENDBRANCH   1  15
TORSDOF 4
ENDMDL
MODEL 4
REMARK VINA RESULT:      -6.0      2.725      7.101
REMARK  Name = 5312144
REMARK  4 active torsions:
REMARK  status: ('A' for Active; 'I' for Inactive)
REMARK    1  A    between atoms: N_1  and  C_5
REMARK    2  A    between atoms: N_1  and  S_15
REMARK    3  A    between atoms: S_15  and  C_18
REMARK    4  A    between atoms: C_23  and  N_24
REMARK                            x       y       z     vdW  Elec       q    Type
REMARK                         _______ _______ _______ _____ _____    ______ ____
ROOT
ATOM      1  N   UNL     1     -35.365  20.828   2.216  0.00  0.00    -0.218 N 
ATOM      2  H   UNL     1     -35.262  20.002   2.742  0.00  0.00    +0.173 HD
ENDROOT
BRANCH   1   5
ATOM      3  N   UNL     1     -37.289  24.215   3.848  0.00  0.00    -0.377 NA
ATOM      4  N   UNL     1     -39.234  23.707   2.570  0.00  0.00    -0.310 N 
ATOM      5  C   UNL     1     -36.020  21.981   2.771  0.00  0.00    +0.055 C 
ATOM      6  C   UNL     1     -37.319  22.283   2.395  0.00  0.00    +0.117 C 
ATOM      7  C   UNL     1     -35.348  22.783   3.679  0.00  0.00    +0.059 C 
ATOM      8  C   UNL     1     -37.905  23.403   2.960  0.00  0.00    +0.164 C 
ATOM      9  C   UNL     1     -36.022  23.882   4.186  0.00  0.00    +0.182 C 
ATOM     10  C   UNL     1     -39.948  24.832   3.079  0.00  0.00    +0.110 C 
ATOM     11  H   UNL     1     -39.681  23.117   1.920  0.00  0.00    +0.149 HD
ATOM     12  N   UNL     1     -35.329  24.698   5.114  0.00  0.00    -0.307 N 
ATOM     13  C   UNL     1     -35.913  25.858   5.705  0.00  0.00    +0.110 C 
ATOM     14  H   UNL     1     -34.408  24.455   5.360  0.00  0.00    +0.149 HD
ENDBRANCH   1   5
BRANCH   1  15
ATOM     15  S   UNL     1     -34.765  20.934   0.605  0.00  0.00    +0.073 S 
ATOM     16  O   UNL     1     -35.719  20.274  -0.278  0.00  0.00    -0.150 OA
ATOM     17  O   UNL     1     -34.378  22.309   0.318  0.00  0.00    -0.150 OA
BRANCH  15  18
ATOM     18  C   UNL     1     -33.325  19.948   0.662  0.00  0.00    +0.125 C 
ATOM     19  C   UNL     1     -32.170  20.360  -0.002  0.00  0.00    +0.021 C 
ATOM     20  C   UNL     1     -33.330  18.746   1.373  0.00  0.00    +0.021 C 
ATOM     21  C   UNL     1     -31.020  19.573   0.044  0.00  0.00    +0.015 C 
ATOM     22  C   UNL     1     -32.180  17.959   1.418  0.00  0.00    +0.015 C 
ATOM     23  C   UNL     1     -31.025  18.372   0.753  0.00  0.00    +0.042 C 
BRANCH  23  24
ATOM     24  N   UNL     1     -29.861  17.576   0.801  0.00  0.00    -0.357 N 
ATOM     25  H   UNL     1     -29.664  17.040   1.603  0.00  0.00    +0.142 HD
ATOM     26  H   UNL     1     -29.246  17.558   0.033  0.00  0.00    +0.142 HD
ENDBRANCH  23  24
ENDBRANCH  15  18
ENDBRANCH   1  15
TORSDOF 4
ENDMDL
MODEL 5
REMARK VINA RESULT:      -5.9      4.169      5.894
REMARK  Name = 5312144
REMARK  4 active torsions:
REMARK  status: ('A' for Active; 'I' for Inactive)
REMARK    1  A    between atoms: N_1  and  C_5
REMARK    2  A    between atoms: N_1  and  S_15
REMARK    3  A    between atoms: S_15  and  C_18
REMARK    4  A    between atoms: C_23  and  N_24
REMARK                            x       y       z     vdW  Elec       q    Type
REMARK                         _______ _______ _______ _____ _____    ______ ____
ROOT
ATOM      1  N   UNL     1     -35.556  27.256   4.148  0.00  0.00    -0.218 N 
ATOM      2  H   UNL     1     -36.078  27.918   4.656  0.00  0.00    +0.173 HD
ENDROOT
BRANCH   1   5
ATOM      3  N   UNL     1     -36.621  23.170   4.166  0.00  0.00    -0.377 NA
ATOM      4  N   UNL     1     -38.124  23.569   2.361  0.00  0.00    -0.310 N 
ATOM      5  C   UNL     1     -35.919  25.865   4.154  0.00  0.00    +0.055 C 
ATOM      6  C   UNL     1     -36.853  25.393   3.246  0.00  0.00    +0.117 C 
ATOM      7  C   UNL     1     -35.332  25.005   5.068  0.00  0.00    +0.059 C 
ATOM      8  C   UNL     1     -37.167  24.045   3.292  0.00  0.00    +0.164 C 
ATOM      9  C   UNL     1     -35.714  23.674   5.033  0.00  0.00    +0.182 C 
ATOM     10  C   UNL     1     -38.532  22.203   2.306  0.00  0.00    +0.110 C 
ATOM     11  H   UNL     1     -38.524  24.208   1.727  0.00  0.00    +0.149 HD
ATOM     12  N   UNL     1     -35.111  22.800   5.971  0.00  0.00    -0.307 N 
ATOM     13  C   UNL     1     -35.421  21.410   6.038  0.00  0.00    +0.110 C 
ATOM     14  H   UNL     1     -34.451  23.168   6.602  0.00  0.00    +0.149 HD
ENDBRANCH   1   5
BRANCH   1  15
ATOM     15  S   UNL     1     -34.181  27.731   3.225  0.00  0.00    +0.073 S 
ATOM     16  O   UNL     1     -33.646  26.545   2.566  0.00  0.00    -0.150 OA
ATOM     17  O   UNL     1     -34.516  28.894   2.414  0.00  0.00    -0.150 OA
BRANCH  15  18
ATOM     18  C   UNL     1     -33.039  28.216   4.454  0.00  0.00    +0.125 C 
ATOM     19  C   UNL     1     -32.278  29.372   4.282  0.00  0.00    +0.021 C 
ATOM     20  C   UNL     1     -32.888  27.446   5.609  0.00  0.00    +0.021 C 
ATOM     21  C   UNL     1     -31.365  29.760   5.263  0.00  0.00    +0.015 C 
ATOM     22  C   UNL     1     -31.976  27.834   6.590  0.00  0.00    +0.015 C 
ATOM     23  C   UNL     1     -31.214  28.990   6.417  0.00  0.00    +0.042 C 
BRANCH  23  24
ATOM     24  N   UNL     1     -30.293  29.383   7.410  0.00  0.00    -0.357 N 
ATOM     25  H   UNL     1     -29.396  29.698   7.153  0.00  0.00    +0.142 HD
ATOM     26  H   UNL     1     -30.547  29.341   8.361  0.00  0.00    +0.142 HD
ENDBRANCH  23  24
ENDBRANCH  15  18
ENDBRANCH   1  15
TORSDOF 4
ENDMDL
MODEL 6
REMARK VINA RESULT:      -5.9      4.632      9.663
REMARK  Name = 5312144
REMARK  4 active torsions:
REMARK  status: ('A' for Active; 'I' for Inactive)
REMARK    1  A    between atoms: N_1  and  C_5
REMARK    2  A    between atoms: N_1  and  S_15
REMARK    3  A    between atoms: S_15  and  C_18
REMARK    4  A    between atoms: C_23  and  N_24
REMARK                            x       y       z     vdW  Elec       q    Type
REMARK                         _______ _______ _______ _____ _____    ______ ____
ROOT
ATOM      1  N   UNL     1     -33.153  27.908   4.889  0.00  0.00    -0.218 N 
ATOM      2  H   UNL     1     -33.927  27.888   5.498  0.00  0.00    +0.173 HD
ENDROOT
BRANCH   1   5
ATOM      3  N   UNL     1     -29.769  30.282   5.751  0.00  0.00    -0.377 NA
ATOM      4  N   UNL     1     -29.294  28.896   7.629  0.00  0.00    -0.310 N 
ATOM      5  C   UNL     1     -32.001  28.717   5.182  0.00  0.00    +0.055 C 
ATOM      6  C   UNL     1     -31.204  28.408   6.273  0.00  0.00    +0.117 C 
ATOM      7  C   UNL     1     -31.696  29.799   4.373  0.00  0.00    +0.059 C 
ATOM      8  C   UNL     1     -30.105  29.217   6.512  0.00  0.00    +0.164 C 
ATOM      9  C   UNL     1     -30.576  30.546   4.698  0.00  0.00    +0.182 C 
ATOM     10  C   UNL     1     -28.135  29.650   7.982  0.00  0.00    +0.110 C 
ATOM     11  H   UNL     1     -29.541  28.121   8.185  0.00  0.00    +0.149 HD
ATOM     12  N   UNL     1     -30.269  31.652   3.867  0.00  0.00    -0.307 N 
ATOM     13  C   UNL     1     -29.145  32.499   4.096  0.00  0.00    +0.110 C 
ATOM     14  H   UNL     1     -30.856  31.843   3.100  0.00  0.00    +0.149 HD
ENDBRANCH   1   5
BRANCH   1  15
ATOM     15  S   UNL     1     -33.141  26.975   3.441  0.00  0.00    +0.073 S 
ATOM     16  O   UNL     1     -33.932  27.681   2.440  0.00  0.00    -0.150 OA
ATOM     17  O   UNL     1     -31.771  26.599   3.115  0.00  0.00    -0.150 OA
BRANCH  15  18
ATOM     18  C   UNL     1     -34.022  25.538   3.898  0.00  0.00    +0.125 C 
ATOM     19  C   UNL     1     -34.333  25.307   5.238  0.00  0.00    +0.021 C 
ATOM     20  C   UNL     1     -34.416  24.621   2.922  0.00  0.00    +0.021 C 
ATOM     21  C   UNL     1     -35.037  24.160   5.603  0.00  0.00    +0.015 C 
ATOM     22  C   UNL     1     -35.120  23.474   3.287  0.00  0.00    +0.015 C 
ATOM     23  C   UNL     1     -35.430  23.243   4.628  0.00  0.00    +0.042 C 
BRANCH  23  24
ATOM     24  N   UNL     1     -36.143  22.084   4.997  0.00  0.00    -0.357 N 
ATOM     25  H   UNL     1     -35.658  21.247   5.187  0.00  0.00    +0.142 HD
ATOM     26  H   UNL     1     -37.125  22.110   5.064  0.00  0.00    +0.142 HD
ENDBRANCH  23  24
ENDBRANCH  15  18
ENDBRANCH   1  15
TORSDOF 4
ENDMDL
MODEL 7
REMARK VINA RESULT:      -5.9      4.217      5.583
REMARK  Name = 5312144
REMARK  4 active torsions:
REMARK  status: ('A' for Active; 'I' for Inactive)
REMARK    1  A    between atoms: N_1  and  C_5
REMARK    2  A    between atoms: N_1  and  S_15
REMARK    3  A    between atoms: S_15  and  C_18
REMARK    4  A    between atoms: C_23  and  N_24
REMARK                            x       y       z     vdW  Elec       q    Type
REMARK                         _______ _______ _______ _____ _____    ______ ____
ROOT
ATOM      1  N   UNL     1     -35.554  27.403   3.803  0.00  0.00    -0.218 N 
ATOM      2  H   UNL     1     -36.123  28.113   4.180  0.00  0.00    +0.173 HD
ENDROOT
BRANCH   1   5
ATOM      3  N   UNL     1     -36.654  23.338   4.123  0.00  0.00    -0.377 NA
ATOM      4  N   UNL     1     -35.200  23.108   5.996  0.00  0.00    -0.310 N 
ATOM      5  C   UNL     1     -35.929  26.019   3.912  0.00  0.00    +0.055 C 
ATOM      6  C   UNL     1     -35.376  25.233   4.910  0.00  0.00    +0.117 C 
ATOM      7  C   UNL     1     -36.840  25.481   3.018  0.00  0.00    +0.059 C 
ATOM      8  C   UNL     1     -35.770  23.907   4.973  0.00  0.00    +0.164 C 
ATOM      9  C   UNL     1     -37.168  24.143   3.165  0.00  0.00    +0.182 C 
ATOM     10  C   UNL     1     -35.525  21.729   6.168  0.00  0.00    +0.110 C 
ATOM     11  H   UNL     1     -34.554  23.522   6.613  0.00  0.00    +0.149 HD
ATOM     12  N   UNL     1     -38.100  23.598   2.247  0.00  0.00    -0.307 N 
ATOM     13  C   UNL     1     -38.517  22.235   2.292  0.00  0.00    +0.110 C 
ATOM     14  H   UNL     1     -38.474  24.184   1.550  0.00  0.00    +0.149 HD
ENDBRANCH   1   5
BRANCH   1  15
ATOM     15  S   UNL     1     -34.082  27.783   2.994  0.00  0.00    +0.073 S 
ATOM     16  O   UNL     1     -33.535  26.549   2.444  0.00  0.00    -0.150 OA
ATOM     17  O   UNL     1     -34.294  28.916   2.103  0.00  0.00    -0.150 OA
BRANCH  15  18
ATOM     18  C   UNL     1     -33.040  28.288   4.302  0.00  0.00    +0.125 C 
ATOM     19  C   UNL     1     -32.418  29.535   4.257  0.00  0.00    +0.021 C 
ATOM     20  C   UNL     1     -32.831  27.443   5.393  0.00  0.00    +0.021 C 
ATOM     21  C   UNL     1     -31.587  29.939   5.302  0.00  0.00    +0.015 C 
ATOM     22  C   UNL     1     -32.000  27.846   6.438  0.00  0.00    +0.015 C 
ATOM     23  C   UNL     1     -31.377  29.094   6.392  0.00  0.00    +0.042 C 
BRANCH  23  24
ATOM     24  N   UNL     1     -30.538  29.502   7.449  0.00  0.00    -0.357 N 
ATOM     25  H   UNL     1     -30.905  29.606   8.357  0.00  0.00    +0.142 HD
ATOM     26  H   UNL     1     -29.585  29.684   7.279  0.00  0.00    +0.142 HD
ENDBRANCH  23  24
ENDBRANCH  15  18
ENDBRANCH   1  15
TORSDOF 4
ENDMDL
MODEL 8
REMARK VINA RESULT:      -5.9      4.732      9.885
REMARK  Name = 5312144
REMARK  4 active torsions:
REMARK  status: ('A' for Active; 'I' for Inactive)
REMARK    1  A    between atoms: N_1  and  C_5
REMARK    2  A    between atoms: N_1  and  S_15
REMARK    3  A    between atoms: S_15  and  C_18
REMARK    4  A    between atoms: C_23  and  N_24
REMARK                            x       y       z     vdW  Elec       q    Type
REMARK                         _______ _______ _______ _____ _____    ______ ____
ROOT
ATOM      1  N   UNL     1     -32.968  27.866   5.133  0.00  0.00    -0.218 N 
ATOM      2  H   UNL     1     -33.653  27.747   5.830  0.00  0.00    +0.173 HD
ENDROOT
BRANCH   1   5
ATOM      3  N   UNL     1     -29.621  30.359   5.777  0.00  0.00    -0.377 NA
ATOM      4  N   UNL     1     -30.250  31.666   3.888  0.00  0.00    -0.310 N 
ATOM      5  C   UNL     1     -31.828  28.714   5.352  0.00  0.00    +0.055 C 
ATOM      6  C   UNL     1     -31.595  29.785   4.504  0.00  0.00    +0.117 C 
ATOM      7  C   UNL     1     -30.972  28.456   6.410  0.00  0.00    +0.059 C 
ATOM      8  C   UNL     1     -30.484  30.573   4.759  0.00  0.00    +0.164 C 
ATOM      9  C   UNL     1     -29.889  29.303   6.579  0.00  0.00    +0.182 C 
ATOM     10  C   UNL     1     -29.143  32.552   4.044  0.00  0.00    +0.110 C 
ATOM     11  H   UNL     1     -30.878  31.820   3.144  0.00  0.00    +0.149 HD
ATOM     12  N   UNL     1     -29.016  29.034   7.663  0.00  0.00    -0.307 N 
ATOM     13  C   UNL     1     -27.866  29.830   7.941  0.00  0.00    +0.110 C 
ATOM     14  H   UNL     1     -29.212  28.265   8.246  0.00  0.00    +0.149 HD
ENDBRANCH   1   5
BRANCH   1  15
ATOM     15  S   UNL     1     -33.100  27.063   3.615  0.00  0.00    +0.073 S 
ATOM     16  O   UNL     1     -33.932  27.881   2.741  0.00  0.00    -0.150 OA
ATOM     17  O   UNL     1     -31.775  26.667   3.155  0.00  0.00    -0.150 OA
BRANCH  15  18
ATOM     18  C   UNL     1     -34.006  25.624   4.015  0.00  0.00    +0.125 C 
ATOM     19  C   UNL     1     -34.358  24.720   3.013  0.00  0.00    +0.021 C 
ATOM     20  C   UNL     1     -34.377  25.379   5.338  0.00  0.00    +0.021 C 
ATOM     21  C   UNL     1     -35.082  23.571   3.333  0.00  0.00    +0.015 C 
ATOM     22  C   UNL     1     -35.100  24.230   5.658  0.00  0.00    +0.015 C 
ATOM     23  C   UNL     1     -35.453  23.327   4.655  0.00  0.00    +0.042 C 
BRANCH  23  24
ATOM     24  N   UNL     1     -36.183  22.164   4.979  0.00  0.00    -0.357 N 
ATOM     25  H   UNL     1     -35.891  21.288   4.636  0.00  0.00    +0.142 HD
ATOM     26  H   UNL     1     -36.984  22.229   5.547  0.00  0.00    +0.142 HD
ENDBRANCH  23  24
ENDBRANCH  15  18
ENDBRANCH   1  15
TORSDOF 4
ENDMDL
MODEL 9
REMARK VINA RESULT:      -5.8      4.536      6.520
REMARK  Name = 5312144
REMARK  4 active torsions:
REMARK  status: ('A' for Active; 'I' for Inactive)
REMARK    1  A    between atoms: N_1  and  C_5
REMARK    2  A    between atoms: N_1  and  S_15
REMARK    3  A    between atoms: S_15  and  C_18
REMARK    4  A    between atoms: C_23  and  N_24
REMARK                            x       y       z     vdW  Elec       q    Type
REMARK                         _______ _______ _______ _____ _____    ______ ____
ROOT
ATOM      1  N   UNL     1     -35.559  27.295   4.419  0.00  0.00    -0.218 N 
ATOM      2  H   UNL     1     -35.978  27.884   5.088  0.00  0.00    +0.173 HD
ENDROOT
BRANCH   1   5
ATOM      3  N   UNL     1     -36.553  23.197   4.201  0.00  0.00    -0.377 NA
ATOM      4  N   UNL     1     -38.109  23.682   2.464  0.00  0.00    -0.310 N 
ATOM      5  C   UNL     1     -35.898  25.900   4.345  0.00  0.00    +0.055 C 
ATOM      6  C   UNL     1     -36.847  25.470   3.432  0.00  0.00    +0.117 C 
ATOM      7  C   UNL     1     -35.272  24.995   5.187  0.00  0.00    +0.059 C 
ATOM      8  C   UNL     1     -37.136  24.116   3.399  0.00  0.00    +0.164 C 
ATOM      9  C   UNL     1     -35.633  23.662   5.077  0.00  0.00    +0.182 C 
ATOM     10  C   UNL     1     -38.494  22.314   2.331  0.00  0.00    +0.110 C 
ATOM     11  H   UNL     1     -38.535  24.352   1.881  0.00  0.00    +0.149 HD
ATOM     12  N   UNL     1     -34.990  22.741   5.941  0.00  0.00    -0.307 N 
ATOM     13  C   UNL     1     -35.275  21.344   5.926  0.00  0.00    +0.110 C 
ATOM     14  H   UNL     1     -34.321  23.080   6.578  0.00  0.00    +0.149 HD
ENDBRANCH   1   5
BRANCH   1  15
ATOM     15  S   UNL     1     -34.399  27.908   3.302  0.00  0.00    +0.073 S 
ATOM     16  O   UNL     1     -33.358  28.591   4.060  0.00  0.00    -0.150 OA
ATOM     17  O   UNL     1     -34.015  26.855   2.372  0.00  0.00    -0.150 OA
BRANCH  15  18
ATOM     18  C   UNL     1     -35.304  29.121   2.431  0.00  0.00    +0.125 C 
ATOM     19  C   UNL     1     -36.069  28.759   1.322  0.00  0.00    +0.021 C 
ATOM     20  C   UNL     1     -35.262  30.454   2.844  0.00  0.00    +0.021 C 
ATOM     21  C   UNL     1     -36.791  29.728   0.626  0.00  0.00    +0.015 C 
ATOM     22  C   UNL     1     -35.985  31.422   2.148  0.00  0.00    +0.015 C 
ATOM     23  C   UNL     1     -36.749  31.060   1.039  0.00  0.00    +0.042 C 
BRANCH  23  24
ATOM     24  N   UNL     1     -37.481  32.039   0.336  0.00  0.00    -0.357 N 
ATOM     25  H   UNL     1     -37.016  32.663  -0.267  0.00  0.00    +0.142 HD
ATOM     26  H   UNL     1     -38.457  32.099   0.450  0.00  0.00    +0.142 HD
ENDBRANCH  23  24
ENDBRANCH  15  18
ENDBRANCH   1  15
TORSDOF 4
ENDMDL
