MODEL 1
REMARK VINA RESULT:      -6.3      0.000      0.000
REMARK  Name = 5458701
REMARK  5 active torsions:
REMARK  status: ('A' for Active; 'I' for Inactive)
REMARK    1  A    between atoms: C_3  and  O_21
REMARK    2  A    between atoms: C_5  and  O_23
REMARK    3  A    between atoms: C_10  and  O_25
REMARK    4  A    between atoms: C_11  and  O_27
REMARK    5  A    between atoms: C_16  and  O_29
REMARK                            x       y       z     vdW  Elec       q    Type
REMARK                         _______ _______ _______ _____ _____    ______ ____
ROOT
ATOM      1  C   UNL     1     -34.317  25.902   3.953  0.00  0.00    +0.029 C 
ATOM      2  C   UNL     1     -33.609  26.244   2.590  0.00  0.00    +0.002 C 
ATOM      3  C   UNL     1     -35.680  26.621   4.005  0.00  0.00    +0.113 C 
ATOM      4  C   UNL     1     -32.986  28.685   3.483  0.00  0.00    +0.029 C 
ATOM      5  C   UNL     1     -32.095  28.258   4.680  0.00  0.00    +0.115 C 
ATOM      6  C   UNL     1     -36.501  25.775   3.009  0.00  0.00    +0.052 C 
ATOM      7  C   UNL     1     -33.198  27.728   2.289  0.00  0.00    +0.002 C 
ATOM      8  C   UNL     1     -34.752  24.370   3.940  0.00  0.00    +0.029 C 
ATOM      9  C   UNL     1     -33.389  26.051   5.175  0.00  0.00    +0.034 C 
ATOM     10  C   UNL     1     -36.225  24.333   3.484  0.00  0.00    +0.091 C 
ATOM     11  C   UNL     1     -32.930  27.424   5.671  0.00  0.00    +0.135 C 
ATOM     12  C   UNL     1     -34.495  25.758   1.398  0.00  0.00    +0.000 C 
ATOM     13  C   UNL     1     -31.487  29.634   5.247  0.00  0.00    +0.050 C 
ATOM     14  C   UNL     1     -35.990  26.060   1.587  0.00  0.00    +0.005 C 
ATOM     15  C   UNL     1     -32.444  30.058   3.069  0.00  0.00    +0.032 C 
ATOM     16  C   UNL     1     -32.210  30.724   4.409  0.00  0.00    +0.113 C 
ATOM     17  C   UNL     1     -32.022  27.735   1.284  0.00  0.00    +0.000 C 
ATOM     18  C   UNL     1     -36.539  23.221   2.490  0.00  0.00    +0.029 C 
ATOM     19  C   UNL     1     -29.954  29.714   5.052  0.00  0.00    +0.005 C 
ATOM     20  C   UNL     1     -31.761  29.952   6.731  0.00  0.00    +0.005 C 
ENDROOT
BRANCH   3  21
ATOM     21  O   UNL     1     -36.276  26.577   5.294  0.00  0.00    -0.384 OA
ATOM     22  H   UNL     1     -37.159  26.978   5.255  0.00  0.00    +0.210 HD
ENDBRANCH   3  21
BRANCH   5  23
ATOM     23  O   UNL     1     -31.036  27.428   4.200  0.00  0.00    -0.384 OA
ATOM     24  H   UNL     1     -30.991  26.620   4.735  0.00  0.00    +0.210 HD
ENDBRANCH   5  23
BRANCH  10  25
ATOM     25  O   UNL     1     -37.055  24.046   4.622  0.00  0.00    -0.387 OA
ATOM     26  H   UNL     1     -37.045  23.092   4.797  0.00  0.00    +0.210 HD
ENDBRANCH  10  25
BRANCH  11  27
ATOM     27  O   UNL     1     -32.116  27.150   6.822  0.00  0.00    -0.382 OA
ATOM     28  H   UNL     1     -32.633  26.649   7.471  0.00  0.00    +0.210 HD
ENDBRANCH  11  27
BRANCH  16  29
ATOM     29  O   UNL     1     -31.460  31.917   4.270  0.00  0.00    -0.384 OA
ATOM     30  H   UNL     1     -31.442  32.388   5.118  0.00  0.00    +0.210 HD
ENDBRANCH  16  29
TORSDOF 5
ENDMDL
MODEL 2
REMARK VINA RESULT:      -6.3      3.216      8.106
REMARK  Name = 5458701
REMARK  5 active torsions:
REMARK  status: ('A' for Active; 'I' for Inactive)
REMARK    1  A    between atoms: C_3  and  O_21
REMARK    2  A    between atoms: C_5  and  O_23
REMARK    3  A    between atoms: C_10  and  O_25
REMARK    4  A    between atoms: C_11  and  O_27
REMARK    5  A    between atoms: C_16  and  O_29
REMARK                            x       y       z     vdW  Elec       q    Type
REMARK                         _______ _______ _______ _____ _____    ______ ____
ROOT
ATOM      1  C   UNL     1     -36.176  24.708   2.739  0.00  0.00    +0.029 C 
ATOM      2  C   UNL     1     -35.770  23.200   2.929  0.00  0.00    +0.002 C 
ATOM      3  C   UNL     1     -37.171  25.103   3.848  0.00  0.00    +0.113 C 
ATOM      4  C   UNL     1     -38.128  22.402   1.958  0.00  0.00    +0.029 C 
ATOM      5  C   UNL     1     -37.999  23.018   0.539  0.00  0.00    +0.115 C 
ATOM      6  C   UNL     1     -36.234  25.187   5.072  0.00  0.00    +0.052 C 
ATOM      7  C   UNL     1     -36.864  22.085   2.787  0.00  0.00    +0.002 C 
ATOM      8  C   UNL     1     -34.921  25.629   3.076  0.00  0.00    +0.029 C 
ATOM      9  C   UNL     1     -36.557  25.056   1.286  0.00  0.00    +0.034 C 
ATOM     10  C   UNL     1     -35.074  26.062   4.549  0.00  0.00    +0.091 C 
ATOM     11  C   UNL     1     -37.855  24.548   0.654  0.00  0.00    +0.135 C 
ATOM     12  C   UNL     1     -35.091  23.007   4.324  0.00  0.00    +0.000 C 
ATOM     13  C   UNL     1     -39.290  22.485  -0.257  0.00  0.00    +0.050 C 
ATOM     14  C   UNL     1     -35.802  23.763   5.457  0.00  0.00    +0.005 C 
ATOM     15  C   UNL     1     -39.048  21.190   1.769  0.00  0.00    +0.032 C 
ATOM     16  C   UNL     1     -40.105  21.737   0.833  0.00  0.00    +0.113 C 
ATOM     17  C   UNL     1     -36.186  20.755   2.383  0.00  0.00    +0.000 C 
ATOM     18  C   UNL     1     -33.777  26.013   5.348  0.00  0.00    +0.029 C 
ATOM     19  C   UNL     1     -38.904  21.528  -1.411  0.00  0.00    +0.005 C 
ATOM     20  C   UNL     1     -40.221  23.554  -0.861  0.00  0.00    +0.005 C 
ENDROOT
BRANCH   3  21
ATOM     21  O   UNL     1     -37.785  26.363   3.613  0.00  0.00    -0.384 OA
ATOM     22  H   UNL     1     -38.448  26.533   4.301  0.00  0.00    +0.210 HD
ENDBRANCH   3  21
BRANCH   5  23
ATOM     23  O   UNL     1     -36.813  22.517  -0.080  0.00  0.00    -0.384 OA
ATOM     24  H   UNL     1     -36.984  21.631  -0.437  0.00  0.00    +0.210 HD
ENDBRANCH   5  23
BRANCH  10  25
ATOM     25  O   UNL     1     -35.472  27.442   4.587  0.00  0.00    -0.387 OA
ATOM     26  H   UNL     1     -36.125  27.571   5.293  0.00  0.00    +0.210 HD
ENDBRANCH  10  25
BRANCH  11  27
ATOM     27  O   UNL     1     -37.862  25.099  -0.672  0.00  0.00    -0.382 OA
ATOM     28  H   UNL     1     -38.745  25.445  -0.874  0.00  0.00    +0.210 HD
ENDBRANCH  11  27
BRANCH  16  29
ATOM     29  O   UNL     1     -40.922  20.703   0.316  0.00  0.00    -0.384 OA
ATOM     30  H   UNL     1     -40.471  20.277  -0.430  0.00  0.00    +0.210 HD
ENDBRANCH  16  29
TORSDOF 5
ENDMDL
MODEL 3
REMARK VINA RESULT:      -6.2      6.393      9.544
REMARK  Name = 5458701
REMARK  5 active torsions:
REMARK  status: ('A' for Active; 'I' for Inactive)
REMARK    1  A    between atoms: C_3  and  O_21
REMARK    2  A    between atoms: C_5  and  O_23
REMARK    3  A    between atoms: C_10  and  O_25
REMARK    4  A    between atoms: C_11  and  O_27
REMARK    5  A    between atoms: C_16  and  O_29
REMARK                            x       y       z     vdW  Elec       q    Type
REMARK                         _______ _______ _______ _____ _____    ______ ____
ROOT
ATOM      1  C   UNL     1     -35.943  20.759   0.699  0.00  0.00    +0.029 C 
ATOM      2  C   UNL     1     -34.647  21.551   0.288  0.00  0.00    +0.002 C 
ATOM      3  C   UNL     1     -35.943  20.556   2.227  0.00  0.00    +0.113 C 
ATOM      4  C   UNL     1     -33.156  19.358   0.620  0.00  0.00    +0.029 C 
ATOM      5  C   UNL     1     -33.837  18.467  -0.453  0.00  0.00    +0.115 C 
ATOM      6  C   UNL     1     -36.282  21.980   2.716  0.00  0.00    +0.052 C 
ATOM      7  C   UNL     1     -33.240  20.897   0.522  0.00  0.00    +0.002 C 
ATOM      8  C   UNL     1     -37.212  21.700   0.490  0.00  0.00    +0.029 C 
ATOM      9  C   UNL     1     -36.205  19.521  -0.182  0.00  0.00    +0.034 C 
ATOM     10  C   UNL     1     -37.510  22.349   1.857  0.00  0.00    +0.091 C 
ATOM     11  C   UNL     1     -35.323  18.274  -0.094  0.00  0.00    +0.135 C 
ATOM     12  C   UNL     1     -34.633  22.945   0.994  0.00  0.00    +0.000 C 
ATOM     13  C   UNL     1     -32.941  17.134  -0.506  0.00  0.00    +0.050 C 
ATOM     14  C   UNL     1     -35.065  22.886   2.467  0.00  0.00    +0.005 C 
ATOM     15  C   UNL     1     -31.717  18.834   0.699  0.00  0.00    +0.032 C 
ATOM     16  C   UNL     1     -31.922  17.335   0.649  0.00  0.00    +0.113 C 
ATOM     17  C   UNL     1     -32.225  21.502  -0.477  0.00  0.00    +0.000 C 
ATOM     18  C   UNL     1     -37.859  23.830   1.777  0.00  0.00    +0.029 C 
ATOM     19  C   UNL     1     -32.212  16.979  -1.863  0.00  0.00    +0.005 C 
ATOM     20  C   UNL     1     -33.667  15.800  -0.239  0.00  0.00    +0.005 C 
ENDROOT
BRANCH   3  21
ATOM     21  O   UNL     1     -36.938  19.639   2.660  0.00  0.00    -0.384 OA
ATOM     22  H   UNL     1     -37.806  20.073   2.645  0.00  0.00    +0.210 HD
ENDBRANCH   3  21
BRANCH   5  23
ATOM     23  O   UNL     1     -33.780  19.133  -1.716  0.00  0.00    -0.384 OA
ATOM     24  H   UNL     1     -32.987  18.848  -2.197  0.00  0.00    +0.210 HD
ENDBRANCH   5  23
BRANCH  10  25
ATOM     25  O   UNL     1     -38.679  21.731   2.419  0.00  0.00    -0.387 OA
ATOM     26  H   UNL     1     -39.466  22.242   2.170  0.00  0.00    +0.210 HD
ENDBRANCH  10  25
BRANCH  11  27
ATOM     27  O   UNL     1     -35.894  17.349  -1.032  0.00  0.00    -0.382 OA
ATOM     28  H   UNL     1     -36.154  17.824  -1.837  0.00  0.00    +0.210 HD
ENDBRANCH  11  27
BRANCH  16  29
ATOM     29  O   UNL     1     -30.699  16.652   0.447  0.00  0.00    -0.384 OA
ATOM     30  H   UNL     1     -30.850  15.878  -0.119  0.00  0.00    +0.210 HD
ENDBRANCH  16  29
TORSDOF 5
ENDMDL
MODEL 4
REMARK VINA RESULT:      -6.2      4.137      6.405
REMARK  Name = 5458701
REMARK  5 active torsions:
REMARK  status: ('A' for Active; 'I' for Inactive)
REMARK    1  A    between atoms: C_3  and  O_21
REMARK    2  A    between atoms: C_5  and  O_23
REMARK    3  A    between atoms: C_10  and  O_25
REMARK    4  A    between atoms: C_11  and  O_27
REMARK    5  A    between atoms: C_16  and  O_29
REMARK                            x       y       z     vdW  Elec       q    Type
REMARK                         _______ _______ _______ _____ _____    ______ ____
ROOT
ATOM      1  C   UNL     1     -37.821  22.048   0.878  0.00  0.00    +0.029 C 
ATOM      2  C   UNL     1     -37.381  23.461   0.343  0.00  0.00    +0.002 C 
ATOM      3  C   UNL     1     -39.259  22.145   1.427  0.00  0.00    +0.113 C 
ATOM      4  C   UNL     1     -37.030  24.338   2.843  0.00  0.00    +0.029 C 
ATOM      5  C   UNL     1     -35.919  23.342   3.270  0.00  0.00    +0.115 C 
ATOM      6  C   UNL     1     -40.071  22.248   0.118  0.00  0.00    +0.052 C 
ATOM      7  C   UNL     1     -37.257  24.658   1.349  0.00  0.00    +0.002 C 
ATOM      8  C   UNL     1     -38.006  21.062  -0.360  0.00  0.00    +0.029 C 
ATOM      9  C   UNL     1     -36.761  21.380   1.776  0.00  0.00    +0.034 C 
ATOM     10  C   UNL     1     -39.505  21.084  -0.722  0.00  0.00    +0.091 C 
ATOM     11  C   UNL     1     -36.459  21.902   3.183  0.00  0.00    +0.135 C 
ATOM     12  C   UNL     1     -38.342  23.916  -0.802  0.00  0.00    +0.000 C 
ATOM     13  C   UNL     1     -35.461  23.841   4.727  0.00  0.00    +0.050 C 
ATOM     14  C   UNL     1     -39.823  23.632  -0.504  0.00  0.00    +0.005 C 
ATOM     15  C   UNL     1     -36.777  25.586   3.698  0.00  0.00    +0.032 C 
ATOM     16  C   UNL     1     -36.460  24.985   5.051  0.00  0.00    +0.113 C 
ATOM     17  C   UNL     1     -36.256  25.694   0.787  0.00  0.00    +0.000 C 
ATOM     18  C   UNL     1     -39.780  21.136  -2.220  0.00  0.00    +0.029 C 
ATOM     19  C   UNL     1     -34.004  24.364   4.729  0.00  0.00    +0.005 C 
ATOM     20  C   UNL     1     -35.564  22.815   5.874  0.00  0.00    +0.005 C 
ENDROOT
BRANCH   3  21
ATOM     21  O   UNL     1     -39.648  20.989   2.156  0.00  0.00    -0.384 OA
ATOM     22  H   UNL     1     -39.106  20.915   2.958  0.00  0.00    +0.210 HD
ENDBRANCH   3  21
BRANCH   5  23
ATOM     23  O   UNL     1     -34.823  23.449   2.360  0.00  0.00    -0.384 OA
ATOM     24  H   UNL     1     -34.970  24.199   1.762  0.00  0.00    +0.210 HD
ENDBRANCH   5  23
BRANCH  10  25
ATOM     25  O   UNL     1     -40.106  19.854  -0.287  0.00  0.00    -0.387 OA
ATOM     26  H   UNL     1     -40.983  19.761  -0.692  0.00  0.00    +0.210 HD
ENDBRANCH  10  25
BRANCH  11  27
ATOM     27  O   UNL     1     -35.454  21.015   3.699  0.00  0.00    -0.382 OA
ATOM     28  H   UNL     1     -35.857  20.409   4.340  0.00  0.00    +0.210 HD
ENDBRANCH  11  27
BRANCH  16  29
ATOM     29  O   UNL     1     -35.937  25.956   5.938  0.00  0.00    -0.384 OA
ATOM     30  H   UNL     1     -36.385  26.804   5.790  0.00  0.00    +0.210 HD
ENDBRANCH  16  29
TORSDOF 5
ENDMDL
MODEL 5
REMARK VINA RESULT:      -5.9      3.975      8.455
REMARK  Name = 5458701
REMARK  5 active torsions:
REMARK  status: ('A' for Active; 'I' for Inactive)
REMARK    1  A    between atoms: C_3  and  O_21
REMARK    2  A    between atoms: C_5  and  O_23
REMARK    3  A    between atoms: C_10  and  O_25
REMARK    4  A    between atoms: C_11  and  O_27
REMARK    5  A    between atoms: C_16  and  O_29
REMARK                            x       y       z     vdW  Elec       q    Type
REMARK                         _______ _______ _______ _____ _____    ______ ____
ROOT
ATOM      1  C   UNL     1     -35.815  22.914   3.181  0.00  0.00    +0.029 C 
ATOM      2  C   UNL     1     -37.379  22.860   3.021  0.00  0.00    +0.002 C 
ATOM      3  C   UNL     1     -35.253  24.009   2.253  0.00  0.00    +0.113 C 
ATOM      4  C   UNL     1     -37.133  21.613   0.670  0.00  0.00    +0.029 C 
ATOM      5  C   UNL     1     -36.409  20.338   1.174  0.00  0.00    +0.115 C 
ATOM      6  C   UNL     1     -35.685  25.286   3.005  0.00  0.00    +0.052 C 
ATOM      7  C   UNL     1     -37.996  22.453   1.637  0.00  0.00    +0.002 C 
ATOM      8  C   UNL     1     -35.462  23.489   4.624  0.00  0.00    +0.029 C 
ATOM      9  C   UNL     1     -35.149  21.524   3.123  0.00  0.00    +0.034 C 
ATOM     10  C   UNL     1     -35.218  25.002   4.449  0.00  0.00    +0.091 C 
ATOM     11  C   UNL     1     -35.065  20.730   1.817  0.00  0.00    +0.135 C 
ATOM     12  C   UNL     1     -37.998  24.240   3.416  0.00  0.00    +0.000 C 
ATOM     13  C   UNL     1     -36.326  19.378  -0.113  0.00  0.00    +0.050 C 
ATOM     14  C   UNL     1     -37.208  25.441   2.873  0.00  0.00    +0.005 C 
ATOM     15  C   UNL     1     -37.896  21.155  -0.579  0.00  0.00    +0.032 C 
ATOM     16  C   UNL     1     -36.880  20.264  -1.262  0.00  0.00    +0.113 C 
ATOM     17  C   UNL     1     -39.409  21.865   1.864  0.00  0.00    +0.000 C 
ATOM     18  C   UNL     1     -35.840  25.861   5.542  0.00  0.00    +0.029 C 
ATOM     19  C   UNL     1     -37.182  18.101   0.061  0.00  0.00    +0.005 C 
ATOM     20  C   UNL     1     -34.919  18.914  -0.541  0.00  0.00    +0.005 C 
ENDROOT
BRANCH   3  21
ATOM     21  O   UNL     1     -33.837  23.962   2.141  0.00  0.00    -0.384 OA
ATOM     22  H   UNL     1     -33.440  24.537   2.814  0.00  0.00    +0.210 HD
ENDBRANCH   3  21
BRANCH   5  23
ATOM     23  O   UNL     1     -37.207  19.717   2.184  0.00  0.00    -0.384 OA
ATOM     24  H   UNL     1     -37.228  18.758   2.035  0.00  0.00    +0.210 HD
ENDBRANCH   5  23
BRANCH  10  25
ATOM     25  O   UNL     1     -33.807  25.258   4.545  0.00  0.00    -0.387 OA
ATOM     26  H   UNL     1     -33.466  24.884   5.373  0.00  0.00    +0.210 HD
ENDBRANCH  10  25
BRANCH  11  27
ATOM     27  O   UNL     1     -34.364  19.524   2.162  0.00  0.00    -0.382 OA
ATOM     28  H   UNL     1     -34.540  19.301   3.089  0.00  0.00    +0.210 HD
ENDBRANCH  11  27
BRANCH  16  29
ATOM     29  O   UNL     1     -37.469  19.520  -2.313  0.00  0.00    -0.384 OA
ATOM     30  H   UNL     1     -36.775  19.207  -2.915  0.00  0.00    +0.210 HD
ENDBRANCH  16  29
TORSDOF 5
ENDMDL
MODEL 6
REMARK VINA RESULT:      -5.9      3.921      6.305
REMARK  Name = 5458701
REMARK  5 active torsions:
REMARK  status: ('A' for Active; 'I' for Inactive)
REMARK    1  A    between atoms: C_3  and  O_21
REMARK    2  A    between atoms: C_5  and  O_23
REMARK    3  A    between atoms: C_10  and  O_25
REMARK    4  A    between atoms: C_11  and  O_27
REMARK    5  A    between atoms: C_16  and  O_29
REMARK                            x       y       z     vdW  Elec       q    Type
REMARK                         _______ _______ _______ _____ _____    ______ ____
ROOT
ATOM      1  C   UNL     1     -35.171  21.082   1.357  0.00  0.00    +0.029 C 
ATOM      2  C   UNL     1     -34.109  22.069   0.746  0.00  0.00    +0.002 C 
ATOM      3  C   UNL     1     -36.318  20.889   0.345  0.00  0.00    +0.113 C 
ATOM      4  C   UNL     1     -35.714  24.152   1.225  0.00  0.00    +0.029 C 
ATOM      5  C   UNL     1     -35.783  24.023   2.770  0.00  0.00    +0.115 C 
ATOM      6  C   UNL     1     -35.635  19.994  -0.711  0.00  0.00    +0.052 C 
ATOM      7  C   UNL     1     -34.522  23.553   0.446  0.00  0.00    +0.002 C 
ATOM      8  C   UNL     1     -34.540  19.621   1.425  0.00  0.00    +0.029 C 
ATOM      9  C   UNL     1     -35.557  21.427   2.810  0.00  0.00    +0.034 C 
ATOM     10  C   UNL     1     -34.998  18.883   0.151  0.00  0.00    +0.091 C 
ATOM     11  C   UNL     1     -36.398  22.660   3.145  0.00  0.00    +0.135 C 
ATOM     12  C   UNL     1     -33.534  21.472  -0.579  0.00  0.00    +0.000 C 
ATOM     13  C   UNL     1     -36.595  25.324   3.253  0.00  0.00    +0.050 C 
ATOM     14  C   UNL     1     -34.607  20.840  -1.479  0.00  0.00    +0.005 C 
ATOM     15  C   UNL     1     -35.924  25.646   0.954  0.00  0.00    +0.032 C 
ATOM     16  C   UNL     1     -37.036  25.991   1.922  0.00  0.00    +0.113 C 
ATOM     17  C   UNL     1     -33.261  24.448   0.475  0.00  0.00    +0.000 C 
ATOM     18  C   UNL     1     -33.903  18.057  -0.514  0.00  0.00    +0.029 C 
ATOM     19  C   UNL     1     -35.709  26.283   4.084  0.00  0.00    +0.005 C 
ATOM     20  C   UNL     1     -37.873  25.075   4.078  0.00  0.00    +0.005 C 
ENDROOT
BRANCH   3  21
ATOM     21  O   UNL     1     -37.438  20.219   0.905  0.00  0.00    -0.384 OA
ATOM     22  H   UNL     1     -37.169  19.760   1.717  0.00  0.00    +0.210 HD
ENDBRANCH   3  21
BRANCH   5  23
ATOM     23  O   UNL     1     -34.458  24.060   3.301  0.00  0.00    -0.384 OA
ATOM     24  H   UNL     1     -34.079  23.167   3.287  0.00  0.00    +0.210 HD
ENDBRANCH   5  23
BRANCH  10  25
ATOM     25  O   UNL     1     -36.008  17.926   0.506  0.00  0.00    -0.387 OA
ATOM     26  H   UNL     1     -35.876  17.642   1.425  0.00  0.00    +0.210 HD
ENDBRANCH  10  25
BRANCH  11  27
ATOM     27  O   UNL     1     -36.564  22.621   4.571  0.00  0.00    -0.382 OA
ATOM     28  H   UNL     1     -36.713  23.519   4.904  0.00  0.00    +0.210 HD
ENDBRANCH  11  27
BRANCH  16  29
ATOM     29  O   UNL     1     -37.216  27.392   2.026  0.00  0.00    -0.384 OA
ATOM     30  H   UNL     1     -36.731  27.834   1.311  0.00  0.00    +0.210 HD
ENDBRANCH  16  29
TORSDOF 5
ENDMDL
MODEL 7
REMARK VINA RESULT:      -5.8      5.930      7.669
REMARK  Name = 5458701
REMARK  5 active torsions:
REMARK  status: ('A' for Active; 'I' for Inactive)
REMARK    1  A    between atoms: C_3  and  O_21
REMARK    2  A    between atoms: C_5  and  O_23
REMARK    3  A    between atoms: C_10  and  O_25
REMARK    4  A    between atoms: C_11  and  O_27
REMARK    5  A    between atoms: C_16  and  O_29
REMARK                            x       y       z     vdW  Elec       q    Type
REMARK                         _______ _______ _______ _____ _____    ______ ____
ROOT
ATOM      1  C   UNL     1     -38.289  23.253   1.787  0.00  0.00    +0.029 C 
ATOM      2  C   UNL     1     -38.126  23.564   0.254  0.00  0.00    +0.002 C 
ATOM      3  C   UNL     1     -37.496  24.298   2.598  0.00  0.00    +0.113 C 
ATOM      4  C   UNL     1     -35.644  22.575   0.277  0.00  0.00    +0.029 C 
ATOM      5  C   UNL     1     -35.992  21.121   0.693  0.00  0.00    +0.115 C 
ATOM      6  C   UNL     1     -38.395  25.543   2.438  0.00  0.00    +0.052 C 
ATOM      7  C   UNL     1     -36.705  23.466  -0.404  0.00  0.00    +0.002 C 
ATOM      8  C   UNL     1     -39.789  23.565   2.223  0.00  0.00    +0.029 C 
ATOM      9  C   UNL     1     -38.065  21.767   2.134  0.00  0.00    +0.034 C 
ATOM     10  C   UNL     1     -39.793  24.997   2.796  0.00  0.00    +0.091 C 
ATOM     11  C   UNL     1     -36.675  21.130   2.074  0.00  0.00    +0.135 C 
ATOM     12  C   UNL     1     -38.683  24.991  -0.058  0.00  0.00    +0.000 C 
ATOM     13  C   UNL     1     -34.600  20.323   0.595  0.00  0.00    +0.050 C 
ATOM     14  C   UNL     1     -38.285  26.043   0.988  0.00  0.00    +0.005 C 
ATOM     15  C   UNL     1     -34.351  22.443  -0.537  0.00  0.00    +0.032 C 
ATOM     16  C   UNL     1     -33.565  21.436   0.276  0.00  0.00    +0.113 C 
ATOM     17  C   UNL     1     -36.863  23.181  -1.916  0.00  0.00    +0.000 C 
ATOM     18  C   UNL     1     -40.982  25.840   2.351  0.00  0.00    +0.029 C 
ATOM     19  C   UNL     1     -34.623  19.254  -0.524  0.00  0.00    +0.005 C 
ATOM     20  C   UNL     1     -34.118  19.614   1.876  0.00  0.00    +0.005 C 
ENDROOT
BRANCH   3  21
ATOM     21  O   UNL     1     -37.376  23.953   3.971  0.00  0.00    -0.384 OA
ATOM     22  H   UNL     1     -36.470  23.657   4.152  0.00  0.00    +0.210 HD
ENDBRANCH   3  21
BRANCH   5  23
ATOM     23  O   UNL     1     -36.923  20.578  -0.245  0.00  0.00    -0.384 OA
ATOM     24  H   UNL     1     -36.688  19.657  -0.438  0.00  0.00    +0.210 HD
ENDBRANCH   5  23
BRANCH  10  25
ATOM     25  O   UNL     1     -39.917  24.924   4.226  0.00  0.00    -0.387 OA
ATOM     26  H   UNL     1     -40.347  24.089   4.471  0.00  0.00    +0.210 HD
ENDBRANCH  10  25
BRANCH  11  27
ATOM     27  O   UNL     1     -36.872  19.769   2.486  0.00  0.00    -0.382 OA
ATOM     28  H   UNL     1     -36.091  19.244   2.252  0.00  0.00    +0.210 HD
ENDBRANCH  11  27
BRANCH  16  29
ATOM     29  O   UNL     1     -32.435  20.967  -0.435  0.00  0.00    -0.384 OA
ATOM     30  H   UNL     1     -31.642  21.434  -0.126  0.00  0.00    +0.210 HD
ENDBRANCH  16  29
TORSDOF 5
ENDMDL
MODEL 8
REMARK VINA RESULT:      -5.7      3.888      6.708
REMARK  Name = 5458701
REMARK  5 active torsions:
REMARK  status: ('A' for Active; 'I' for Inactive)
REMARK    1  A    between atoms: C_3  and  O_21
REMARK    2  A    between atoms: C_5  and  O_23
REMARK    3  A    between atoms: C_10  and  O_25
REMARK    4  A    between atoms: C_11  and  O_27
REMARK    5  A    between atoms: C_16  and  O_29
REMARK                            x       y       z     vdW  Elec       q    Type
REMARK                         _______ _______ _______ _____ _____    ______ ____
ROOT
ATOM      1  C   UNL     1     -38.709  22.362   1.116  0.00  0.00    +0.029 C 
ATOM      2  C   UNL     1     -37.552  21.313   1.302  0.00  0.00    +0.002 C 
ATOM      3  C   UNL     1     -38.462  23.157  -0.181  0.00  0.00    +0.113 C 
ATOM      4  C   UNL     1     -35.874  23.245   2.072  0.00  0.00    +0.029 C 
ATOM      5  C   UNL     1     -36.644  23.711   3.336  0.00  0.00    +0.115 C 
ATOM      6  C   UNL     1     -38.825  22.104  -1.250  0.00  0.00    +0.052 C 
ATOM      7  C   UNL     1     -36.083  21.820   1.515  0.00  0.00    +0.002 C 
ATOM      8  C   UNL     1     -40.060  21.588   0.777  0.00  0.00    +0.029 C 
ATOM      9  C   UNL     1     -39.013  23.167   2.396  0.00  0.00    +0.034 C 
ATOM     10  C   UNL     1     -40.193  21.584  -0.760  0.00  0.00    +0.091 C 
ATOM     11  C   UNL     1     -38.039  24.221   2.929  0.00  0.00    +0.135 C 
ATOM     12  C   UNL     1     -37.531  20.328   0.088  0.00  0.00    +0.000 C 
ATOM     13  C   UNL     1     -35.672  24.785   4.033  0.00  0.00    +0.050 C 
ATOM     14  C   UNL     1     -37.729  21.026  -1.266  0.00  0.00    +0.005 C 
ATOM     15  C   UNL     1     -34.405  23.567   2.375  0.00  0.00    +0.032 C 
ATOM     16  C   UNL     1     -34.507  24.934   3.017  0.00  0.00    +0.113 C 
ATOM     17  C   UNL     1     -35.278  20.741   2.278  0.00  0.00    +0.000 C 
ATOM     18  C   UNL     1     -40.656  20.252  -1.338  0.00  0.00    +0.029 C 
ATOM     19  C   UNL     1     -35.149  24.290   5.403  0.00  0.00    +0.005 C 
ATOM     20  C   UNL     1     -36.251  26.196   4.264  0.00  0.00    +0.005 C 
ENDROOT
BRANCH   3  21
ATOM     21  O   UNL     1     -39.311  24.290  -0.302  0.00  0.00    -0.384 OA
ATOM     22  H   UNL     1     -39.175  24.879   0.458  0.00  0.00    +0.210 HD
ENDBRANCH   3  21
BRANCH   5  23
ATOM     23  O   UNL     1     -36.828  22.595   4.208  0.00  0.00    -0.384 OA
ATOM     24  H   UNL     1     -37.343  22.872   4.983  0.00  0.00    +0.210 HD
ENDBRANCH   5  23
BRANCH  10  25
ATOM     25  O   UNL     1     -41.215  22.519  -1.139  0.00  0.00    -0.387 OA
ATOM     26  H   UNL     1     -41.895  22.062  -1.659  0.00  0.00    +0.210 HD
ENDBRANCH  10  25
BRANCH  11  27
ATOM     27  O   UNL     1     -38.678  24.759   4.097  0.00  0.00    -0.382 OA
ATOM     28  H   UNL     1     -38.212  24.453   4.890  0.00  0.00    +0.210 HD
ENDBRANCH  11  27
BRANCH  16  29
ATOM     29  O   UNL     1     -33.282  25.316   3.616  0.00  0.00    -0.384 OA
ATOM     30  H   UNL     1     -32.571  24.740   3.294  0.00  0.00    +0.210 HD
ENDBRANCH  16  29
TORSDOF 5
ENDMDL
MODEL 9
REMARK VINA RESULT:      -5.7      3.128      5.259
REMARK  Name = 5458701
REMARK  5 active torsions:
REMARK  status: ('A' for Active; 'I' for Inactive)
REMARK    1  A    between atoms: C_3  and  O_21
REMARK    2  A    between atoms: C_5  and  O_23
REMARK    3  A    between atoms: C_10  and  O_25
REMARK    4  A    between atoms: C_11  and  O_27
REMARK    5  A    between atoms: C_16  and  O_29
REMARK                            x       y       z     vdW  Elec       q    Type
REMARK                         _______ _______ _______ _____ _____    ______ ____
ROOT
ATOM      1  C   UNL     1     -37.616  22.535   1.551  0.00  0.00    +0.029 C 
ATOM      2  C   UNL     1     -36.545  23.036   0.514  0.00  0.00    +0.002 C 
ATOM      3  C   UNL     1     -38.932  23.305   1.325  0.00  0.00    +0.113 C 
ATOM      4  C   UNL     1     -36.190  25.287   1.909  0.00  0.00    +0.029 C 
ATOM      5  C   UNL     1     -35.683  24.648   3.229  0.00  0.00    +0.115 C 
ATOM      6  C   UNL     1     -39.437  22.654   0.020  0.00  0.00    +0.052 C 
ATOM      7  C   UNL     1     -36.056  24.525   0.572  0.00  0.00    +0.002 C 
ATOM      8  C   UNL     1     -38.038  21.044   1.181  0.00  0.00    +0.029 C 
ATOM      9  C   UNL     1     -37.077  22.459   2.994  0.00  0.00    +0.034 C 
ATOM     10  C   UNL     1     -39.318  21.147   0.328  0.00  0.00    +0.091 C 
ATOM     11  C   UNL     1     -36.772  23.722   3.804  0.00  0.00    +0.135 C 
ATOM     12  C   UNL     1     -37.054  22.772  -0.940  0.00  0.00    +0.000 C 
ATOM     13  C   UNL     1     -35.256  25.895   4.149  0.00  0.00    +0.050 C 
ATOM     14  C   UNL     1     -38.538  23.117  -1.138  0.00  0.00    +0.005 C 
ATOM     15  C   UNL     1     -35.544  26.678   1.881  0.00  0.00    +0.032 C 
ATOM     16  C   UNL     1     -35.701  27.129   3.317  0.00  0.00    +0.113 C 
ATOM     17  C   UNL     1     -34.640  24.620  -0.045  0.00  0.00    +0.000 C 
ATOM     18  C   UNL     1     -39.340  20.208  -0.873  0.00  0.00    +0.029 C 
ATOM     19  C   UNL     1     -33.730  25.927   4.410  0.00  0.00    +0.005 C 
ATOM     20  C   UNL     1     -35.942  26.008   5.525  0.00  0.00    +0.005 C 
ENDROOT
BRANCH   3  21
ATOM     21  O   UNL     1     -39.874  23.105   2.370  0.00  0.00    -0.384 OA
ATOM     22  H   UNL     1     -40.549  23.800   2.334  0.00  0.00    +0.210 HD
ENDBRANCH   3  21
BRANCH   5  23
ATOM     23  O   UNL     1     -34.536  23.845   2.947  0.00  0.00    -0.384 OA
ATOM     24  H   UNL     1     -34.024  23.715   3.761  0.00  0.00    +0.210 HD
ENDBRANCH   5  23
BRANCH  10  25
ATOM     25  O   UNL     1     -40.442  20.739   1.126  0.00  0.00    -0.387 OA
ATOM     26  H   UNL     1     -40.920  21.525   1.437  0.00  0.00    +0.210 HD
ENDBRANCH  10  25
BRANCH  11  27
ATOM     27  O   UNL     1     -36.325  23.244   5.082  0.00  0.00    -0.382 OA
ATOM     28  H   UNL     1     -36.939  23.540   5.771  0.00  0.00    +0.210 HD
ENDBRANCH  11  27
BRANCH  16  29
ATOM     29  O   UNL     1     -34.936  28.292   3.580  0.00  0.00    -0.384 OA
ATOM     30  H   UNL     1     -35.529  29.021   3.822  0.00  0.00    +0.210 HD
ENDBRANCH  16  29
TORSDOF 5
ENDMDL
