MODEL 1
REMARK VINA RESULT:      -6.5      0.000      0.000
REMARK  Name = 5487777
REMARK  7 active torsions:
REMARK  status: ('A' for Active; 'I' for Inactive)
REMARK    1  A    between atoms: O_1  and  C_5
REMARK    2  A    between atoms: O_1  and  C_17
REMARK    3  A    between atoms: C_2  and  C_8
REMARK    4  A    between atoms: C_8  and  N_9
REMARK    5  A    between atoms: C_17  and  C_18
REMARK    6  A    between atoms: C_18  and  C_19
REMARK    7  A    between atoms: C_19  and  N_22
REMARK                            x       y       z     vdW  Elec       q    Type
REMARK                         _______ _______ _______ _____ _____    ______ ____
ROOT
ATOM      1  O   UNL     1     -35.830  25.734   4.392  0.00  0.00    -0.475 OA
ENDROOT
BRANCH   1   5
ATOM      2  C   UNL     1     -35.626  22.210   3.474  0.00  0.00    -0.040 C 
ATOM      3  C   UNL     1     -35.774  23.585   3.357  0.00  0.00    +0.031 C 
ATOM      4  C   UNL     1     -35.394  21.619   4.709  0.00  0.00    -0.006 C 
ATOM      5  C   UNL     1     -35.687  24.385   4.496  0.00  0.00    +0.138 C 
ATOM      6  C   UNL     1     -35.306  22.419   5.848  0.00  0.00    +0.003 C 
ATOM      7  C   UNL     1     -35.453  23.801   5.741  0.00  0.00    +0.037 C 
BRANCH   2   8
ATOM      8  C   UNL     1     -35.720  21.345   2.245  0.00  0.00    -0.050 C 
BRANCH   8   9
ATOM      9  N   UNL     1     -34.399  20.977   1.736  0.00  0.00    +0.390 N 
ATOM     10  C   UNL     1     -32.535  19.822  -0.209  0.00  0.00    -0.004 C 
ATOM     11  C   UNL     1     -32.725  21.335  -0.051  0.00  0.00    -0.023 C 
ATOM     12  C   UNL     1     -32.901  19.114   1.099  0.00  0.00    -0.023 C 
ATOM     13  C   UNL     1     -34.126  21.667   0.468  0.00  0.00    -0.077 C 
ATOM     14  C   UNL     1     -34.296  19.521   1.579  0.00  0.00    -0.077 C 
ATOM     15  C   UNL     1     -31.106  19.492  -0.631  0.00  0.00    -0.000 C 
ATOM     16  H   UNL     1     -33.694  21.272   2.413  0.00  0.00    -0.079 HD
ENDBRANCH   8   9
ENDBRANCH   2   8
ENDBRANCH   1   5
BRANCH   1  17
ATOM     17  C   UNL     1     -35.981  26.272   3.079  0.00  0.00    +0.207 C 
BRANCH  17  18
ATOM     18  C   UNL     1     -35.170  27.559   2.981  0.00  0.00    +0.069 C 
BRANCH  18  19
ATOM     19  C   UNL     1     -33.670  27.326   3.113  0.00  0.00    +0.092 C 
BRANCH  19  22
ATOM     20  S   UNL     1     -30.638  30.034   5.274  0.00  0.00    +0.270 S 
ATOM     21  O   UNL     1     -31.394  31.316   5.463  0.00  0.00    -0.208 OA
ATOM     22  N   UNL     1     -33.257  27.390   4.496  0.00  0.00    -0.315 N 
ATOM     23  N   UNL     1     -31.726  29.190   4.256  0.00  0.00    -0.148 NA
ATOM     24  N   UNL     1     -31.077  29.213   6.712  0.00  0.00    -0.148 NA
ATOM     25  N   UNL     1     -32.520  27.416   7.292  0.00  0.00    -0.340 N 
ATOM     26  C   UNL     1     -32.335  28.285   4.958  0.00  0.00    +0.172 A 
ATOM     27  C   UNL     1     -31.949  28.298   6.419  0.00  0.00    +0.169 A 
ATOM     28  H   UNL     1     -33.660  26.759   5.135  0.00  0.00    +0.148 HD
ATOM     29  H   UNL     1     -32.264  27.430   8.243  0.00  0.00    +0.144 HD
ATOM     30  H   UNL     1     -33.186  26.766   6.971  0.00  0.00    +0.144 HD
ENDBRANCH  19  22
ENDBRANCH  18  19
ENDBRANCH  17  18
ENDBRANCH   1  17
TORSDOF 7
ENDMDL
MODEL 2
REMARK VINA RESULT:      -6.5      2.622      3.439
REMARK  Name = 5487777
REMARK  7 active torsions:
REMARK  status: ('A' for Active; 'I' for Inactive)
REMARK    1  A    between atoms: O_1  and  C_5
REMARK    2  A    between atoms: O_1  and  C_17
REMARK    3  A    between atoms: C_2  and  C_8
REMARK    4  A    between atoms: C_8  and  N_9
REMARK    5  A    between atoms: C_17  and  C_18
REMARK    6  A    between atoms: C_18  and  C_19
REMARK    7  A    between atoms: C_19  and  N_22
REMARK                            x       y       z     vdW  Elec       q    Type
REMARK                         _______ _______ _______ _____ _____    ______ ____
ROOT
ATOM      1  O   UNL     1     -35.609  25.222   4.589  0.00  0.00    -0.475 OA
ENDROOT
BRANCH   1   5
ATOM      2  C   UNL     1     -35.439  21.782   3.389  0.00  0.00    -0.040 C 
ATOM      3  C   UNL     1     -35.542  23.165   3.380  0.00  0.00    +0.031 C 
ATOM      4  C   UNL     1     -35.303  21.082   4.581  0.00  0.00    -0.006 C 
ATOM      5  C   UNL     1     -35.509  23.864   4.587  0.00  0.00    +0.138 C 
ATOM      6  C   UNL     1     -35.269  21.782   5.787  0.00  0.00    +0.003 C 
ATOM      7  C   UNL     1     -35.372  23.172   5.790  0.00  0.00    +0.037 C 
BRANCH   2   8
ATOM      8  C   UNL     1     -35.476  21.026   2.087  0.00  0.00    -0.050 C 
BRANCH   8   9
ATOM      9  N   UNL     1     -34.132  20.708   1.604  0.00  0.00    +0.390 N 
ATOM     10  C   UNL     1     -32.189  19.608  -0.295  0.00  0.00    -0.004 C 
ATOM     11  C   UNL     1     -32.447  21.113  -0.162  0.00  0.00    -0.023 C 
ATOM     12  C   UNL     1     -32.545  18.903   1.018  0.00  0.00    -0.023 C 
ATOM     13  C   UNL     1     -33.869  21.391   0.331  0.00  0.00    -0.077 C 
ATOM     14  C   UNL     1     -33.964  19.255   1.471  0.00  0.00    -0.077 C 
ATOM     15  C   UNL     1     -30.740  19.334  -0.690  0.00  0.00    -0.000 C 
ATOM     16  H   UNL     1     -33.452  21.043   2.287  0.00  0.00    -0.079 HD
ENDBRANCH   8   9
ENDBRANCH   2   8
ENDBRANCH   1   5
BRANCH   1  17
ATOM     17  C   UNL     1     -35.147  25.907   5.752  0.00  0.00    +0.207 C 
BRANCH  17  18
ATOM     18  C   UNL     1     -33.728  26.400   5.500  0.00  0.00    +0.069 C 
BRANCH  18  19
ATOM     19  C   UNL     1     -33.497  26.829   4.055  0.00  0.00    +0.092 C 
BRANCH  19  22
ATOM     20  S   UNL     1     -36.408  28.164   0.748  0.00  0.00    +0.270 S 
ATOM     21  O   UNL     1     -37.730  27.635   1.217  0.00  0.00    -0.208 OA
ATOM     22  N   UNL     1     -34.125  28.102   3.788  0.00  0.00    -0.315 N 
ATOM     23  N   UNL     1     -35.364  27.416   1.881  0.00  0.00    -0.148 NA
ATOM     24  N   UNL     1     -36.412  29.700   1.507  0.00  0.00    -0.148 NA
ATOM     25  N   UNL     1     -35.318  30.702   3.364  0.00  0.00    -0.340 N 
ATOM     26  C   UNL     1     -34.983  28.305   2.746  0.00  0.00    +0.172 A 
ATOM     27  C   UNL     1     -35.606  29.664   2.523  0.00  0.00    +0.169 A 
ATOM     28  H   UNL     1     -33.925  28.858   4.385  0.00  0.00    +0.148 HD
ATOM     29  H   UNL     1     -35.727  31.585   3.213  0.00  0.00    +0.144 HD
ATOM     30  H   UNL     1     -34.701  30.567   4.119  0.00  0.00    +0.144 HD
ENDBRANCH  19  22
ENDBRANCH  18  19
ENDBRANCH  17  18
ENDBRANCH   1  17
TORSDOF 7
ENDMDL
MODEL 3
REMARK VINA RESULT:      -6.4      8.374     11.958
REMARK  Name = 5487777
REMARK  7 active torsions:
REMARK  status: ('A' for Active; 'I' for Inactive)
REMARK    1  A    between atoms: O_1  and  C_5
REMARK    2  A    between atoms: O_1  and  C_17
REMARK    3  A    between atoms: C_2  and  C_8
REMARK    4  A    between atoms: C_8  and  N_9
REMARK    5  A    between atoms: C_17  and  C_18
REMARK    6  A    between atoms: C_18  and  C_19
REMARK    7  A    between atoms: C_19  and  N_22
REMARK                            x       y       z     vdW  Elec       q    Type
REMARK                         _______ _______ _______ _____ _____    ______ ____
ROOT
ATOM      1  O   UNL     1     -41.210  26.998   3.243  0.00  0.00    -0.475 OA
ENDROOT
BRANCH   1   5
ATOM      2  C   UNL     1     -43.607  29.066   5.052  0.00  0.00    -0.040 C 
ATOM      3  C   UNL     1     -42.401  28.598   4.552  0.00  0.00    +0.031 C 
ATOM      4  C   UNL     1     -44.802  28.422   4.756  0.00  0.00    -0.006 C 
ATOM      5  C   UNL     1     -42.388  27.464   3.739  0.00  0.00    +0.138 C 
ATOM      6  C   UNL     1     -44.788  27.290   3.943  0.00  0.00    +0.003 C 
ATOM      7  C   UNL     1     -43.582  26.811   3.435  0.00  0.00    +0.037 C 
BRANCH   2   8
ATOM      8  C   UNL     1     -43.623  30.289   5.931  0.00  0.00    -0.050 C 
BRANCH   8   9
ATOM      9  N   UNL     1     -44.836  31.083   5.736  0.00  0.00    +0.390 N 
ATOM     10  C   UNL     1     -46.554  33.430   6.099  0.00  0.00    -0.004 C 
ATOM     11  C   UNL     1     -45.786  33.166   4.799  0.00  0.00    -0.023 C 
ATOM     12  C   UNL     1     -46.804  32.108   6.831  0.00  0.00    -0.023 C 
ATOM     13  C   UNL     1     -44.520  32.347   5.058  0.00  0.00    -0.077 C 
ATOM     14  C   UNL     1     -45.504  31.324   7.022  0.00  0.00    -0.077 C 
ATOM     15  C   UNL     1     -47.865  34.161   5.821  0.00  0.00    -0.000 C 
ATOM     16  H   UNL     1     -45.478  30.559   5.141  0.00  0.00    -0.079 HD
ENDBRANCH   8   9
ENDBRANCH   2   8
ENDBRANCH   1   5
BRANCH   1  17
ATOM     17  C   UNL     1     -41.238  26.407   1.944  0.00  0.00    +0.207 C 
BRANCH  17  18
ATOM     18  C   UNL     1     -40.098  25.402   1.837  0.00  0.00    +0.069 C 
BRANCH  18  19
ATOM     19  C   UNL     1     -39.838  24.659   3.142  0.00  0.00    +0.092 C 
BRANCH  19  22
ATOM     20  S   UNL     1     -35.667  22.963   4.100  0.00  0.00    +0.270 S 
ATOM     21  O   UNL     1     -34.920  23.132   2.810  0.00  0.00    -0.208 OA
ATOM     22  N   UNL     1     -38.711  25.227   3.844  0.00  0.00    -0.315 N 
ATOM     23  N   UNL     1     -37.249  23.372   3.589  0.00  0.00    -0.148 NA
ATOM     24  N   UNL     1     -35.331  24.470   4.841  0.00  0.00    -0.148 NA
ATOM     25  N   UNL     1     -36.527  26.479   5.268  0.00  0.00    -0.340 N 
ATOM     26  C   UNL     1     -37.532  24.562   4.022  0.00  0.00    +0.172 A 
ATOM     27  C   UNL     1     -36.390  25.216   4.767  0.00  0.00    +0.169 A 
ATOM     28  H   UNL     1     -38.797  26.136   4.211  0.00  0.00    +0.148 HD
ATOM     29  H   UNL     1     -35.780  26.899   5.753  0.00  0.00    +0.144 HD
ATOM     30  H   UNL     1     -37.372  26.968   5.146  0.00  0.00    +0.144 HD
ENDBRANCH  19  22
ENDBRANCH  18  19
ENDBRANCH  17  18
ENDBRANCH   1  17
TORSDOF 7
ENDMDL
MODEL 4
REMARK VINA RESULT:      -6.4      5.173      6.573
REMARK  Name = 5487777
REMARK  7 active torsions:
REMARK  status: ('A' for Active; 'I' for Inactive)
REMARK    1  A    between atoms: O_1  and  C_5
REMARK    2  A    between atoms: O_1  and  C_17
REMARK    3  A    between atoms: C_2  and  C_8
REMARK    4  A    between atoms: C_8  and  N_9
REMARK    5  A    between atoms: C_17  and  C_18
REMARK    6  A    between atoms: C_18  and  C_19
REMARK    7  A    between atoms: C_19  and  N_22
REMARK                            x       y       z     vdW  Elec       q    Type
REMARK                         _______ _______ _______ _____ _____    ______ ____
ROOT
ATOM      1  O   UNL     1     -36.686  24.880   4.210  0.00  0.00    -0.475 OA
ENDROOT
BRANCH   1   5
ATOM      2  C   UNL     1     -35.529  21.480   3.573  0.00  0.00    -0.040 C 
ATOM      3  C   UNL     1     -36.083  22.734   3.358  0.00  0.00    +0.031 C 
ATOM      4  C   UNL     1     -35.035  21.121   4.819  0.00  0.00    -0.006 C 
ATOM      5  C   UNL     1     -36.145  23.648   4.411  0.00  0.00    +0.138 C 
ATOM      6  C   UNL     1     -35.095  22.035   5.871  0.00  0.00    +0.003 C 
ATOM      7  C   UNL     1     -35.650  23.298   5.667  0.00  0.00    +0.037 C 
BRANCH   2   8
ATOM      8  C   UNL     1     -35.464  20.493   2.437  0.00  0.00    -0.050 C 
BRANCH   8   9
ATOM      9  N   UNL     1     -34.149  20.488   1.795  0.00  0.00    +0.390 N 
ATOM     10  C   UNL     1     -32.263  19.937  -0.379  0.00  0.00    -0.004 C 
ATOM     11  C   UNL     1     -32.790  21.346  -0.086  0.00  0.00    -0.023 C 
ATOM     12  C   UNL     1     -32.321  19.086   0.894  0.00  0.00    -0.023 C 
ATOM     13  C   UNL     1     -34.173  21.296   0.569  0.00  0.00    -0.077 C 
ATOM     14  C   UNL     1     -33.719  19.112   1.516  0.00  0.00    -0.077 C 
ATOM     15  C   UNL     1     -30.844  19.990  -0.940  0.00  0.00    -0.000 C 
ATOM     16  H   UNL     1     -33.472  20.906   2.435  0.00  0.00    -0.079 HD
ENDBRANCH   8   9
ENDBRANCH   2   8
ENDBRANCH   1   5
BRANCH   1  17
ATOM     17  C   UNL     1     -36.910  25.280   2.859  0.00  0.00    +0.207 C 
BRANCH  17  18
ATOM     18  C   UNL     1     -38.234  26.031   2.783  0.00  0.00    +0.069 C 
BRANCH  18  19
ATOM     19  C   UNL     1     -39.399  25.238   3.362  0.00  0.00    +0.092 C 
BRANCH  19  22
ATOM     20  S   UNL     1     -41.250  23.057  -0.246  0.00  0.00    +0.270 S 
ATOM     21  O   UNL     1     -40.330  23.415  -1.375  0.00  0.00    -0.208 OA
ATOM     22  N   UNL     1     -39.342  23.856   2.944  0.00  0.00    -0.315 N 
ATOM     23  N   UNL     1     -40.648  24.096   0.974  0.00  0.00    -0.148 NA
ATOM     24  N   UNL     1     -40.478  21.644   0.336  0.00  0.00    -0.148 NA
ATOM     25  N   UNL     1     -39.146  21.064   2.216  0.00  0.00    -0.340 N 
ATOM     26  C   UNL     1     -39.958  23.392   1.818  0.00  0.00    +0.172 A 
ATOM     27  C   UNL     1     -39.856  21.932   1.438  0.00  0.00    +0.169 A 
ATOM     28  H   UNL     1     -38.834  23.220   3.497  0.00  0.00    +0.148 HD
ATOM     29  H   UNL     1     -39.084  20.114   1.963  0.00  0.00    +0.144 HD
ATOM     30  H   UNL     1     -38.697  21.387   3.030  0.00  0.00    +0.144 HD
ENDBRANCH  19  22
ENDBRANCH  18  19
ENDBRANCH  17  18
ENDBRANCH   1  17
TORSDOF 7
ENDMDL
MODEL 5
REMARK VINA RESULT:      -6.4      4.632      8.562
REMARK  Name = 5487777
REMARK  7 active torsions:
REMARK  status: ('A' for Active; 'I' for Inactive)
REMARK    1  A    between atoms: O_1  and  C_5
REMARK    2  A    between atoms: O_1  and  C_17
REMARK    3  A    between atoms: C_2  and  C_8
REMARK    4  A    between atoms: C_8  and  N_9
REMARK    5  A    between atoms: C_17  and  C_18
REMARK    6  A    between atoms: C_18  and  C_19
REMARK    7  A    between atoms: C_19  and  N_22
REMARK                            x       y       z     vdW  Elec       q    Type
REMARK                         _______ _______ _______ _____ _____    ______ ____
ROOT
ATOM      1  O   UNL     1     -35.488  20.542   3.168  0.00  0.00    -0.475 OA
ENDROOT
BRANCH   1   5
ATOM      2  C   UNL     1     -35.855  23.862   4.634  0.00  0.00    -0.040 C 
ATOM      3  C   UNL     1     -35.852  22.841   3.694  0.00  0.00    +0.031 C 
ATOM      4  C   UNL     1     -35.507  23.618   5.956  0.00  0.00    -0.006 C 
ATOM      5  C   UNL     1     -35.494  21.550   4.083  0.00  0.00    +0.138 C 
ATOM      6  C   UNL     1     -35.150  22.327   6.344  0.00  0.00    +0.003 C 
ATOM      7  C   UNL     1     -35.143  21.294   5.408  0.00  0.00    +0.037 C 
BRANCH   2   8
ATOM      8  C   UNL     1     -36.241  25.256   4.215  0.00  0.00    -0.050 C 
BRANCH   8   9
ATOM      9  N   UNL     1     -35.139  25.948   3.547  0.00  0.00    +0.390 N 
ATOM     10  C   UNL     1     -33.558  28.295   2.781  0.00  0.00    -0.004 C 
ATOM     11  C   UNL     1     -33.092  27.303   3.853  0.00  0.00    -0.023 C 
ATOM     12  C   UNL     1     -34.515  27.595   1.810  0.00  0.00    -0.023 C 
ATOM     13  C   UNL     1     -34.281  26.619   4.531  0.00  0.00    -0.077 C 
ATOM     14  C   UNL     1     -35.656  26.902   2.557  0.00  0.00    -0.077 C 
ATOM     15  C   UNL     1     -32.368  28.899   2.039  0.00  0.00    -0.000 C 
ATOM     16  H   UNL     1     -34.571  25.258   3.053  0.00  0.00    -0.079 HD
ENDBRANCH   8   9
ENDBRANCH   2   8
ENDBRANCH   1   5
BRANCH   1  17
ATOM     17  C   UNL     1     -35.167  20.887   1.822  0.00  0.00    +0.207 C 
BRANCH  17  18
ATOM     18  C   UNL     1     -35.491  19.701   0.921  0.00  0.00    +0.069 C 
BRANCH  18  19
ATOM     19  C   UNL     1     -36.989  19.459   0.775  0.00  0.00    +0.092 C 
BRANCH  19  22
ATOM     20  S   UNL     1     -41.013  21.242  -0.574  0.00  0.00    +0.270 S 
ATOM     21  O   UNL     1     -42.024  20.328   0.054  0.00  0.00    -0.208 OA
ATOM     22  N   UNL     1     -37.744  20.591   1.256  0.00  0.00    -0.315 N 
ATOM     23  N   UNL     1     -39.575  20.374  -0.243  0.00  0.00    -0.148 NA
ATOM     24  N   UNL     1     -40.817  22.385   0.686  0.00  0.00    -0.148 NA
ATOM     25  N   UNL     1     -39.160  22.880   2.315  0.00  0.00    -0.340 N 
ATOM     26  C   UNL     1     -38.945  20.965   0.726  0.00  0.00    +0.172 A 
ATOM     27  C   UNL     1     -39.685  22.163   1.279  0.00  0.00    +0.169 A 
ATOM     28  H   UNL     1     -37.377  21.117   2.002  0.00  0.00    +0.148 HD
ATOM     29  H   UNL     1     -39.647  23.659   2.671  0.00  0.00    +0.144 HD
ATOM     30  H   UNL     1     -38.295  22.620   2.706  0.00  0.00    +0.144 HD
ENDBRANCH  19  22
ENDBRANCH  18  19
ENDBRANCH  17  18
ENDBRANCH   1  17
TORSDOF 7
ENDMDL
MODEL 6
REMARK VINA RESULT:      -6.3      4.461      7.664
REMARK  Name = 5487777
REMARK  7 active torsions:
REMARK  status: ('A' for Active; 'I' for Inactive)
REMARK    1  A    between atoms: O_1  and  C_5
REMARK    2  A    between atoms: O_1  and  C_17
REMARK    3  A    between atoms: C_2  and  C_8
REMARK    4  A    between atoms: C_8  and  N_9
REMARK    5  A    between atoms: C_17  and  C_18
REMARK    6  A    between atoms: C_18  and  C_19
REMARK    7  A    between atoms: C_19  and  N_22
REMARK                            x       y       z     vdW  Elec       q    Type
REMARK                         _______ _______ _______ _____ _____    ______ ____
ROOT
ATOM      1  O   UNL     1     -35.725  21.752   2.245  0.00  0.00    -0.475 OA
ENDROOT
BRANCH   1   5
ATOM      2  C   UNL     1     -35.348  23.921   5.153  0.00  0.00    -0.040 C 
ATOM      3  C   UNL     1     -35.546  23.518   3.840  0.00  0.00    +0.031 C 
ATOM      4  C   UNL     1     -35.135  22.991   6.162  0.00  0.00    -0.006 C 
ATOM      5  C   UNL     1     -35.531  22.158   3.530  0.00  0.00    +0.138 C 
ATOM      6  C   UNL     1     -35.120  21.632   5.851  0.00  0.00    +0.003 C 
ATOM      7  C   UNL     1     -35.318  21.216   4.535  0.00  0.00    +0.037 C 
BRANCH   2   8
ATOM      8  C   UNL     1     -35.364  25.389   5.490  0.00  0.00    -0.050 C 
BRANCH   8   9
ATOM      9  N   UNL     1     -34.056  26.010   5.278  0.00  0.00    +0.390 N 
ATOM     10  C   UNL     1     -32.177  28.256   5.154  0.00  0.00    -0.004 C 
ATOM     11  C   UNL     1     -32.196  27.263   6.321  0.00  0.00    -0.023 C 
ATOM     12  C   UNL     1     -32.744  27.588   3.897  0.00  0.00    -0.023 C 
ATOM     13  C   UNL     1     -33.588  26.655   6.511  0.00  0.00    -0.077 C 
ATOM     14  C   UNL     1     -34.117  26.969   4.167  0.00  0.00    -0.077 C 
ATOM     15  C   UNL     1     -30.766  28.783   4.906  0.00  0.00    -0.000 C 
ATOM     16  H   UNL     1     -33.385  25.282   5.029  0.00  0.00    -0.079 HD
ENDBRANCH   8   9
ENDBRANCH   2   8
ENDBRANCH   1   5
BRANCH   1  17
ATOM     17  C   UNL     1     -36.843  22.302   1.551  0.00  0.00    +0.207 C 
BRANCH  17  18
ATOM     18  C   UNL     1     -38.025  21.350   1.692  0.00  0.00    +0.069 C 
BRANCH  18  19
ATOM     19  C   UNL     1     -39.307  22.054   2.122  0.00  0.00    +0.092 C 
BRANCH  19  22
ATOM     20  S   UNL     1     -41.456  26.052   1.354  0.00  0.00    +0.270 S 
ATOM     21  O   UNL     1     -42.630  25.998   2.287  0.00  0.00    -0.208 OA
ATOM     22  N   UNL     1     -39.029  23.395   2.581  0.00  0.00    -0.315 N 
ATOM     23  N   UNL     1     -40.870  24.451   1.514  0.00  0.00    -0.148 NA
ATOM     24  N   UNL     1     -40.287  26.766   2.381  0.00  0.00    -0.148 NA
ATOM     25  N   UNL     1     -38.366  26.031   3.571  0.00  0.00    -0.340 N 
ATOM     26  C   UNL     1     -39.802  24.471   2.249  0.00  0.00    +0.172 A 
ATOM     27  C   UNL     1     -39.455  25.849   2.766  0.00  0.00    +0.169 A 
ATOM     28  H   UNL     1     -38.248  23.540   3.161  0.00  0.00    +0.148 HD
ATOM     29  H   UNL     1     -38.146  26.931   3.904  0.00  0.00    +0.144 HD
ATOM     30  H   UNL     1     -37.802  25.263   3.817  0.00  0.00    +0.144 HD
ENDBRANCH  19  22
ENDBRANCH  18  19
ENDBRANCH  17  18
ENDBRANCH   1  17
TORSDOF 7
ENDMDL
MODEL 7
REMARK VINA RESULT:      -6.3      5.371      9.445
REMARK  Name = 5487777
REMARK  7 active torsions:
REMARK  status: ('A' for Active; 'I' for Inactive)
REMARK    1  A    between atoms: O_1  and  C_5
REMARK    2  A    between atoms: O_1  and  C_17
REMARK    3  A    between atoms: C_2  and  C_8
REMARK    4  A    between atoms: C_8  and  N_9
REMARK    5  A    between atoms: C_17  and  C_18
REMARK    6  A    between atoms: C_18  and  C_19
REMARK    7  A    between atoms: C_19  and  N_22
REMARK                            x       y       z     vdW  Elec       q    Type
REMARK                         _______ _______ _______ _____ _____    ______ ____
ROOT
ATOM      1  O   UNL     1     -35.388  20.392   3.320  0.00  0.00    -0.475 OA
ENDROOT
BRANCH   1   5
ATOM      2  C   UNL     1     -36.032  23.850   4.285  0.00  0.00    -0.040 C 
ATOM      3  C   UNL     1     -35.951  22.703   3.508  0.00  0.00    +0.031 C 
ATOM      4  C   UNL     1     -35.642  23.839   5.618  0.00  0.00    -0.006 C 
ATOM      5  C   UNL     1     -35.471  21.522   4.074  0.00  0.00    +0.138 C 
ATOM      6  C   UNL     1     -35.163  22.658   6.183  0.00  0.00    +0.003 C 
ATOM      7  C   UNL     1     -35.077  21.500   5.412  0.00  0.00    +0.037 C 
BRANCH   2   8
ATOM      8  C   UNL     1     -36.549  25.126   3.675  0.00  0.00    -0.050 C 
BRANCH   8   9
ATOM      9  N   UNL     1     -37.590  24.870   2.678  0.00  0.00    +0.390 N 
ATOM     10  C   UNL     1     -40.030  25.485   1.175  0.00  0.00    -0.004 C 
ATOM     11  C   UNL     1     -38.630  25.636   0.569  0.00  0.00    -0.023 C 
ATOM     12  C   UNL     1     -39.997  24.445   2.301  0.00  0.00    -0.023 C 
ATOM     13  C   UNL     1     -37.584  25.917   1.649  0.00  0.00    -0.077 C 
ATOM     14  C   UNL     1     -38.905  24.767   3.323  0.00  0.00    -0.077 C 
ATOM     15  C   UNL     1     -41.052  25.105   0.107  0.00  0.00    -0.000 C 
ATOM     16  H   UNL     1     -37.392  23.979   2.221  0.00  0.00    -0.079 HD
ENDBRANCH   8   9
ENDBRANCH   2   8
ENDBRANCH   1   5
BRANCH   1  17
ATOM     17  C   UNL     1     -35.094  20.555   1.934  0.00  0.00    +0.207 C 
BRANCH  17  18
ATOM     18  C   UNL     1     -34.061  19.511   1.526  0.00  0.00    +0.069 C 
BRANCH  18  19
ATOM     19  C   UNL     1     -34.328  18.919   0.147  0.00  0.00    +0.092 C 
BRANCH  19  22
ATOM     20  S   UNL     1     -38.731  18.834  -1.194  0.00  0.00    +0.270 S 
ATOM     21  O   UNL     1     -38.638  18.615  -2.675  0.00  0.00    -0.208 OA
ATOM     22  N   UNL     1     -35.331  17.882   0.216  0.00  0.00    -0.315 N 
ATOM     23  N   UNL     1     -37.082  19.106  -0.824  0.00  0.00    -0.148 NA
ATOM     24  N   UNL     1     -38.764  17.210  -0.651  0.00  0.00    -0.148 NA
ATOM     25  N   UNL     1     -37.246  15.723   0.412  0.00  0.00    -0.340 N 
ATOM     26  C   UNL     1     -36.603  18.044  -0.252  0.00  0.00    +0.172 A 
ATOM     27  C   UNL     1     -37.604  16.916  -0.149  0.00  0.00    +0.169 A 
ATOM     28  H   UNL     1     -35.086  17.019   0.619  0.00  0.00    +0.148 HD
ATOM     29  H   UNL     1     -37.902  14.993   0.476  0.00  0.00    +0.144 HD
ATOM     30  H   UNL     1     -36.331  15.595   0.753  0.00  0.00    +0.144 HD
ENDBRANCH  19  22
ENDBRANCH  18  19
ENDBRANCH  17  18
ENDBRANCH   1  17
TORSDOF 7
ENDMDL
MODEL 8
REMARK VINA RESULT:      -6.3      3.739      4.950
REMARK  Name = 5487777
REMARK  7 active torsions:
REMARK  status: ('A' for Active; 'I' for Inactive)
REMARK    1  A    between atoms: O_1  and  C_5
REMARK    2  A    between atoms: O_1  and  C_17
REMARK    3  A    between atoms: C_2  and  C_8
REMARK    4  A    between atoms: C_8  and  N_9
REMARK    5  A    between atoms: C_17  and  C_18
REMARK    6  A    between atoms: C_18  and  C_19
REMARK    7  A    between atoms: C_19  and  N_22
REMARK                            x       y       z     vdW  Elec       q    Type
REMARK                         _______ _______ _______ _____ _____    ______ ____
ROOT
ATOM      1  O   UNL     1     -36.470  25.035   4.828  0.00  0.00    -0.475 OA
ENDROOT
BRANCH   1   5
ATOM      2  C   UNL     1     -35.599  21.684   3.679  0.00  0.00    -0.040 C 
ATOM      3  C   UNL     1     -36.064  22.992   3.664  0.00  0.00    +0.031 C 
ATOM      4  C   UNL     1     -35.086  21.122   4.841  0.00  0.00    -0.006 C 
ATOM      5  C   UNL     1     -36.016  23.752   4.833  0.00  0.00    +0.138 C 
ATOM      6  C   UNL     1     -35.037  21.882   6.008  0.00  0.00    +0.003 C 
ATOM      7  C   UNL     1     -35.502  23.197   6.004  0.00  0.00    +0.037 C 
BRANCH   2   8
ATOM      8  C   UNL     1     -35.651  20.863   2.419  0.00  0.00    -0.050 C 
BRANCH   8   9
ATOM      9  N   UNL     1     -34.343  20.778   1.769  0.00  0.00    +0.390 N 
ATOM     10  C   UNL     1     -32.502  20.085  -0.404  0.00  0.00    -0.004 C 
ATOM     11  C   UNL     1     -32.957  21.525  -0.139  0.00  0.00    -0.023 C 
ATOM     12  C   UNL     1     -32.593  19.267   0.888  0.00  0.00    -0.023 C 
ATOM     13  C   UNL     1     -34.335  21.558   0.525  0.00  0.00    -0.077 C 
ATOM     14  C   UNL     1     -33.984  19.376   1.518  0.00  0.00    -0.077 C 
ATOM     15  C   UNL     1     -31.087  20.055  -0.974  0.00  0.00    -0.000 C 
ATOM     16  H   UNL     1     -33.642  21.176   2.395  0.00  0.00    -0.079 HD
ENDBRANCH   8   9
ENDBRANCH   2   8
ENDBRANCH   1   5
BRANCH   1  17
ATOM     17  C   UNL     1     -35.533  26.058   5.160  0.00  0.00    +0.207 C 
BRANCH  17  18
ATOM     18  C   UNL     1     -34.676  26.355   3.935  0.00  0.00    +0.069 C 
BRANCH  18  19
ATOM     19  C   UNL     1     -35.445  27.074   2.833  0.00  0.00    +0.092 C 
BRANCH  19  22
ATOM     20  S   UNL     1     -39.811  26.104   1.743  0.00  0.00    +0.270 S 
ATOM     21  O   UNL     1     -40.191  27.219   0.813  0.00  0.00    -0.208 OA
ATOM     22  N   UNL     1     -36.013  26.130   1.899  0.00  0.00    -0.315 N 
ATOM     23  N   UNL     1     -38.292  26.673   2.291  0.00  0.00    -0.148 NA
ATOM     24  N   UNL     1     -39.178  24.978   0.619  0.00  0.00    -0.148 NA
ATOM     25  N   UNL     1     -37.021  24.201  -0.005  0.00  0.00    -0.340 N 
ATOM     26  C   UNL     1     -37.357  25.992   1.703  0.00  0.00    +0.172 A 
ATOM     27  C   UNL     1     -37.884  24.983   0.708  0.00  0.00    +0.169 A 
ATOM     28  H   UNL     1     -35.402  25.560   1.379  0.00  0.00    +0.148 HD
ATOM     29  H   UNL     1     -37.371  23.546  -0.652  0.00  0.00    +0.144 HD
ATOM     30  H   UNL     1     -36.050  24.292   0.127  0.00  0.00    +0.144 HD
ENDBRANCH  19  22
ENDBRANCH  18  19
ENDBRANCH  17  18
ENDBRANCH   1  17
TORSDOF 7
ENDMDL
MODEL 9
REMARK VINA RESULT:      -6.3      5.306      8.983
REMARK  Name = 5487777
REMARK  7 active torsions:
REMARK  status: ('A' for Active; 'I' for Inactive)
REMARK    1  A    between atoms: O_1  and  C_5
REMARK    2  A    between atoms: O_1  and  C_17
REMARK    3  A    between atoms: C_2  and  C_8
REMARK    4  A    between atoms: C_8  and  N_9
REMARK    5  A    between atoms: C_17  and  C_18
REMARK    6  A    between atoms: C_18  and  C_19
REMARK    7  A    between atoms: C_19  and  N_22
REMARK                            x       y       z     vdW  Elec       q    Type
REMARK                         _______ _______ _______ _____ _____    ______ ____
ROOT
ATOM      1  O   UNL     1     -35.426  20.410   3.012  0.00  0.00    -0.475 OA
ENDROOT
BRANCH   1   5
ATOM      2  C   UNL     1     -35.789  23.865   4.121  0.00  0.00    -0.040 C 
ATOM      3  C   UNL     1     -35.759  22.756   3.288  0.00  0.00    +0.031 C 
ATOM      4  C   UNL     1     -35.523  23.746   5.479  0.00  0.00    -0.006 C 
ATOM      5  C   UNL     1     -35.458  21.503   3.822  0.00  0.00    +0.138 C 
ATOM      6  C   UNL     1     -35.223  22.493   6.013  0.00  0.00    +0.003 C 
ATOM      7  C   UNL     1     -35.190  21.372   5.184  0.00  0.00    +0.037 C 
BRANCH   2   8
ATOM      8  C   UNL     1     -36.114  25.218   3.546  0.00  0.00    -0.050 C 
BRANCH   8   9
ATOM      9  N   UNL     1     -37.373  25.206   2.801  0.00  0.00    +0.390 N 
ATOM     10  C   UNL     1     -40.016  26.222   2.044  0.00  0.00    -0.004 C 
ATOM     11  C   UNL     1     -38.782  26.392   1.150  0.00  0.00    -0.023 C 
ATOM     12  C   UNL     1     -39.833  25.001   2.951  0.00  0.00    -0.023 C 
ATOM     13  C   UNL     1     -37.495  26.415   1.978  0.00  0.00    -0.077 C 
ATOM     14  C   UNL     1     -38.511  25.071   3.718  0.00  0.00    -0.077 C 
ATOM     15  C   UNL     1     -41.286  26.099   1.206  0.00  0.00    -0.000 C 
ATOM     16  H   UNL     1     -37.374  24.398   2.176  0.00  0.00    -0.079 HD
ENDBRANCH   8   9
ENDBRANCH   2   8
ENDBRANCH   1   5
BRANCH   1  17
ATOM     17  C   UNL     1     -34.551  20.458   1.887  0.00  0.00    +0.207 C 
BRANCH  17  18
ATOM     18  C   UNL     1     -35.051  19.477   0.834  0.00  0.00    +0.069 C 
BRANCH  18  19
ATOM     19  C   UNL     1     -36.111  20.079  -0.082  0.00  0.00    +0.092 C 
BRANCH  19  22
ATOM     20  S   UNL     1     -40.543  20.513  -1.248  0.00  0.00    +0.270 S 
ATOM     21  O   UNL     1     -41.057  19.105  -1.186  0.00  0.00    -0.208 OA
ATOM     22  N   UNL     1     -37.263  20.509   0.675  0.00  0.00    -0.315 N 
ATOM     23  N   UNL     1     -38.866  20.231  -1.057  0.00  0.00    -0.148 NA
ATOM     24  N   UNL     1     -40.820  21.004   0.370  0.00  0.00    -0.148 NA
ATOM     25  N   UNL     1     -39.489  21.388   2.300  0.00  0.00    -0.340 N 
ATOM     26  C   UNL     1     -38.522  20.562   0.150  0.00  0.00    +0.172 A 
ATOM     27  C   UNL     1     -39.686  21.023   0.999  0.00  0.00    +0.169 A 
ATOM     28  H   UNL     1     -37.135  20.776   1.614  0.00  0.00    +0.148 HD
ATOM     29  H   UNL     1     -40.250  21.687   2.848  0.00  0.00    +0.144 HD
ATOM     30  H   UNL     1     -38.586  21.353   2.690  0.00  0.00    +0.144 HD
ENDBRANCH  19  22
ENDBRANCH  18  19
ENDBRANCH  17  18
ENDBRANCH   1  17
TORSDOF 7
ENDMDL
