MODEL 1
REMARK VINA RESULT:      -6.8      0.000      0.000
REMARK  Name = 5321864
REMARK  5 active torsions:
REMARK  status: ('A' for Active; 'I' for Inactive)
REMARK    1  A    between atoms: C_5  and  C_12
REMARK    2  A    between atoms: C_8  and  O_22
REMARK    3  A    between atoms: C_10  and  O_24
REMARK    4  A    between atoms: C_13  and  O_18
REMARK    5  A    between atoms: C_15  and  O_20
REMARK                            x       y       z     vdW  Elec       q    Type
REMARK                         _______ _______ _______ _____ _____    ______ ____
ROOT
ATOM      1  O   UNL     1     -33.864  26.073   5.165  0.00  0.00    -0.453 OA
ATOM      2  O   UNL     1     -33.712  25.068   1.221  0.00  0.00    -0.286 OA
ATOM      3  C   UNL     1     -34.398  24.487   3.405  0.00  0.00    +0.107 C 
ATOM      4  C   UNL     1     -34.416  24.892   4.739  0.00  0.00    +0.154 C 
ATOM      5  C   UNL     1     -33.256  26.894   4.229  0.00  0.00    +0.151 C 
ATOM      6  C   UNL     1     -33.761  25.360   2.407  0.00  0.00    +0.205 C 
ATOM      7  C   UNL     1     -33.180  26.618   2.916  0.00  0.00    +0.080 C 
ATOM      8  C   UNL     1     -34.977  23.273   3.028  0.00  0.00    +0.143 C 
ATOM      9  C   UNL     1     -35.016  24.084   5.705  0.00  0.00    +0.074 C 
ATOM     10  C   UNL     1     -35.594  22.869   5.332  0.00  0.00    +0.140 C 
ATOM     11  C   UNL     1     -35.575  22.466   3.996  0.00  0.00    +0.073 C 
ENDROOT
BRANCH   5  12
ATOM     12  C   UNL     1     -32.701  28.141   4.793  0.00  0.00    +0.071 C 
ATOM     13  C   UNL     1     -32.111  28.167   6.061  0.00  0.00    +0.170 C 
ATOM     14  C   UNL     1     -32.769  29.317   4.040  0.00  0.00    +0.006 C 
ATOM     15  C   UNL     1     -31.594  29.357   6.571  0.00  0.00    +0.168 C 
ATOM     16  C   UNL     1     -32.252  30.508   4.550  0.00  0.00    +0.003 C 
ATOM     17  C   UNL     1     -31.664  30.528   5.816  0.00  0.00    +0.040 C 
BRANCH  13  18
ATOM     18  O   UNL     1     -32.036  27.029   6.811  0.00  0.00    -0.503 OA
ATOM     19  H   UNL     1     -31.293  26.879   7.362  0.00  0.00    +0.292 HD
ENDBRANCH  13  18
BRANCH  15  20
ATOM     20  O   UNL     1     -31.017  29.392   7.805  0.00  0.00    -0.503 OA
ATOM     21  H   UNL     1     -31.095  30.159   8.336  0.00  0.00    +0.292 HD
ENDBRANCH  15  20
ENDBRANCH   5  12
BRANCH   8  22
ATOM     22  O   UNL     1     -34.985  22.833   1.739  0.00  0.00    -0.505 OA
ATOM     23  H   UNL     1     -34.692  21.967   1.537  0.00  0.00    +0.292 HD
ENDBRANCH   8  22
BRANCH  10  24
ATOM     24  O   UNL     1     -36.180  22.079   6.273  0.00  0.00    -0.505 OA
ATOM     25  H   UNL     1     -37.015  21.689   6.103  0.00  0.00    +0.292 HD
ENDBRANCH  10  24
TORSDOF 5
ENDMDL
MODEL 2
REMARK VINA RESULT:      -6.4      4.191      8.558
REMARK  Name = 5321864
REMARK  5 active torsions:
REMARK  status: ('A' for Active; 'I' for Inactive)
REMARK    1  A    between atoms: C_5  and  C_12
REMARK    2  A    between atoms: C_8  and  O_22
REMARK    3  A    between atoms: C_10  and  O_24
REMARK    4  A    between atoms: C_13  and  O_18
REMARK    5  A    between atoms: C_15  and  O_20
REMARK                            x       y       z     vdW  Elec       q    Type
REMARK                         _______ _______ _______ _____ _____    ______ ____
ROOT
ATOM      1  O   UNL     1     -37.799  23.376   2.284  0.00  0.00    -0.453 OA
ATOM      2  O   UNL     1     -35.201  20.631   3.802  0.00  0.00    -0.286 OA
ATOM      3  C   UNL     1     -36.098  22.813   3.923  0.00  0.00    +0.107 C 
ATOM      4  C   UNL     1     -37.008  23.703   3.355  0.00  0.00    +0.154 C 
ATOM      5  C   UNL     1     -37.681  22.107   1.738  0.00  0.00    +0.151 C 
ATOM      6  C   UNL     1     -35.976  21.463   3.353  0.00  0.00    +0.205 C 
ATOM      7  C   UNL     1     -36.847  21.161   2.200  0.00  0.00    +0.080 C 
ATOM      8  C   UNL     1     -35.317  23.201   5.015  0.00  0.00    +0.143 C 
ATOM      9  C   UNL     1     -37.144  24.990   3.878  0.00  0.00    +0.074 C 
ATOM     10  C   UNL     1     -36.366  25.382   4.969  0.00  0.00    +0.140 C 
ATOM     11  C   UNL     1     -35.455  24.489   5.536  0.00  0.00    +0.073 C 
ENDROOT
BRANCH   5  12
ATOM     12  C   UNL     1     -38.582  21.859   0.595  0.00  0.00    +0.071 C 
ATOM     13  C   UNL     1     -39.862  21.327   0.778  0.00  0.00    +0.170 C 
ATOM     14  C   UNL     1     -38.141  22.164  -0.697  0.00  0.00    +0.006 C 
ATOM     15  C   UNL     1     -40.694  21.103  -0.318  0.00  0.00    +0.168 C 
ATOM     16  C   UNL     1     -38.973  21.940  -1.794  0.00  0.00    +0.003 C 
ATOM     17  C   UNL     1     -40.250  21.409  -1.605  0.00  0.00    +0.040 C 
BRANCH  13  18
ATOM     18  O   UNL     1     -40.311  21.023   2.032  0.00  0.00    -0.503 OA
ATOM     19  H   UNL     1     -40.835  20.259   2.168  0.00  0.00    +0.292 HD
ENDBRANCH  13  18
BRANCH  15  20
ATOM     20  O   UNL     1     -41.943  20.585  -0.149  0.00  0.00    -0.503 OA
ATOM     21  H   UNL     1     -42.591  20.697  -0.816  0.00  0.00    +0.292 HD
ENDBRANCH  15  20
ENDBRANCH   5  12
BRANCH   8  22
ATOM     22  O   UNL     1     -34.415  22.369   5.604  0.00  0.00    -0.505 OA
ATOM     23  H   UNL     1     -34.624  21.949   6.415  0.00  0.00    +0.292 HD
ENDBRANCH   8  22
BRANCH  10  24
ATOM     24  O   UNL     1     -36.497  26.636   5.481  0.00  0.00    -0.505 OA
ATOM     25  H   UNL     1     -36.847  26.756   6.342  0.00  0.00    +0.292 HD
ENDBRANCH  10  24
TORSDOF 5
ENDMDL
MODEL 3
REMARK VINA RESULT:      -6.3      2.135      2.352
REMARK  Name = 5321864
REMARK  5 active torsions:
REMARK  status: ('A' for Active; 'I' for Inactive)
REMARK    1  A    between atoms: C_5  and  C_12
REMARK    2  A    between atoms: C_8  and  O_22
REMARK    3  A    between atoms: C_10  and  O_24
REMARK    4  A    between atoms: C_13  and  O_18
REMARK    5  A    between atoms: C_15  and  O_20
REMARK                            x       y       z     vdW  Elec       q    Type
REMARK                         _______ _______ _______ _____ _____    ______ ____
ROOT
ATOM      1  O   UNL     1     -33.022  26.649   5.085  0.00  0.00    -0.453 OA
ATOM      2  O   UNL     1     -35.493  28.442   2.388  0.00  0.00    -0.286 OA
ATOM      3  C   UNL     1     -35.127  26.643   3.876  0.00  0.00    +0.107 C 
ATOM      4  C   UNL     1     -34.235  26.083   4.788  0.00  0.00    +0.154 C 
ATOM      5  C   UNL     1     -32.666  27.825   4.443  0.00  0.00    +0.151 C 
ATOM      6  C   UNL     1     -34.758  27.895   3.198  0.00  0.00    +0.205 C 
ATOM      7  C   UNL     1     -33.441  28.463   3.550  0.00  0.00    +0.080 C 
ATOM      8  C   UNL     1     -36.351  26.022   3.612  0.00  0.00    +0.143 C 
ATOM      9  C   UNL     1     -34.563  24.897   5.446  0.00  0.00    +0.074 C 
ATOM     10  C   UNL     1     -35.784  24.274   5.186  0.00  0.00    +0.140 C 
ATOM     11  C   UNL     1     -36.676  24.836   4.271  0.00  0.00    +0.073 C 
ENDROOT
BRANCH   5  12
ATOM     12  C   UNL     1     -31.345  28.350   4.840  0.00  0.00    +0.071 C 
ATOM     13  C   UNL     1     -31.028  28.585   6.181  0.00  0.00    +0.170 C 
ATOM     14  C   UNL     1     -30.393  28.616   3.850  0.00  0.00    +0.006 C 
ATOM     15  C   UNL     1     -29.772  29.082   6.530  0.00  0.00    +0.168 C 
ATOM     16  C   UNL     1     -29.137  29.113   4.199  0.00  0.00    +0.003 C 
ATOM     17  C   UNL     1     -28.826  29.345   5.539  0.00  0.00    +0.040 C 
BRANCH  13  18
ATOM     18  O   UNL     1     -31.943  28.332   7.162  0.00  0.00    -0.503 OA
ATOM     19  H   UNL     1     -31.907  27.528   7.641  0.00  0.00    +0.292 HD
ENDBRANCH  13  18
BRANCH  15  20
ATOM     20  O   UNL     1     -29.454  29.314   7.835  0.00  0.00    -0.503 OA
ATOM     21  H   UNL     1     -30.028  29.022   8.516  0.00  0.00    +0.292 HD
ENDBRANCH  15  20
ENDBRANCH   5  12
BRANCH   8  22
ATOM     22  O   UNL     1     -37.256  26.530   2.730  0.00  0.00    -0.505 OA
ATOM     23  H   UNL     1     -37.507  27.431   2.781  0.00  0.00    +0.292 HD
ENDBRANCH   8  22
BRANCH  10  24
ATOM     24  O   UNL     1     -36.106  23.116   5.826  0.00  0.00    -0.505 OA
ATOM     25  H   UNL     1     -36.717  23.129   6.536  0.00  0.00    +0.292 HD
ENDBRANCH  10  24
TORSDOF 5
ENDMDL
MODEL 4
REMARK VINA RESULT:      -6.2      4.555      7.130
REMARK  Name = 5321864
REMARK  5 active torsions:
REMARK  status: ('A' for Active; 'I' for Inactive)
REMARK    1  A    between atoms: C_5  and  C_12
REMARK    2  A    between atoms: C_8  and  O_22
REMARK    3  A    between atoms: C_10  and  O_24
REMARK    4  A    between atoms: C_13  and  O_18
REMARK    5  A    between atoms: C_15  and  O_20
REMARK                            x       y       z     vdW  Elec       q    Type
REMARK                         _______ _______ _______ _____ _____    ______ ____
ROOT
ATOM      1  O   UNL     1     -34.409  20.273   2.312  0.00  0.00    -0.453 OA
ATOM      2  O   UNL     1     -37.392  19.396  -0.320  0.00  0.00    -0.286 OA
ATOM      3  C   UNL     1     -35.232  18.891   0.493  0.00  0.00    +0.107 C 
ATOM      4  C   UNL     1     -34.253  19.243   1.420  0.00  0.00    +0.154 C 
ATOM      5  C   UNL     1     -35.590  20.998   2.284  0.00  0.00    +0.151 C 
ATOM      6  C   UNL     1     -36.490  19.652   0.465  0.00  0.00    +0.205 C 
ATOM      7  C   UNL     1     -36.608  20.752   1.443  0.00  0.00    +0.080 C 
ATOM      8  C   UNL     1     -35.018  17.832  -0.393  0.00  0.00    +0.143 C 
ATOM      9  C   UNL     1     -33.051  18.536   1.469  0.00  0.00    +0.074 C 
ATOM     10  C   UNL     1     -32.833  17.477   0.585  0.00  0.00    +0.140 C 
ATOM     11  C   UNL     1     -33.815  17.126  -0.342  0.00  0.00    +0.073 C 
ENDROOT
BRANCH   5  12
ATOM     12  C   UNL     1     -35.656  22.078   3.289  0.00  0.00    +0.071 C 
ATOM     13  C   UNL     1     -35.418  21.828   4.644  0.00  0.00    +0.170 C 
ATOM     14  C   UNL     1     -35.963  23.377   2.872  0.00  0.00    +0.006 C 
ATOM     15  C   UNL     1     -35.486  22.865   5.573  0.00  0.00    +0.168 C 
ATOM     16  C   UNL     1     -36.032  24.415   3.801  0.00  0.00    +0.003 C 
ATOM     17  C   UNL     1     -35.793  24.160   5.152  0.00  0.00    +0.040 C 
BRANCH  13  18
ATOM     18  O   UNL     1     -35.117  20.566   5.070  0.00  0.00    -0.503 OA
ATOM     19  H   UNL     1     -35.725  20.095   5.606  0.00  0.00    +0.292 HD
ENDBRANCH  13  18
BRANCH  15  20
ATOM     20  O   UNL     1     -35.256  22.630   6.895  0.00  0.00    -0.503 OA
ATOM     21  H   UNL     1     -34.806  23.268   7.413  0.00  0.00    +0.292 HD
ENDBRANCH  15  20
ENDBRANCH   5  12
BRANCH   8  22
ATOM     22  O   UNL     1     -35.943  17.449  -1.316  0.00  0.00    -0.505 OA
ATOM     23  H   UNL     1     -35.917  17.806  -2.182  0.00  0.00    +0.292 HD
ENDBRANCH   8  22
BRANCH  10  24
ATOM     24  O   UNL     1     -31.662  16.785   0.630  0.00  0.00    -0.505 OA
ATOM     25  H   UNL     1     -31.509  16.083   0.029  0.00  0.00    +0.292 HD
ENDBRANCH  10  24
TORSDOF 5
ENDMDL
MODEL 5
REMARK VINA RESULT:      -6.1      5.930      9.006
REMARK  Name = 5321864
REMARK  5 active torsions:
REMARK  status: ('A' for Active; 'I' for Inactive)
REMARK    1  A    between atoms: C_5  and  C_12
REMARK    2  A    between atoms: C_8  and  O_22
REMARK    3  A    between atoms: C_10  and  O_24
REMARK    4  A    between atoms: C_13  and  O_18
REMARK    5  A    between atoms: C_15  and  O_20
REMARK                            x       y       z     vdW  Elec       q    Type
REMARK                         _______ _______ _______ _____ _____    ______ ____
ROOT
ATOM      1  O   UNL     1     -35.391  18.710   0.224  0.00  0.00    -0.453 OA
ATOM      2  O   UNL     1     -31.753  17.119   1.131  0.00  0.00    -0.286 OA
ATOM      3  C   UNL     1     -33.850  16.840   0.077  0.00  0.00    +0.107 C 
ATOM      4  C   UNL     1     -35.075  17.445  -0.198  0.00  0.00    +0.154 C 
ATOM      5  C   UNL     1     -34.454  19.414   0.964  0.00  0.00    +0.151 C 
ATOM      6  C   UNL     1     -32.849  17.587   0.855  0.00  0.00    +0.205 C 
ATOM      7  C   UNL     1     -33.239  18.943   1.288  0.00  0.00    +0.080 C 
ATOM      8  C   UNL     1     -33.581  15.547  -0.379  0.00  0.00    +0.143 C 
ATOM      9  C   UNL     1     -36.040  16.759  -0.935  0.00  0.00    +0.074 C 
ATOM     10  C   UNL     1     -35.776  15.467  -1.393  0.00  0.00    +0.140 C 
ATOM     11  C   UNL     1     -34.549  14.863  -1.116  0.00  0.00    +0.073 C 
ENDROOT
BRANCH   5  12
ATOM     12  C   UNL     1     -34.895  20.766   1.362  0.00  0.00    +0.071 C 
ATOM     13  C   UNL     1     -35.966  20.954   2.240  0.00  0.00    +0.170 C 
ATOM     14  C   UNL     1     -34.222  21.880   0.847  0.00  0.00    +0.006 C 
ATOM     15  C   UNL     1     -36.362  22.241   2.601  0.00  0.00    +0.168 C 
ATOM     16  C   UNL     1     -34.619  23.168   1.208  0.00  0.00    +0.003 C 
ATOM     17  C   UNL     1     -35.689  23.349   2.085  0.00  0.00    +0.040 C 
BRANCH  13  18
ATOM     18  O   UNL     1     -36.635  19.879   2.753  0.00  0.00    -0.503 OA
ATOM     19  H   UNL     1     -36.736  19.789   3.680  0.00  0.00    +0.292 HD
ENDBRANCH  13  18
BRANCH  15  20
ATOM     20  O   UNL     1     -37.406  22.433   3.456  0.00  0.00    -0.503 OA
ATOM     21  H   UNL     1     -38.280  22.488   3.124  0.00  0.00    +0.292 HD
ENDBRANCH  15  20
ENDBRANCH   5  12
BRANCH   8  22
ATOM     22  O   UNL     1     -32.400  14.914  -0.136  0.00  0.00    -0.505 OA
ATOM     23  H   UNL     1     -32.395  14.067   0.264  0.00  0.00    +0.292 HD
ENDBRANCH   8  22
BRANCH  10  24
ATOM     24  O   UNL     1     -36.717  14.795  -2.112  0.00  0.00    -0.505 OA
ATOM     25  H   UNL     1     -37.268  15.260  -2.711  0.00  0.00    +0.292 HD
ENDBRANCH  10  24
TORSDOF 5
ENDMDL
MODEL 6
REMARK VINA RESULT:      -6.1      2.710      6.629
REMARK  Name = 5321864
REMARK  5 active torsions:
REMARK  status: ('A' for Active; 'I' for Inactive)
REMARK    1  A    between atoms: C_5  and  C_12
REMARK    2  A    between atoms: C_8  and  O_22
REMARK    3  A    between atoms: C_10  and  O_24
REMARK    4  A    between atoms: C_13  and  O_18
REMARK    5  A    between atoms: C_15  and  O_20
REMARK                            x       y       z     vdW  Elec       q    Type
REMARK                         _______ _______ _______ _____ _____    ______ ____
ROOT
ATOM      1  O   UNL     1     -35.902  25.643   3.125  0.00  0.00    -0.453 OA
ATOM      2  O   UNL     1     -33.008  28.194   4.431  0.00  0.00    -0.286 OA
ATOM      3  C   UNL     1     -34.885  27.847   3.040  0.00  0.00    +0.107 C 
ATOM      4  C   UNL     1     -35.848  26.924   2.637  0.00  0.00    +0.154 C 
ATOM      5  C   UNL     1     -34.951  25.249   4.053  0.00  0.00    +0.151 C 
ATOM      6  C   UNL     1     -33.879  27.435   4.032  0.00  0.00    +0.205 C 
ATOM      7  C   UNL     1     -33.978  26.047   4.524  0.00  0.00    +0.080 C 
ATOM      8  C   UNL     1     -34.879  29.139   2.510  0.00  0.00    +0.143 C 
ATOM      9  C   UNL     1     -36.815  27.289   1.700  0.00  0.00    +0.074 C 
ATOM     10  C   UNL     1     -36.812  28.579   1.166  0.00  0.00    +0.140 C 
ATOM     11  C   UNL     1     -35.847  29.502   1.572  0.00  0.00    +0.073 C 
ENDROOT
BRANCH   5  12
ATOM     12  C   UNL     1     -35.104  23.855   4.516  0.00  0.00    +0.071 C 
ATOM     13  C   UNL     1     -35.326  22.809   3.614  0.00  0.00    +0.170 C 
ATOM     14  C   UNL     1     -35.023  23.580   5.884  0.00  0.00    +0.006 C 
ATOM     15  C   UNL     1     -35.466  21.501   4.077  0.00  0.00    +0.168 C 
ATOM     16  C   UNL     1     -35.164  22.271   6.347  0.00  0.00    +0.003 C 
ATOM     17  C   UNL     1     -35.385  21.232   5.443  0.00  0.00    +0.040 C 
BRANCH  13  18
ATOM     18  O   UNL     1     -35.408  23.058   2.274  0.00  0.00    -0.503 OA
ATOM     19  H   UNL     1     -35.787  23.859   1.969  0.00  0.00    +0.292 HD
ENDBRANCH  13  18
BRANCH  15  20
ATOM     20  O   UNL     1     -35.683  20.476   3.206  0.00  0.00    -0.503 OA
ATOM     21  H   UNL     1     -35.428  20.562   2.309  0.00  0.00    +0.292 HD
ENDBRANCH  15  20
ENDBRANCH   5  12
BRANCH   8  22
ATOM     22  O   UNL     1     -33.960  30.076   2.871  0.00  0.00    -0.505 OA
ATOM     23  H   UNL     1     -33.264  30.302   2.285  0.00  0.00    +0.292 HD
ENDBRANCH   8  22
BRANCH  10  24
ATOM     24  O   UNL     1     -37.754  28.938   0.252  0.00  0.00    -0.505 OA
ATOM     25  H   UNL     1     -38.335  29.651   0.433  0.00  0.00    +0.292 HD
ENDBRANCH  10  24
TORSDOF 5
ENDMDL
MODEL 7
REMARK VINA RESULT:      -6.1      4.725      6.878
REMARK  Name = 5321864
REMARK  5 active torsions:
REMARK  status: ('A' for Active; 'I' for Inactive)
REMARK    1  A    between atoms: C_5  and  C_12
REMARK    2  A    between atoms: C_8  and  O_22
REMARK    3  A    between atoms: C_10  and  O_24
REMARK    4  A    between atoms: C_13  and  O_18
REMARK    5  A    between atoms: C_15  and  O_20
REMARK                            x       y       z     vdW  Elec       q    Type
REMARK                         _______ _______ _______ _____ _____    ______ ____
ROOT
ATOM      1  O   UNL     1     -38.594  24.313   2.930  0.00  0.00    -0.453 OA
ATOM      2  O   UNL     1     -37.593  27.917   1.318  0.00  0.00    -0.286 OA
ATOM      3  C   UNL     1     -39.200  26.197   1.524  0.00  0.00    +0.107 C 
ATOM      4  C   UNL     1     -39.478  24.963   2.109  0.00  0.00    +0.154 C 
ATOM      5  C   UNL     1     -37.367  24.907   3.183  0.00  0.00    +0.151 C 
ATOM      6  C   UNL     1     -37.902  26.835   1.796  0.00  0.00    +0.205 C 
ATOM      7  C   UNL     1     -36.985  26.094   2.684  0.00  0.00    +0.080 C 
ATOM      8  C   UNL     1     -40.140  26.814   0.694  0.00  0.00    +0.143 C 
ATOM      9  C   UNL     1     -40.702  24.338   1.869  0.00  0.00    +0.074 C 
ATOM     10  C   UNL     1     -41.644  24.951   1.041  0.00  0.00    +0.140 C 
ATOM     11  C   UNL     1     -41.363  26.186   0.456  0.00  0.00    +0.073 C 
ENDROOT
BRANCH   5  12
ATOM     12  C   UNL     1     -36.495  24.126   4.083  0.00  0.00    +0.071 C 
ATOM     13  C   UNL     1     -36.340  22.745   3.930  0.00  0.00    +0.170 C 
ATOM     14  C   UNL     1     -35.811  24.786   5.109  0.00  0.00    +0.006 C 
ATOM     15  C   UNL     1     -35.510  22.030   4.793  0.00  0.00    +0.168 C 
ATOM     16  C   UNL     1     -34.981  24.072   5.973  0.00  0.00    +0.003 C 
ATOM     17  C   UNL     1     -34.830  22.694   5.815  0.00  0.00    +0.040 C 
BRANCH  13  18
ATOM     18  O   UNL     1     -36.999  22.082   2.934  0.00  0.00    -0.503 OA
ATOM     19  H   UNL     1     -36.570  21.916   2.118  0.00  0.00    +0.292 HD
ENDBRANCH  13  18
BRANCH  15  20
ATOM     20  O   UNL     1     -35.353  20.684   4.651  0.00  0.00    -0.503 OA
ATOM     21  H   UNL     1     -35.103  20.162   5.387  0.00  0.00    +0.292 HD
ENDBRANCH  15  20
ENDBRANCH   5  12
BRANCH   8  22
ATOM     22  O   UNL     1     -39.915  28.018   0.100  0.00  0.00    -0.505 OA
ATOM     23  H   UNL     1     -39.088  28.446   0.205  0.00  0.00    +0.292 HD
ENDBRANCH   8  22
BRANCH  10  24
ATOM     24  O   UNL     1     -42.839  24.343   0.805  0.00  0.00    -0.505 OA
ATOM     25  H   UNL     1     -43.477  24.761   0.261  0.00  0.00    +0.292 HD
ENDBRANCH  10  24
TORSDOF 5
ENDMDL
MODEL 8
REMARK VINA RESULT:      -6.1      2.802      3.720
REMARK  Name = 5321864
REMARK  5 active torsions:
REMARK  status: ('A' for Active; 'I' for Inactive)
REMARK    1  A    between atoms: C_5  and  C_12
REMARK    2  A    between atoms: C_8  and  O_22
REMARK    3  A    between atoms: C_10  and  O_24
REMARK    4  A    between atoms: C_13  and  O_18
REMARK    5  A    between atoms: C_15  and  O_20
REMARK                            x       y       z     vdW  Elec       q    Type
REMARK                         _______ _______ _______ _____ _____    ______ ____
ROOT
ATOM      1  O   UNL     1     -36.101  25.973   3.947  0.00  0.00    -0.453 OA
ATOM      2  O   UNL     1     -35.529  21.945   3.763  0.00  0.00    -0.286 OA
ATOM      3  C   UNL     1     -36.947  23.784   3.326  0.00  0.00    +0.107 C 
ATOM      4  C   UNL     1     -37.077  25.168   3.418  0.00  0.00    +0.154 C 
ATOM      5  C   UNL     1     -34.939  25.382   4.416  0.00  0.00    +0.151 C 
ATOM      6  C   UNL     1     -35.711  23.153   3.815  0.00  0.00    +0.205 C 
ATOM      7  C   UNL     1     -34.693  24.062   4.377  0.00  0.00    +0.080 C 
ATOM      8  C   UNL     1     -37.974  23.012   2.777  0.00  0.00    +0.143 C 
ATOM      9  C   UNL     1     -38.238  25.792   2.960  0.00  0.00    +0.074 C 
ATOM     10  C   UNL     1     -39.267  25.025   2.412  0.00  0.00    +0.140 C 
ATOM     11  C   UNL     1     -39.135  23.638   2.320  0.00  0.00    +0.073 C 
ENDROOT
BRANCH   5  12
ATOM     12  C   UNL     1     -33.954  26.340   4.958  0.00  0.00    +0.071 C 
ATOM     13  C   UNL     1     -33.322  27.279   4.136  0.00  0.00    +0.170 C 
ATOM     14  C   UNL     1     -33.650  26.304   6.323  0.00  0.00    +0.006 C 
ATOM     15  C   UNL     1     -32.396  28.172   4.672  0.00  0.00    +0.168 C 
ATOM     16  C   UNL     1     -32.723  27.198   6.859  0.00  0.00    +0.003 C 
ATOM     17  C   UNL     1     -32.096  28.133   6.034  0.00  0.00    +0.040 C 
BRANCH  13  18
ATOM     18  O   UNL     1     -33.606  27.329   2.801  0.00  0.00    -0.503 OA
ATOM     19  H   UNL     1     -34.295  27.882   2.489  0.00  0.00    +0.292 HD
ENDBRANCH  13  18
BRANCH  15  20
ATOM     20  O   UNL     1     -31.776  29.091   3.879  0.00  0.00    -0.503 OA
ATOM     21  H   UNL     1     -31.404  29.861   4.258  0.00  0.00    +0.292 HD
ENDBRANCH  15  20
ENDBRANCH   5  12
BRANCH   8  22
ATOM     22  O   UNL     1     -37.895  21.658   2.666  0.00  0.00    -0.505 OA
ATOM     23  H   UNL     1     -38.439  21.205   2.052  0.00  0.00    +0.292 HD
ENDBRANCH   8  22
BRANCH  10  24
ATOM     24  O   UNL     1     -40.401  25.630   1.964  0.00  0.00    -0.505 OA
ATOM     25  H   UNL     1     -40.375  26.160   1.191  0.00  0.00    +0.292 HD
ENDBRANCH  10  24
TORSDOF 5
ENDMDL
MODEL 9
REMARK VINA RESULT:      -5.9      1.668      6.280
REMARK  Name = 5321864
REMARK  5 active torsions:
REMARK  status: ('A' for Active; 'I' for Inactive)
REMARK    1  A    between atoms: C_5  and  C_12
REMARK    2  A    between atoms: C_8  and  O_22
REMARK    3  A    between atoms: C_10  and  O_24
REMARK    4  A    between atoms: C_13  and  O_18
REMARK    5  A    between atoms: C_15  and  O_20
REMARK                            x       y       z     vdW  Elec       q    Type
REMARK                         _______ _______ _______ _____ _____    ______ ____
ROOT
ATOM      1  O   UNL     1     -33.400  26.310   4.829  0.00  0.00    -0.453 OA
ATOM      2  O   UNL     1     -33.848  29.105   1.900  0.00  0.00    -0.286 OA
ATOM      3  C   UNL     1     -32.981  28.565   4.030  0.00  0.00    +0.107 C 
ATOM      4  C   UNL     1     -32.864  27.562   4.991  0.00  0.00    +0.154 C 
ATOM      5  C   UNL     1     -34.094  26.034   3.661  0.00  0.00    +0.151 C 
ATOM      6  C   UNL     1     -33.710  28.273   2.786  0.00  0.00    +0.205 C 
ATOM      7  C   UNL     1     -34.269  26.913   2.660  0.00  0.00    +0.080 C 
ATOM      8  C   UNL     1     -32.414  29.823   4.248  0.00  0.00    +0.143 C 
ATOM      9  C   UNL     1     -32.176  27.812   6.179  0.00  0.00    +0.074 C 
ATOM     10  C   UNL     1     -31.609  29.068   6.402  0.00  0.00    +0.140 C 
ATOM     11  C   UNL     1     -31.728  30.070   5.438  0.00  0.00    +0.073 C 
ENDROOT
BRANCH   5  12
ATOM     12  C   UNL     1     -34.622  24.658   3.587  0.00  0.00    +0.071 C 
ATOM     13  C   UNL     1     -35.158  24.022   4.712  0.00  0.00    +0.170 C 
ATOM     14  C   UNL     1     -34.586  23.979   2.365  0.00  0.00    +0.006 C 
ATOM     15  C   UNL     1     -35.652  22.721   4.616  0.00  0.00    +0.168 C 
ATOM     16  C   UNL     1     -35.079  22.678   2.269  0.00  0.00    +0.003 C 
ATOM     17  C   UNL     1     -35.613  22.049   3.394  0.00  0.00    +0.040 C 
BRANCH  13  18
ATOM     18  O   UNL     1     -35.203  24.668   5.914  0.00  0.00    -0.503 OA
ATOM     19  H   UNL     1     -35.837  25.342   6.061  0.00  0.00    +0.292 HD
ENDBRANCH  13  18
BRANCH  15  20
ATOM     20  O   UNL     1     -36.176  22.094   5.707  0.00  0.00    -0.503 OA
ATOM     21  H   UNL     1     -37.035  22.316   6.006  0.00  0.00    +0.292 HD
ENDBRANCH  15  20
ENDBRANCH   5  12
BRANCH   8  22
ATOM     22  O   UNL     1     -32.502  30.834   3.341  0.00  0.00    -0.505 OA
ATOM     23  H   UNL     1     -31.763  31.049   2.805  0.00  0.00    +0.292 HD
ENDBRANCH   8  22
BRANCH  10  24
ATOM     24  O   UNL     1     -30.938  29.314   7.560  0.00  0.00    -0.505 OA
ATOM     25  H   UNL     1     -30.480  30.124   7.672  0.00  0.00    +0.292 HD
ENDBRANCH  10  24
TORSDOF 5
ENDMDL
