MODEL 1
REMARK VINA RESULT:      -5.3      0.000      0.000
REMARK  Name = 193643
REMARK  4 active torsions:
REMARK  status: ('A' for Active; 'I' for Inactive)
REMARK    1  A    between atoms: C_2  and  N_10
REMARK    2  A    between atoms: C_3  and  N_13
REMARK    3  A    between atoms: C_4  and  N_16
REMARK    4  A    between atoms: C_6  and  O_17
REMARK                            x       y       z     vdW  Elec       q    Type
REMARK                         _______ _______ _______ _____ _____    ______ ____
ROOT
ATOM      1  C   UNL     1     -35.227  24.331   5.019  0.00  0.00    +0.005 C 
ATOM      2  C   UNL     1     -35.317  24.368   3.627  0.00  0.00    +0.163 C 
ATOM      3  C   UNL     1     -35.449  23.183   2.904  0.00  0.00    +0.190 C 
ATOM      4  C   UNL     1     -35.490  21.960   3.573  0.00  0.00    +0.200 C 
ATOM      5  C   UNL     1     -35.269  23.107   5.687  0.00  0.00    +0.036 C 
ATOM      6  C   UNL     1     -35.400  21.922   4.965  0.00  0.00    +0.157 C 
ATOM      7  C   UNL     1     -35.086  25.581   5.826  0.00  0.00    +0.033 C 
ENDROOT
BRANCH   2  10
ATOM      8  O   UNL     1     -36.345  26.243   2.762  0.00  0.00    -0.126 OA
ATOM      9  O   UNL     1     -34.164  26.069   2.579  0.00  0.00    -0.126 OA
ATOM     10  N   UNL     1     -35.272  25.627   2.955  0.00  0.00    +0.059 N 
ENDBRANCH   2  10
BRANCH   3  13
ATOM     11  O   UNL     1     -34.493  23.085   0.809  0.00  0.00    -0.126 OA
ATOM     12  O   UNL     1     -36.662  23.388   0.954  0.00  0.00    -0.126 OA
ATOM     13  N   UNL     1     -35.539  23.221   1.479  0.00  0.00    +0.061 N 
ENDBRANCH   3  13
BRANCH   4  16
ATOM     14  O   UNL     1     -36.747  20.430   2.392  0.00  0.00    -0.126 OA
ATOM     15  O   UNL     1     -34.614  20.015   2.696  0.00  0.00    -0.126 OA
ATOM     16  N   UNL     1     -35.625  20.738   2.849  0.00  0.00    +0.062 N 
ENDBRANCH   4  16
BRANCH   6  17
ATOM     17  O   UNL     1     -35.439  20.740   5.643  0.00  0.00    -0.504 OA
ATOM     18  H   UNL     1     -35.446  19.930   5.173  0.00  0.00    +0.292 HD
ENDBRANCH   6  17
TORSDOF 4
ENDMDL
MODEL 2
REMARK VINA RESULT:      -5.0      1.016      1.465
REMARK  Name = 193643
REMARK  4 active torsions:
REMARK  status: ('A' for Active; 'I' for Inactive)
REMARK    1  A    between atoms: C_2  and  N_10
REMARK    2  A    between atoms: C_3  and  N_13
REMARK    3  A    between atoms: C_4  and  N_16
REMARK    4  A    between atoms: C_6  and  O_17
REMARK                            x       y       z     vdW  Elec       q    Type
REMARK                         _______ _______ _______ _____ _____    ______ ____
ROOT
ATOM      1  C   UNL     1     -34.521  24.892   5.039  0.00  0.00    +0.005 C 
ATOM      2  C   UNL     1     -34.491  24.842   3.645  0.00  0.00    +0.163 C 
ATOM      3  C   UNL     1     -34.980  23.721   2.977  0.00  0.00    +0.190 C 
ATOM      4  C   UNL     1     -35.499  22.648   3.702  0.00  0.00    +0.200 C 
ATOM      5  C   UNL     1     -35.041  23.820   5.764  0.00  0.00    +0.036 C 
ATOM      6  C   UNL     1     -35.529  22.698   5.096  0.00  0.00    +0.157 C 
ATOM      7  C   UNL     1     -34.007  26.079   5.790  0.00  0.00    +0.033 C 
ENDROOT
BRANCH   2  10
ATOM      8  O   UNL     1     -32.739  25.940   2.622  0.00  0.00    -0.126 OA
ATOM      9  O   UNL     1     -34.722  26.882   2.595  0.00  0.00    -0.126 OA
ATOM     10  N   UNL     1     -33.956  25.946   2.915  0.00  0.00    +0.059 N 
ENDBRANCH   2  10
BRANCH   3  13
ATOM     11  O   UNL     1     -33.979  23.108   0.993  0.00  0.00    -0.126 OA
ATOM     12  O   UNL     1     -35.889  24.185   0.909  0.00  0.00    -0.126 OA
ATOM     13  N   UNL     1     -34.947  23.668   1.550  0.00  0.00    +0.061 N 
ENDBRANCH   3  13
BRANCH   4  16
ATOM     14  O   UNL     1     -35.326  20.442   3.055  0.00  0.00    -0.126 OA
ATOM     15  O   UNL     1     -37.107  21.571   2.447  0.00  0.00    -0.126 OA
ATOM     16  N   UNL     1     -36.003  21.493   3.033  0.00  0.00    +0.062 N 
ENDBRANCH   4  16
BRANCH   6  17
ATOM     17  O   UNL     1     -36.032  21.665   5.829  0.00  0.00    -0.504 OA
ATOM     18  H   UNL     1     -35.472  20.962   6.095  0.00  0.00    +0.292 HD
ENDBRANCH   6  17
TORSDOF 4
ENDMDL
MODEL 3
REMARK VINA RESULT:      -5.0      1.628      4.229
REMARK  Name = 193643
REMARK  4 active torsions:
REMARK  status: ('A' for Active; 'I' for Inactive)
REMARK    1  A    between atoms: C_2  and  N_10
REMARK    2  A    between atoms: C_3  and  N_13
REMARK    3  A    between atoms: C_4  and  N_16
REMARK    4  A    between atoms: C_6  and  O_17
REMARK                            x       y       z     vdW  Elec       q    Type
REMARK                         _______ _______ _______ _____ _____    ______ ____
ROOT
ATOM      1  C   UNL     1     -35.709  22.972   4.647  0.00  0.00    +0.005 C 
ATOM      2  C   UNL     1     -36.071  22.876   3.303  0.00  0.00    +0.163 C 
ATOM      3  C   UNL     1     -36.602  23.983   2.643  0.00  0.00    +0.190 C 
ATOM      4  C   UNL     1     -36.773  25.187   3.327  0.00  0.00    +0.200 C 
ATOM      5  C   UNL     1     -35.880  24.176   5.330  0.00  0.00    +0.036 C 
ATOM      6  C   UNL     1     -36.412  25.283   4.671  0.00  0.00    +0.157 C 
ATOM      7  C   UNL     1     -35.135  21.807   5.386  0.00  0.00    +0.033 C 
ENDROOT
BRANCH   2  10
ATOM      8  O   UNL     1     -36.839  20.821   2.591  0.00  0.00    -0.126 OA
ATOM      9  O   UNL     1     -34.793  21.413   2.061  0.00  0.00    -0.126 OA
ATOM     10  N   UNL     1     -35.892  21.638   2.615  0.00  0.00    +0.059 N 
ENDBRANCH   2  10
BRANCH   3  13
ATOM     11  O   UNL     1     -38.143  23.541   0.985  0.00  0.00    -0.126 OA
ATOM     12  O   UNL     1     -36.118  24.147   0.394  0.00  0.00    -0.126 OA
ATOM     13  N   UNL     1     -36.974  23.885   1.267  0.00  0.00    +0.061 N 
ENDBRANCH   3  13
BRANCH   4  16
ATOM     14  O   UNL     1     -36.532  27.134   2.116  0.00  0.00    -0.126 OA
ATOM     15  O   UNL     1     -38.558  26.487   2.660  0.00  0.00    -0.126 OA
ATOM     16  N   UNL     1     -37.316  26.330   2.666  0.00  0.00    +0.062 N 
ENDBRANCH   4  16
BRANCH   6  17
ATOM     17  O   UNL     1     -36.567  26.448   5.362  0.00  0.00    -0.504 OA
ATOM     18  H   UNL     1     -35.960  27.151   5.238  0.00  0.00    +0.292 HD
ENDBRANCH   6  17
TORSDOF 4
ENDMDL
MODEL 4
REMARK VINA RESULT:      -4.9      2.278      4.776
REMARK  Name = 193643
REMARK  4 active torsions:
REMARK  status: ('A' for Active; 'I' for Inactive)
REMARK    1  A    between atoms: C_2  and  N_10
REMARK    2  A    between atoms: C_3  and  N_13
REMARK    3  A    between atoms: C_4  and  N_16
REMARK    4  A    between atoms: C_6  and  O_17
REMARK                            x       y       z     vdW  Elec       q    Type
REMARK                         _______ _______ _______ _____ _____    ______ ____
ROOT
ATOM      1  C   UNL     1     -35.249  24.338   5.069  0.00  0.00    +0.005 C 
ATOM      2  C   UNL     1     -35.952  24.732   3.930  0.00  0.00    +0.163 C 
ATOM      3  C   UNL     1     -35.610  25.913   3.272  0.00  0.00    +0.190 C 
ATOM      4  C   UNL     1     -34.564  26.701   3.753  0.00  0.00    +0.200 C 
ATOM      5  C   UNL     1     -34.203  25.126   5.548  0.00  0.00    +0.036 C 
ATOM      6  C   UNL     1     -33.861  26.307   4.891  0.00  0.00    +0.157 C 
ATOM      7  C   UNL     1     -35.587  23.078   5.799  0.00  0.00    +0.033 C 
ENDROOT
BRANCH   2  10
ATOM      8  O   UNL     1     -36.753  22.972   2.673  0.00  0.00    -0.126 OA
ATOM      9  O   UNL     1     -38.188  24.177   3.817  0.00  0.00    -0.126 OA
ATOM     10  N   UNL     1     -37.021  23.917   3.449  0.00  0.00    +0.059 N 
ENDBRANCH   2  10
BRANCH   3  13
ATOM     11  O   UNL     1     -35.929  25.929   0.989  0.00  0.00    -0.126 OA
ATOM     12  O   UNL     1     -37.338  27.045   2.248  0.00  0.00    -0.126 OA
ATOM     13  N   UNL     1     -36.331  26.317   2.107  0.00  0.00    +0.061 N 
ENDBRANCH   3  13
BRANCH   4  16
ATOM     14  O   UNL     1     -33.338  27.867   2.187  0.00  0.00    -0.126 OA
ATOM     15  O   UNL     1     -34.758  28.978   3.439  0.00  0.00    -0.126 OA
ATOM     16  N   UNL     1     -34.201  27.911   3.091  0.00  0.00    +0.062 N 
ENDBRANCH   4  16
BRANCH   6  17
ATOM     17  O   UNL     1     -32.833  27.057   5.381  0.00  0.00    -0.504 OA
ATOM     18  H   UNL     1     -31.959  26.910   5.079  0.00  0.00    +0.292 HD
ENDBRANCH   6  17
TORSDOF 4
ENDMDL
MODEL 5
REMARK VINA RESULT:      -4.9      2.366      3.139
REMARK  Name = 193643
REMARK  4 active torsions:
REMARK  status: ('A' for Active; 'I' for Inactive)
REMARK    1  A    between atoms: C_2  and  N_10
REMARK    2  A    between atoms: C_3  and  N_13
REMARK    3  A    between atoms: C_4  and  N_16
REMARK    4  A    between atoms: C_6  and  O_17
REMARK                            x       y       z     vdW  Elec       q    Type
REMARK                         _______ _______ _______ _____ _____    ______ ____
ROOT
ATOM      1  C   UNL     1     -34.253  26.241   4.934  0.00  0.00    +0.005 C 
ATOM      2  C   UNL     1     -34.874  26.639   3.750  0.00  0.00    +0.163 C 
ATOM      3  C   UNL     1     -35.928  25.890   3.229  0.00  0.00    +0.190 C 
ATOM      4  C   UNL     1     -36.362  24.741   3.892  0.00  0.00    +0.200 C 
ATOM      5  C   UNL     1     -34.687  25.094   5.597  0.00  0.00    +0.036 C 
ATOM      6  C   UNL     1     -35.740  24.344   5.077  0.00  0.00    +0.157 C 
ATOM      7  C   UNL     1     -33.121  27.021   5.522  0.00  0.00    +0.033 C 
ENDROOT
BRANCH   2  10
ATOM      8  O   UNL     1     -34.923  28.917   3.395  0.00  0.00    -0.126 OA
ATOM      9  O   UNL     1     -33.538  27.704   2.201  0.00  0.00    -0.126 OA
ATOM     10  N   UNL     1     -34.420  27.815   3.080  0.00  0.00    +0.059 N 
ENDBRANCH   2  10
BRANCH   3  13
ATOM     11  O   UNL     1     -37.530  27.085   2.080  0.00  0.00    -0.126 OA
ATOM     12  O   UNL     1     -36.129  25.845   0.932  0.00  0.00    -0.126 OA
ATOM     13  N   UNL     1     -36.563  26.295   2.016  0.00  0.00    +0.061 N 
ENDBRANCH   3  13
BRANCH   4  16
ATOM     14  O   UNL     1     -37.174  22.944   2.700  0.00  0.00    -0.126 OA
ATOM     15  O   UNL     1     -38.613  24.328   3.610  0.00  0.00    -0.126 OA
ATOM     16  N   UNL     1     -37.439  23.963   3.374  0.00  0.00    +0.062 N 
ENDBRANCH   4  16
BRANCH   6  17
ATOM     17  O   UNL     1     -36.145  23.227   5.746  0.00  0.00    -0.504 OA
ATOM     18  H   UNL     1     -37.037  22.943   5.689  0.00  0.00    +0.292 HD
ENDBRANCH   6  17
TORSDOF 4
ENDMDL
MODEL 6
REMARK VINA RESULT:      -4.8      1.965      3.318
REMARK  Name = 193643
REMARK  4 active torsions:
REMARK  status: ('A' for Active; 'I' for Inactive)
REMARK    1  A    between atoms: C_2  and  N_10
REMARK    2  A    between atoms: C_3  and  N_13
REMARK    3  A    between atoms: C_4  and  N_16
REMARK    4  A    between atoms: C_6  and  O_17
REMARK                            x       y       z     vdW  Elec       q    Type
REMARK                         _______ _______ _______ _____ _____    ______ ____
ROOT
ATOM      1  C   UNL     1     -35.646  23.739   1.636  0.00  0.00    +0.005 C 
ATOM      2  C   UNL     1     -35.358  24.615   2.683  0.00  0.00    +0.163 C 
ATOM      3  C   UNL     1     -35.234  24.130   3.985  0.00  0.00    +0.190 C 
ATOM      4  C   UNL     1     -35.399  22.769   4.240  0.00  0.00    +0.200 C 
ATOM      5  C   UNL     1     -35.810  22.378   1.892  0.00  0.00    +0.036 C 
ATOM      6  C   UNL     1     -35.687  21.893   3.193  0.00  0.00    +0.157 C 
ATOM      7  C   UNL     1     -35.784  24.223   0.228  0.00  0.00    +0.033 C 
ENDROOT
BRANCH   2  10
ATOM      8  O   UNL     1     -36.196  26.751   2.457  0.00  0.00    -0.126 OA
ATOM      9  O   UNL     1     -34.050  26.431   2.127  0.00  0.00    -0.126 OA
ATOM     10  N   UNL     1     -35.192  26.006   2.409  0.00  0.00    +0.059 N 
ENDBRANCH   2  10
BRANCH   3  13
ATOM     11  O   UNL     1     -33.744  25.245   5.346  0.00  0.00    -0.126 OA
ATOM     12  O   UNL     1     -35.891  25.562   5.668  0.00  0.00    -0.126 OA
ATOM     13  N   UNL     1     -34.940  25.027   5.057  0.00  0.00    +0.061 N 
ENDBRANCH   3  13
BRANCH   4  16
ATOM     14  O   UNL     1     -36.244  22.372   6.348  0.00  0.00    -0.126 OA
ATOM     15  O   UNL     1     -34.200  21.708   5.901  0.00  0.00    -0.126 OA
ATOM     16  N   UNL     1     -35.275  22.256   5.566  0.00  0.00    +0.062 N 
ENDBRANCH   4  16
BRANCH   6  17
ATOM     17  O   UNL     1     -35.851  20.557   3.415  0.00  0.00    -0.504 OA
ATOM     18  H   UNL     1     -35.836  20.222   4.290  0.00  0.00    +0.292 HD
ENDBRANCH   6  17
TORSDOF 4
ENDMDL
MODEL 7
REMARK VINA RESULT:      -4.7      3.498      4.294
REMARK  Name = 193643
REMARK  4 active torsions:
REMARK  status: ('A' for Active; 'I' for Inactive)
REMARK    1  A    between atoms: C_2  and  N_10
REMARK    2  A    between atoms: C_3  and  N_13
REMARK    3  A    between atoms: C_4  and  N_16
REMARK    4  A    between atoms: C_6  and  O_17
REMARK                            x       y       z     vdW  Elec       q    Type
REMARK                         _______ _______ _______ _____ _____    ______ ____
ROOT
ATOM      1  C   UNL     1     -34.628  26.248   5.199  0.00  0.00    +0.005 C 
ATOM      2  C   UNL     1     -34.320  26.914   4.012  0.00  0.00    +0.163 C 
ATOM      3  C   UNL     1     -35.210  26.877   2.940  0.00  0.00    +0.190 C 
ATOM      4  C   UNL     1     -36.408  26.172   3.052  0.00  0.00    +0.200 C 
ATOM      5  C   UNL     1     -35.826  25.544   5.311  0.00  0.00    +0.036 C 
ATOM      6  C   UNL     1     -36.716  25.505   4.239  0.00  0.00    +0.157 C 
ATOM      7  C   UNL     1     -33.698  26.267   6.369  0.00  0.00    +0.033 C 
ENDROOT
BRANCH   2  10
ATOM      8  O   UNL     1     -33.074  28.845   4.217  0.00  0.00    -0.126 OA
ATOM      9  O   UNL     1     -32.071  27.024   3.514  0.00  0.00    -0.126 OA
ATOM     10  N   UNL     1     -33.090  27.632   3.909  0.00  0.00    +0.059 N 
ENDBRANCH   2  10
BRANCH   3  13
ATOM     11  O   UNL     1     -35.262  28.746   1.590  0.00  0.00    -0.126 OA
ATOM     12  O   UNL     1     -34.261  26.942   0.839  0.00  0.00    -0.126 OA
ATOM     13  N   UNL     1     -34.894  27.558   1.724  0.00  0.00    +0.061 N 
ENDBRANCH   3  13
BRANCH   4  16
ATOM     14  O   UNL     1     -38.205  27.014   1.877  0.00  0.00    -0.126 OA
ATOM     15  O   UNL     1     -37.232  25.191   1.134  0.00  0.00    -0.126 OA
ATOM     16  N   UNL     1     -37.330  26.124   1.964  0.00  0.00    +0.062 N 
ENDBRANCH   4  16
BRANCH   6  17
ATOM     17  O   UNL     1     -37.881  24.810   4.376  0.00  0.00    -0.504 OA
ATOM     18  H   UNL     1     -38.641  25.068   3.892  0.00  0.00    +0.292 HD
ENDBRANCH   6  17
TORSDOF 4
ENDMDL
MODEL 8
REMARK VINA RESULT:      -4.6      1.601      2.670
REMARK  Name = 193643
REMARK  4 active torsions:
REMARK  status: ('A' for Active; 'I' for Inactive)
REMARK    1  A    between atoms: C_2  and  N_10
REMARK    2  A    between atoms: C_3  and  N_13
REMARK    3  A    between atoms: C_4  and  N_16
REMARK    4  A    between atoms: C_6  and  O_17
REMARK                            x       y       z     vdW  Elec       q    Type
REMARK                         _______ _______ _______ _____ _____    ______ ____
ROOT
ATOM      1  C   UNL     1     -35.271  22.255   4.997  0.00  0.00    +0.005 C 
ATOM      2  C   UNL     1     -35.137  23.447   4.284  0.00  0.00    +0.163 C 
ATOM      3  C   UNL     1     -35.187  23.435   2.890  0.00  0.00    +0.190 C 
ATOM      4  C   UNL     1     -35.369  22.232   2.209  0.00  0.00    +0.200 C 
ATOM      5  C   UNL     1     -35.455  21.052   4.315  0.00  0.00    +0.036 C 
ATOM      6  C   UNL     1     -35.503  21.040   2.922  0.00  0.00    +0.157 C 
ATOM      7  C   UNL     1     -35.225  22.229   6.491  0.00  0.00    +0.033 C 
ENDROOT
BRANCH   2  10
ATOM      8  O   UNL     1     -33.783  25.086   5.178  0.00  0.00    -0.126 OA
ATOM      9  O   UNL     1     -35.957  25.287   5.406  0.00  0.00    -0.126 OA
ATOM     10  N   UNL     1     -34.950  24.671   4.993  0.00  0.00    +0.059 N 
ENDBRANCH   2  10
BRANCH   3  13
ATOM     11  O   UNL     1     -33.904  25.013   1.804  0.00  0.00    -0.126 OA
ATOM     12  O   UNL     1     -36.075  25.320   1.902  0.00  0.00    -0.126 OA
ATOM     13  N   UNL     1     -35.047  24.655   2.160  0.00  0.00    +0.061 N 
ENDBRANCH   3  13
BRANCH   4  16
ATOM     14  O   UNL     1     -34.358  22.044   0.145  0.00  0.00    -0.126 OA
ATOM     15  O   UNL     1     -36.532  22.337   0.220  0.00  0.00    -0.126 OA
ATOM     16  N   UNL     1     -35.422  22.202   0.783  0.00  0.00    +0.062 N 
ENDBRANCH   4  16
BRANCH   6  17
ATOM     17  O   UNL     1     -35.685  19.850   2.281  0.00  0.00    -0.504 OA
ATOM     18  H   UNL     1     -35.026  19.186   2.331  0.00  0.00    +0.292 HD
ENDBRANCH   6  17
TORSDOF 4
ENDMDL
MODEL 9
REMARK VINA RESULT:      -4.6      3.199      4.307
REMARK  Name = 193643
REMARK  4 active torsions:
REMARK  status: ('A' for Active; 'I' for Inactive)
REMARK    1  A    between atoms: C_2  and  N_10
REMARK    2  A    between atoms: C_3  and  N_13
REMARK    3  A    between atoms: C_4  and  N_16
REMARK    4  A    between atoms: C_6  and  O_17
REMARK                            x       y       z     vdW  Elec       q    Type
REMARK                         _______ _______ _______ _____ _____    ______ ____
ROOT
ATOM      1  C   UNL     1     -39.830  23.902   1.740  0.00  0.00    +0.005 C 
ATOM      2  C   UNL     1     -38.956  24.828   2.312  0.00  0.00    +0.163 C 
ATOM      3  C   UNL     1     -37.766  24.396   2.895  0.00  0.00    +0.190 C 
ATOM      4  C   UNL     1     -37.448  23.038   2.908  0.00  0.00    +0.200 C 
ATOM      5  C   UNL     1     -39.511  22.545   1.752  0.00  0.00    +0.036 C 
ATOM      6  C   UNL     1     -38.321  22.112   2.335  0.00  0.00    +0.157 C 
ATOM      7  C   UNL     1     -41.114  24.329   1.104  0.00  0.00    +0.033 C 
ENDROOT
BRANCH   2  10
ATOM      8  O   UNL     1     -38.836  26.932   1.376  0.00  0.00    -0.126 OA
ATOM      9  O   UNL     1     -40.033  26.665   3.197  0.00  0.00    -0.126 OA
ATOM     10  N   UNL     1     -39.294  26.215   2.294  0.00  0.00    +0.059 N 
ENDBRANCH   2  10
BRANCH   3  13
ATOM     11  O   UNL     1     -37.005  25.619   4.695  0.00  0.00    -0.126 OA
ATOM     12  O   UNL     1     -35.990  25.861   2.764  0.00  0.00    -0.126 OA
ATOM     13  N   UNL     1     -36.873  25.343   3.483  0.00  0.00    +0.061 N 
ENDBRANCH   3  13
BRANCH   4  16
ATOM     14  O   UNL     1     -36.170  22.488   4.746  0.00  0.00    -0.126 OA
ATOM     15  O   UNL     1     -35.274  22.284   2.752  0.00  0.00    -0.126 OA
ATOM     16  N   UNL     1     -36.234  22.579   3.500  0.00  0.00    +0.062 N 
ENDBRANCH   4  16
BRANCH   6  17
ATOM     17  O   UNL     1     -38.034  20.779   2.332  0.00  0.00    -0.504 OA
ATOM     18  H   UNL     1     -37.215  20.475   2.669  0.00  0.00    +0.292 HD
ENDBRANCH   6  17
TORSDOF 4
ENDMDL
