MODEL 1
REMARK VINA RESULT:      -6.1      0.000      0.000
REMARK  Name = 194102
REMARK  7 active torsions:
REMARK  status: ('A' for Active; 'I' for Inactive)
REMARK    1  A    between atoms: N_3  and  C_13
REMARK    2  A    between atoms: C_7  and  C_22
REMARK    3  A    between atoms: C_11  and  O_15
REMARK    4  A    between atoms: C_12  and  O_17
REMARK    5  A    between atoms: C_14  and  C_19
REMARK    6  A    between atoms: C_19  and  O_20
REMARK    7  A    between atoms: C_22  and  C_25
REMARK                            x       y       z     vdW  Elec       q    Type
REMARK                         _______ _______ _______ _____ _____    ______ ____
ROOT
ATOM      1  O   UNL     1     -38.973  26.029   2.608  0.00  0.00    -0.252 OA
ATOM      2  O   UNL     1     -35.617  25.994   5.751  0.00  0.00    -0.270 OA
ATOM      3  N   UNL     1     -37.748  24.060   2.879  0.00  0.00    -0.217 N 
ATOM      4  N   UNL     1     -37.295  25.998   4.171  0.00  0.00    -0.236 N 
ATOM      5  C   UNL     1     -36.719  23.425   3.564  0.00  0.00    +0.072 C 
ATOM      6  C   UNL     1     -38.074  25.403   3.173  0.00  0.00    +0.315 C 
ATOM      7  C   UNL     1     -35.975  23.997   4.519  0.00  0.00    +0.056 C 
ATOM      8  C   UNL     1     -36.261  25.411   4.883  0.00  0.00    +0.250 C 
ATOM      9  H   UNL     1     -37.505  26.934   4.392  0.00  0.00    +0.159 HD
ENDROOT
BRANCH   3  13
ATOM     10  O   UNL     1     -38.537  21.943   2.275  0.00  0.00    -0.333 OA
ATOM     11  C   UNL     1     -37.765  23.346   0.529  0.00  0.00    +0.191 C 
ATOM     12  C   UNL     1     -38.181  22.017  -0.066  0.00  0.00    +0.171 C 
ATOM     13  C   UNL     1     -38.464  23.321   1.877  0.00  0.00    +0.230 C 
ATOM     14  C   UNL     1     -38.176  21.107   1.154  0.00  0.00    +0.175 C 
BRANCH  11  15
ATOM     15  O   UNL     1     -38.164  24.441  -0.270  0.00  0.00    -0.347 OA
ATOM     16  C   UNL     1     -37.101  25.368  -0.467  0.00  0.00    +0.174 C 
ENDBRANCH  11  15
BRANCH  12  17
ATOM     17  O   UNL     1     -39.522  22.092  -0.553  0.00  0.00    -0.379 OA
ATOM     18  H   UNL     1     -39.977  21.256  -0.375  0.00  0.00    +0.211 HD
ENDBRANCH  12  17
BRANCH  14  19
ATOM     19  C   UNL     1     -36.811  20.492   1.440  0.00  0.00    +0.169 C 
BRANCH  19  20
ATOM     20  O   UNL     1     -36.859  19.848   2.701  0.00  0.00    -0.379 OA
ATOM     21  H   UNL     1     -37.308  18.993   2.610  0.00  0.00    +0.211 HD
ENDBRANCH  19  20
ENDBRANCH  14  19
ENDBRANCH   3  13
BRANCH   7  22
ATOM     22  C   UNL     1     -34.873  23.294   5.242  0.00  0.00    +0.117 C 
BRANCH  22  25
ATOM     23  O   UNL     1     -34.976  20.909   4.883  0.00  0.00    -0.275 OA
ATOM     24  N   UNL     1     -36.098  21.793   6.683  0.00  0.00    -0.329 N 
ATOM     25  C   UNL     1     -35.308  21.880   5.559  0.00  0.00    +0.224 C 
ATOM     26  H   UNL     1     -36.436  20.918   6.979  0.00  0.00    +0.145 HD
ATOM     27  H   UNL     1     -36.324  22.606   7.189  0.00  0.00    +0.145 HD
ENDBRANCH  22  25
ENDBRANCH   7  22
TORSDOF 7
ENDMDL
MODEL 2
REMARK VINA RESULT:      -5.6      2.711      5.672
REMARK  Name = 194102
REMARK  7 active torsions:
REMARK  status: ('A' for Active; 'I' for Inactive)
REMARK    1  A    between atoms: N_3  and  C_13
REMARK    2  A    between atoms: C_7  and  C_22
REMARK    3  A    between atoms: C_11  and  O_15
REMARK    4  A    between atoms: C_12  and  O_17
REMARK    5  A    between atoms: C_14  and  C_19
REMARK    6  A    between atoms: C_19  and  O_20
REMARK    7  A    between atoms: C_22  and  C_25
REMARK                            x       y       z     vdW  Elec       q    Type
REMARK                         _______ _______ _______ _____ _____    ______ ____
ROOT
ATOM      1  O   UNL     1     -39.116  22.622   2.328  0.00  0.00    -0.252 OA
ATOM      2  O   UNL     1     -36.806  19.038   0.609  0.00  0.00    -0.270 OA
ATOM      3  N   UNL     1     -36.840  22.448   2.822  0.00  0.00    -0.217 N 
ATOM      4  N   UNL     1     -37.952  20.839   1.478  0.00  0.00    -0.236 N 
ATOM      5  C   UNL     1     -35.675  21.711   2.652  0.00  0.00    +0.072 C 
ATOM      6  C   UNL     1     -38.046  22.020   2.222  0.00  0.00    +0.315 C 
ATOM      7  C   UNL     1     -35.588  20.580   1.939  0.00  0.00    +0.056 C 
ATOM      8  C   UNL     1     -36.818  20.068   1.277  0.00  0.00    +0.250 C 
ATOM      9  H   UNL     1     -38.780  20.522   1.051  0.00  0.00    +0.159 HD
ENDROOT
BRANCH   3  13
ATOM     10  O   UNL     1     -36.455  24.754   2.763  0.00  0.00    -0.333 OA
ATOM     11  C   UNL     1     -35.710  23.583   4.683  0.00  0.00    +0.191 C 
ATOM     12  C   UNL     1     -35.322  25.040   4.824  0.00  0.00    +0.171 C 
ATOM     13  C   UNL     1     -36.787  23.645   3.614  0.00  0.00    +0.230 C 
ATOM     14  C   UNL     1     -35.411  25.533   3.386  0.00  0.00    +0.175 C 
BRANCH  11  15
ATOM     15  O   UNL     1     -36.179  23.033   5.897  0.00  0.00    -0.347 OA
ATOM     16  C   UNL     1     -35.374  21.942   6.331  0.00  0.00    +0.174 C 
ENDBRANCH  11  15
BRANCH  12  17
ATOM     17  O   UNL     1     -36.303  25.741   5.591  0.00  0.00    -0.379 OA
ATOM     18  H   UNL     1     -37.148  25.734   5.117  0.00  0.00    +0.211 HD
ENDBRANCH  12  17
BRANCH  14  19
ATOM     19  C   UNL     1     -34.125  25.322   2.597  0.00  0.00    +0.169 C 
BRANCH  19  20
ATOM     20  O   UNL     1     -33.023  25.557   3.456  0.00  0.00    -0.379 OA
ATOM     21  H   UNL     1     -32.877  26.512   3.540  0.00  0.00    +0.211 HD
ENDBRANCH  19  20
ENDBRANCH  14  19
ENDBRANCH   3  13
BRANCH   7  22
ATOM     22  C   UNL     1     -34.323  19.804   1.771  0.00  0.00    +0.117 C 
BRANCH  22  25
ATOM     23  O   UNL     1     -33.109  21.230   0.248  0.00  0.00    -0.275 OA
ATOM     24  N   UNL     1     -33.821  19.179  -0.507  0.00  0.00    -0.329 N 
ATOM     25  C   UNL     1     -33.690  20.165   0.445  0.00  0.00    +0.224 C 
ATOM     26  H   UNL     1     -33.444  19.312  -1.407  0.00  0.00    +0.145 HD
ATOM     27  H   UNL     1     -34.290  18.342  -0.288  0.00  0.00    +0.145 HD
ENDBRANCH  22  25
ENDBRANCH   7  22
TORSDOF 7
ENDMDL
MODEL 3
REMARK VINA RESULT:      -5.5      2.298      3.924
REMARK  Name = 194102
REMARK  7 active torsions:
REMARK  status: ('A' for Active; 'I' for Inactive)
REMARK    1  A    between atoms: N_3  and  C_13
REMARK    2  A    between atoms: C_7  and  C_22
REMARK    3  A    between atoms: C_11  and  O_15
REMARK    4  A    between atoms: C_12  and  O_17
REMARK    5  A    between atoms: C_14  and  C_19
REMARK    6  A    between atoms: C_19  and  O_20
REMARK    7  A    between atoms: C_22  and  C_25
REMARK                            x       y       z     vdW  Elec       q    Type
REMARK                         _______ _______ _______ _____ _____    ______ ____
ROOT
ATOM      1  O   UNL     1     -35.810  22.669   6.152  0.00  0.00    -0.252 OA
ATOM      2  O   UNL     1     -33.362  26.451   5.232  0.00  0.00    -0.270 OA
ATOM      3  N   UNL     1     -35.942  23.561   3.998  0.00  0.00    -0.217 N 
ATOM      4  N   UNL     1     -34.595  24.556   5.680  0.00  0.00    -0.236 N 
ATOM      5  C   UNL     1     -35.519  24.565   3.136  0.00  0.00    +0.072 C 
ATOM      6  C   UNL     1     -35.478  23.528   5.332  0.00  0.00    +0.315 C 
ATOM      7  C   UNL     1     -34.673  25.548   3.471  0.00  0.00    +0.056 C 
ATOM      8  C   UNL     1     -34.142  25.578   4.860  0.00  0.00    +0.250 C 
ATOM      9  H   UNL     1     -34.259  24.552   6.605  0.00  0.00    +0.159 HD
ENDROOT
BRANCH   3  13
ATOM     10  O   UNL     1     -36.107  21.553   2.812  0.00  0.00    -0.333 OA
ATOM     11  C   UNL     1     -37.839  23.139   2.496  0.00  0.00    +0.191 C 
ATOM     12  C   UNL     1     -38.110  21.942   1.608  0.00  0.00    +0.171 C 
ATOM     13  C   UNL     1     -36.853  22.569   3.501  0.00  0.00    +0.230 C 
ATOM     14  C   UNL     1     -36.742  21.277   1.544  0.00  0.00    +0.175 C 
BRANCH  11  15
ATOM     15  O   UNL     1     -39.014  23.631   3.106  0.00  0.00    -0.347 OA
ATOM     16  C   UNL     1     -39.244  24.999   2.784  0.00  0.00    +0.174 C 
ENDBRANCH  11  15
BRANCH  12  17
ATOM     17  O   UNL     1     -39.008  21.040   2.255  0.00  0.00    -0.379 OA
ATOM     18  H   UNL     1     -39.777  20.885   1.685  0.00  0.00    +0.211 HD
ENDBRANCH  12  17
BRANCH  14  19
ATOM     19  C   UNL     1     -35.854  21.831   0.437  0.00  0.00    +0.169 C 
BRANCH  19  20
ATOM     20  O   UNL     1     -34.536  21.967   0.939  0.00  0.00    -0.379 OA
ATOM     21  H   UNL     1     -34.011  21.194   0.679  0.00  0.00    +0.211 HD
ENDBRANCH  19  20
ENDBRANCH  14  19
ENDBRANCH   3  13
BRANCH   7  22
ATOM     22  C   UNL     1     -34.232  26.618   2.527  0.00  0.00    +0.117 C 
BRANCH  22  25
ATOM     23  O   UNL     1     -36.237  27.772   1.839  0.00  0.00    -0.275 OA
ATOM     24  N   UNL     1     -34.921  28.737   3.456  0.00  0.00    -0.329 N 
ATOM     25  C   UNL     1     -35.236  27.749   2.551  0.00  0.00    +0.224 C 
ATOM     26  H   UNL     1     -35.509  29.521   3.553  0.00  0.00    +0.145 HD
ATOM     27  H   UNL     1     -34.109  28.659   4.007  0.00  0.00    +0.145 HD
ENDBRANCH  22  25
ENDBRANCH   7  22
TORSDOF 7
ENDMDL
MODEL 4
REMARK VINA RESULT:      -5.5      2.083      5.569
REMARK  Name = 194102
REMARK  7 active torsions:
REMARK  status: ('A' for Active; 'I' for Inactive)
REMARK    1  A    between atoms: N_3  and  C_13
REMARK    2  A    between atoms: C_7  and  C_22
REMARK    3  A    between atoms: C_11  and  O_15
REMARK    4  A    between atoms: C_12  and  O_17
REMARK    5  A    between atoms: C_14  and  C_19
REMARK    6  A    between atoms: C_19  and  O_20
REMARK    7  A    between atoms: C_22  and  C_25
REMARK                            x       y       z     vdW  Elec       q    Type
REMARK                         _______ _______ _______ _____ _____    ______ ____
ROOT
ATOM      1  O   UNL     1     -35.761  20.576   2.799  0.00  0.00    -0.252 OA
ATOM      2  O   UNL     1     -40.162  21.179   1.613  0.00  0.00    -0.270 OA
ATOM      3  N   UNL     1     -36.612  22.750   2.822  0.00  0.00    -0.217 N 
ATOM      4  N   UNL     1     -37.954  20.891   2.209  0.00  0.00    -0.236 N 
ATOM      5  C   UNL     1     -37.722  23.558   2.604  0.00  0.00    +0.072 C 
ATOM      6  C   UNL     1     -36.701  21.354   2.625  0.00  0.00    +0.315 C 
ATOM      7  C   UNL     1     -38.920  23.113   2.205  0.00  0.00    +0.056 C 
ATOM      8  C   UNL     1     -39.089  21.653   1.978  0.00  0.00    +0.250 C 
ATOM      9  H   UNL     1     -38.039  19.921   2.065  0.00  0.00    +0.159 HD
ENDROOT
BRANCH   3  13
ATOM     10  O   UNL     1     -35.398  23.481   4.682  0.00  0.00    -0.333 OA
ATOM     11  C   UNL     1     -35.226  24.774   2.704  0.00  0.00    +0.191 C 
ATOM     12  C   UNL     1     -34.409  25.441   3.791  0.00  0.00    +0.171 C 
ATOM     13  C   UNL     1     -35.388  23.366   3.249  0.00  0.00    +0.230 C 
ATOM     14  C   UNL     1     -34.988  24.815   5.052  0.00  0.00    +0.175 C 
BRANCH  11  15
ATOM     15  O   UNL     1     -34.574  24.800   1.450  0.00  0.00    -0.347 OA
ATOM     16  C   UNL     1     -35.222  25.676   0.534  0.00  0.00    +0.174 C 
ENDBRANCH  11  15
BRANCH  12  17
ATOM     17  O   UNL     1     -33.040  25.047   3.692  0.00  0.00    -0.379 OA
ATOM     18  H   UNL     1     -32.622  25.513   2.952  0.00  0.00    +0.211 HD
ENDBRANCH  12  17
BRANCH  14  19
ATOM     19  C   UNL     1     -36.207  25.556   5.587  0.00  0.00    +0.169 C 
BRANCH  19  20
ATOM     20  O   UNL     1     -36.168  26.892   5.116  0.00  0.00    -0.379 OA
ATOM     21  H   UNL     1     -36.435  26.914   4.184  0.00  0.00    +0.211 HD
ENDBRANCH  19  20
ENDBRANCH  14  19
ENDBRANCH   3  13
BRANCH   7  22
ATOM     22  C   UNL     1     -40.099  24.002   1.977  0.00  0.00    +0.117 C 
BRANCH  22  25
ATOM     23  O   UNL     1     -39.542  26.327   2.307  0.00  0.00    -0.275 OA
ATOM     24  N   UNL     1     -40.277  25.112   4.113  0.00  0.00    -0.329 N 
ATOM     25  C   UNL     1     -39.934  25.267   2.789  0.00  0.00    +0.224 C 
ATOM     26  H   UNL     1     -40.207  25.875   4.732  0.00  0.00    +0.145 HD
ATOM     27  H   UNL     1     -40.594  24.240   4.441  0.00  0.00    +0.145 HD
ENDBRANCH  22  25
ENDBRANCH   7  22
TORSDOF 7
ENDMDL
MODEL 5
REMARK VINA RESULT:      -5.4      2.946      4.281
REMARK  Name = 194102
REMARK  7 active torsions:
REMARK  status: ('A' for Active; 'I' for Inactive)
REMARK    1  A    between atoms: N_3  and  C_13
REMARK    2  A    between atoms: C_7  and  C_22
REMARK    3  A    between atoms: C_11  and  O_15
REMARK    4  A    between atoms: C_12  and  O_17
REMARK    5  A    between atoms: C_14  and  C_19
REMARK    6  A    between atoms: C_19  and  O_20
REMARK    7  A    between atoms: C_22  and  C_25
REMARK                            x       y       z     vdW  Elec       q    Type
REMARK                         _______ _______ _______ _____ _____    ______ ____
ROOT
ATOM      1  O   UNL     1     -37.883  26.345   2.225  0.00  0.00    -0.252 OA
ATOM      2  O   UNL     1     -34.436  29.274   3.047  0.00  0.00    -0.270 OA
ATOM      3  N   UNL     1     -35.863  25.468   3.001  0.00  0.00    -0.217 N 
ATOM      4  N   UNL     1     -36.155  27.795   2.638  0.00  0.00    -0.236 N 
ATOM      5  C   UNL     1     -34.563  25.746   3.406  0.00  0.00    +0.072 C 
ATOM      6  C   UNL     1     -36.720  26.516   2.595  0.00  0.00    +0.315 C 
ATOM      7  C   UNL     1     -34.025  26.971   3.446  0.00  0.00    +0.056 C 
ATOM      8  C   UNL     1     -34.868  28.125   3.032  0.00  0.00    +0.250 C 
ATOM      9  H   UNL     1     -36.734  28.540   2.359  0.00  0.00    +0.159 HD
ENDROOT
BRANCH   3  13
ATOM     10  O   UNL     1     -36.656  23.732   4.353  0.00  0.00    -0.333 OA
ATOM     11  C   UNL     1     -35.224  23.138   2.561  0.00  0.00    +0.191 C 
ATOM     12  C   UNL     1     -35.579  21.885   3.333  0.00  0.00    +0.171 C 
ATOM     13  C   UNL     1     -36.308  24.103   3.009  0.00  0.00    +0.230 C 
ATOM     14  C   UNL     1     -36.058  22.454   4.661  0.00  0.00    +0.175 C 
BRANCH  11  15
ATOM     15  O   UNL     1     -35.227  22.927   1.164  0.00  0.00    -0.347 OA
ATOM     16  C   UNL     1     -34.082  23.499   0.540  0.00  0.00    +0.174 C 
ENDBRANCH  11  15
BRANCH  12  17
ATOM     17  O   UNL     1     -36.683  21.221   2.715  0.00  0.00    -0.379 OA
ATOM     18  H   UNL     1     -36.378  20.394   2.311  0.00  0.00    +0.211 HD
ENDBRANCH  12  17
BRANCH  14  19
ATOM     19  C   UNL     1     -34.930  22.684   5.658  0.00  0.00    +0.169 C 
BRANCH  19  20
ATOM     20  O   UNL     1     -34.579  21.441   6.241  0.00  0.00    -0.379 OA
ATOM     21  H   UNL     1     -35.167  21.258   6.990  0.00  0.00    +0.211 HD
ENDBRANCH  19  20
ENDBRANCH  14  19
ENDBRANCH   3  13
BRANCH   7  22
ATOM     22  C   UNL     1     -32.623  27.246   3.884  0.00  0.00    +0.117 C 
BRANCH  22  25
ATOM     23  O   UNL     1     -32.765  26.861   6.263  0.00  0.00    -0.275 OA
ATOM     24  N   UNL     1     -32.454  29.013   5.520  0.00  0.00    -0.329 N 
ATOM     25  C   UNL     1     -32.629  27.660   5.339  0.00  0.00    +0.224 C 
ATOM     26  H   UNL     1     -32.442  29.390   6.430  0.00  0.00    +0.145 HD
ATOM     27  H   UNL     1     -32.341  29.603   4.741  0.00  0.00    +0.145 HD
ENDBRANCH  22  25
ENDBRANCH   7  22
TORSDOF 7
ENDMDL
MODEL 6
REMARK VINA RESULT:      -5.3      2.043      5.113
REMARK  Name = 194102
REMARK  7 active torsions:
REMARK  status: ('A' for Active; 'I' for Inactive)
REMARK    1  A    between atoms: N_3  and  C_13
REMARK    2  A    between atoms: C_7  and  C_22
REMARK    3  A    between atoms: C_11  and  O_15
REMARK    4  A    between atoms: C_12  and  O_17
REMARK    5  A    between atoms: C_14  and  C_19
REMARK    6  A    between atoms: C_19  and  O_20
REMARK    7  A    between atoms: C_22  and  C_25
REMARK                            x       y       z     vdW  Elec       q    Type
REMARK                         _______ _______ _______ _____ _____    ______ ____
ROOT
ATOM      1  O   UNL     1     -40.274  25.178   3.247  0.00  0.00    -0.252 OA
ATOM      2  O   UNL     1     -40.157  21.013   1.302  0.00  0.00    -0.270 OA
ATOM      3  N   UNL     1     -38.199  24.130   3.029  0.00  0.00    -0.217 N 
ATOM      4  N   UNL     1     -40.201  23.100   2.280  0.00  0.00    -0.236 N 
ATOM      5  C   UNL     1     -37.515  23.003   2.589  0.00  0.00    +0.072 C 
ATOM      6  C   UNL     1     -39.601  24.211   2.881  0.00  0.00    +0.315 C 
ATOM      7  C   UNL     1     -38.091  21.940   2.014  0.00  0.00    +0.056 C 
ATOM      8  C   UNL     1     -39.567  21.954   1.824  0.00  0.00    +0.250 C 
ATOM      9  H   UNL     1     -41.178  23.135   2.167  0.00  0.00    +0.159 HD
ENDROOT
BRANCH   3  13
ATOM     10  O   UNL     1     -37.158  26.184   2.627  0.00  0.00    -0.333 OA
ATOM     11  C   UNL     1     -36.112  24.729   4.178  0.00  0.00    +0.191 C 
ATOM     12  C   UNL     1     -35.259  25.971   4.028  0.00  0.00    +0.171 C 
ATOM     13  C   UNL     1     -37.449  25.197   3.630  0.00  0.00    +0.230 C 
ATOM     14  C   UNL     1     -35.762  26.546   2.711  0.00  0.00    +0.175 C 
BRANCH  11  15
ATOM     15  O   UNL     1     -36.197  24.295   5.520  0.00  0.00    -0.347 OA
ATOM     16  C   UNL     1     -35.406  23.134   5.751  0.00  0.00    +0.174 C 
ENDBRANCH  11  15
BRANCH  12  17
ATOM     17  O   UNL     1     -35.564  26.908   5.062  0.00  0.00    -0.379 OA
ATOM     18  H   UNL     1     -34.904  26.836   5.768  0.00  0.00    +0.211 HD
ENDBRANCH  12  17
BRANCH  14  19
ATOM     19  C   UNL     1     -35.049  25.973   1.493  0.00  0.00    +0.169 C 
BRANCH  19  20
ATOM     20  O   UNL     1     -33.678  25.803   1.808  0.00  0.00    -0.379 OA
ATOM     21  H   UNL     1     -33.455  26.348   2.579  0.00  0.00    +0.211 HD
ENDBRANCH  19  20
ENDBRANCH  14  19
ENDBRANCH   3  13
BRANCH   7  22
ATOM     22  C   UNL     1     -37.335  20.739   1.549  0.00  0.00    +0.117 C 
BRANCH  22  25
ATOM     23  O   UNL     1     -35.607  20.468   3.213  0.00  0.00    -0.275 OA
ATOM     24  N   UNL     1     -35.016  21.278   1.146  0.00  0.00    -0.329 N 
ATOM     25  C   UNL     1     -35.918  20.808   2.074  0.00  0.00    +0.224 C 
ATOM     26  H   UNL     1     -34.065  21.363   1.385  0.00  0.00    +0.145 HD
ATOM     27  H   UNL     1     -35.322  21.527   0.245  0.00  0.00    +0.145 HD
ENDBRANCH  22  25
ENDBRANCH   7  22
TORSDOF 7
ENDMDL
MODEL 7
REMARK VINA RESULT:      -5.2      2.120      4.053
REMARK  Name = 194102
REMARK  7 active torsions:
REMARK  status: ('A' for Active; 'I' for Inactive)
REMARK    1  A    between atoms: N_3  and  C_13
REMARK    2  A    between atoms: C_7  and  C_22
REMARK    3  A    between atoms: C_11  and  O_15
REMARK    4  A    between atoms: C_12  and  O_17
REMARK    5  A    between atoms: C_14  and  C_19
REMARK    6  A    between atoms: C_19  and  O_20
REMARK    7  A    between atoms: C_22  and  C_25
REMARK                            x       y       z     vdW  Elec       q    Type
REMARK                         _______ _______ _______ _____ _____    ______ ____
ROOT
ATOM      1  O   UNL     1     -35.146  21.119   5.636  0.00  0.00    -0.252 OA
ATOM      2  O   UNL     1     -35.706  25.678   5.856  0.00  0.00    -0.270 OA
ATOM      3  N   UNL     1     -36.013  22.208   3.761  0.00  0.00    -0.217 N 
ATOM      4  N   UNL     1     -35.432  23.393   5.733  0.00  0.00    -0.236 N 
ATOM      5  C   UNL     1     -36.396  23.422   3.204  0.00  0.00    +0.072 C 
ATOM      6  C   UNL     1     -35.505  22.158   5.078  0.00  0.00    +0.315 C 
ATOM      7  C   UNL     1     -36.324  24.602   3.833  0.00  0.00    +0.056 C 
ATOM      8  C   UNL     1     -35.799  24.629   5.225  0.00  0.00    +0.250 C 
ATOM      9  H   UNL     1     -35.081  23.382   6.652  0.00  0.00    +0.159 HD
ENDROOT
BRANCH   3  13
ATOM     10  O   UNL     1     -34.838  20.584   2.555  0.00  0.00    -0.333 OA
ATOM     11  C   UNL     1     -36.944  21.253   1.698  0.00  0.00    +0.191 C 
ATOM     12  C   UNL     1     -36.334  20.240   0.751  0.00  0.00    +0.171 C 
ATOM     13  C   UNL     1     -36.145  21.017   2.968  0.00  0.00    +0.230 C 
ATOM     14  C   UNL     1     -34.864  20.282   1.143  0.00  0.00    +0.175 C 
BRANCH  11  15
ATOM     15  O   UNL     1     -38.330  21.049   1.882  0.00  0.00    -0.347 OA
ATOM     16  C   UNL     1     -39.105  21.875   1.019  0.00  0.00    +0.174 C 
ENDBRANCH  11  15
BRANCH  12  17
ATOM     17  O   UNL     1     -36.830  18.932   1.040  0.00  0.00    -0.379 OA
ATOM     18  H   UNL     1     -37.410  18.971   1.816  0.00  0.00    +0.211 HD
ENDBRANCH  12  17
BRANCH  14  19
ATOM     19  C   UNL     1     -34.077  21.362   0.412  0.00  0.00    +0.169 C 
BRANCH  19  20
ATOM     20  O   UNL     1     -32.750  20.903   0.218  0.00  0.00    -0.379 OA
ATOM     21  H   UNL     1     -32.283  20.900   1.068  0.00  0.00    +0.211 HD
ENDBRANCH  19  20
ENDBRANCH  14  19
ENDBRANCH   3  13
BRANCH   7  22
ATOM     22  C   UNL     1     -36.742  25.896   3.215  0.00  0.00    +0.117 C 
BRANCH  22  25
ATOM     23  O   UNL     1     -34.782  26.327   1.873  0.00  0.00    -0.275 OA
ATOM     24  N   UNL     1     -35.298  27.800   3.558  0.00  0.00    -0.329 N 
ATOM     25  C   UNL     1     -35.511  26.671   2.800  0.00  0.00    +0.224 C 
ATOM     26  H   UNL     1     -34.523  28.378   3.372  0.00  0.00    +0.145 HD
ATOM     27  H   UNL     1     -35.922  28.030   4.284  0.00  0.00    +0.145 HD
ENDBRANCH  22  25
ENDBRANCH   7  22
TORSDOF 7
ENDMDL
MODEL 8
REMARK VINA RESULT:      -5.2      2.067      4.429
REMARK  Name = 194102
REMARK  7 active torsions:
REMARK  status: ('A' for Active; 'I' for Inactive)
REMARK    1  A    between atoms: N_3  and  C_13
REMARK    2  A    between atoms: C_7  and  C_22
REMARK    3  A    between atoms: C_11  and  O_15
REMARK    4  A    between atoms: C_12  and  O_17
REMARK    5  A    between atoms: C_14  and  C_19
REMARK    6  A    between atoms: C_19  and  O_20
REMARK    7  A    between atoms: C_22  and  C_25
REMARK                            x       y       z     vdW  Elec       q    Type
REMARK                         _______ _______ _______ _____ _____    ______ ____
ROOT
ATOM      1  O   UNL     1     -37.878  21.931   2.280  0.00  0.00    -0.252 OA
ATOM      2  O   UNL     1     -35.267  23.051   5.895  0.00  0.00    -0.270 OA
ATOM      3  N   UNL     1     -37.691  24.191   2.837  0.00  0.00    -0.217 N 
ATOM      4  N   UNL     1     -36.579  22.503   4.082  0.00  0.00    -0.236 N 
ATOM      5  C   UNL     1     -37.135  25.125   3.703  0.00  0.00    +0.072 C 
ATOM      6  C   UNL     1     -37.420  22.815   3.007  0.00  0.00    +0.315 C 
ATOM      7  C   UNL     1     -36.330  24.824   4.730  0.00  0.00    +0.056 C 
ATOM      8  C   UNL     1     -36.000  23.394   4.972  0.00  0.00    +0.250 C 
ATOM      9  H   UNL     1     -36.377  21.550   4.219  0.00  0.00    +0.159 HD
ENDROOT
BRANCH   3  13
ATOM     10  O   UNL     1     -37.717  25.154   0.707  0.00  0.00    -0.333 OA
ATOM     11  C   UNL     1     -39.428  25.810   2.209  0.00  0.00    +0.191 C 
ATOM     12  C   UNL     1     -39.598  26.579   0.916  0.00  0.00    +0.171 C 
ATOM     13  C   UNL     1     -38.539  24.657   1.776  0.00  0.00    +0.230 C 
ATOM     14  C   UNL     1     -38.223  26.437   0.278  0.00  0.00    +0.175 C 
BRANCH  11  15
ATOM     15  O   UNL     1     -40.663  25.374   2.740  0.00  0.00    -0.347 OA
ATOM     16  C   UNL     1     -41.326  26.410   3.456  0.00  0.00    +0.174 C 
ENDBRANCH  11  15
BRANCH  12  17
ATOM     17  O   UNL     1     -40.545  25.924   0.071  0.00  0.00    -0.379 OA
ATOM     18  H   UNL     1     -41.422  26.314   0.205  0.00  0.00    +0.211 HD
ENDBRANCH  12  17
BRANCH  14  19
ATOM     19  C   UNL     1     -37.238  27.510   0.726  0.00  0.00    +0.169 C 
BRANCH  19  20
ATOM     20  O   UNL     1     -37.896  28.765   0.710  0.00  0.00    -0.379 OA
ATOM     21  H   UNL     1     -37.848  29.143  -0.182  0.00  0.00    +0.211 HD
ENDBRANCH  19  20
ENDBRANCH  14  19
ENDBRANCH   3  13
BRANCH   7  22
ATOM     22  C   UNL     1     -35.744  25.846   5.648  0.00  0.00    +0.117 C 
BRANCH  22  25
ATOM     23  O   UNL     1     -33.355  25.848   5.301  0.00  0.00    -0.275 OA
ATOM     24  N   UNL     1     -34.617  27.438   4.225  0.00  0.00    -0.329 N 
ATOM     25  C   UNL     1     -34.447  26.357   5.061  0.00  0.00    +0.224 C 
ATOM     26  H   UNL     1     -33.837  27.850   3.788  0.00  0.00    +0.145 HD
ATOM     27  H   UNL     1     -35.519  27.798   4.063  0.00  0.00    +0.145 HD
ENDBRANCH  22  25
ENDBRANCH   7  22
TORSDOF 7
ENDMDL
MODEL 9
REMARK VINA RESULT:      -5.0      1.653      4.102
REMARK  Name = 194102
REMARK  7 active torsions:
REMARK  status: ('A' for Active; 'I' for Inactive)
REMARK    1  A    between atoms: N_3  and  C_13
REMARK    2  A    between atoms: C_7  and  C_22
REMARK    3  A    between atoms: C_11  and  O_15
REMARK    4  A    between atoms: C_12  and  O_17
REMARK    5  A    between atoms: C_14  and  C_19
REMARK    6  A    between atoms: C_19  and  O_20
REMARK    7  A    between atoms: C_22  and  C_25
REMARK                            x       y       z     vdW  Elec       q    Type
REMARK                         _______ _______ _______ _____ _____    ______ ____
ROOT
ATOM      1  O   UNL     1     -36.166  20.598   2.142  0.00  0.00    -0.252 OA
ATOM      2  O   UNL     1     -34.965  21.997   6.355  0.00  0.00    -0.270 OA
ATOM      3  N   UNL     1     -36.282  22.883   2.611  0.00  0.00    -0.217 N 
ATOM      4  N   UNL     1     -35.571  21.309   4.240  0.00  0.00    -0.236 N 
ATOM      5  C   UNL     1     -36.090  23.877   3.563  0.00  0.00    +0.072 C 
ATOM      6  C   UNL     1     -36.019  21.532   2.933  0.00  0.00    +0.315 C 
ATOM      7  C   UNL     1     -35.661  23.662   4.812  0.00  0.00    +0.056 C 
ATOM      8  C   UNL     1     -35.363  22.263   5.224  0.00  0.00    +0.250 C 
ATOM      9  H   UNL     1     -35.381  20.375   4.486  0.00  0.00    +0.159 HD
ENDROOT
BRANCH   3  13
ATOM     10  O   UNL     1     -36.241  24.568   0.991  0.00  0.00    -0.333 OA
ATOM     11  C   UNL     1     -38.262  23.355   1.237  0.00  0.00    +0.191 C 
ATOM     12  C   UNL     1     -38.463  24.420   0.180  0.00  0.00    +0.171 C 
ATOM     13  C   UNL     1     -36.747  23.261   1.307  0.00  0.00    +0.230 C 
ATOM     14  C   UNL     1     -37.318  25.380   0.475  0.00  0.00    +0.175 C 
BRANCH  11  15
ATOM     15  O   UNL     1     -38.867  22.128   0.884  0.00  0.00    -0.347 OA
ATOM     16  C   UNL     1     -39.657  21.602   1.946  0.00  0.00    +0.174 C 
ENDBRANCH  11  15
BRANCH  12  17
ATOM     17  O   UNL     1     -38.252  23.871  -1.121  0.00  0.00    -0.379 OA
ATOM     18  H   UNL     1     -37.319  23.630  -1.224  0.00  0.00    +0.211 HD
ENDBRANCH  12  17
BRANCH  14  19
ATOM     19  C   UNL     1     -37.667  26.429   1.523  0.00  0.00    +0.169 C 
BRANCH  19  20
ATOM     20  O   UNL     1     -38.555  27.370   0.945  0.00  0.00    -0.379 OA
ATOM     21  H   UNL     1     -38.333  27.490   0.009  0.00  0.00    +0.211 HD
ENDBRANCH  19  20
ENDBRANCH  14  19
ENDBRANCH   3  13
BRANCH   7  22
ATOM     22  C   UNL     1     -35.462  24.748   5.819  0.00  0.00    +0.117 C 
BRANCH  22  25
ATOM     23  O   UNL     1     -33.429  25.776   5.021  0.00  0.00    -0.275 OA
ATOM     24  N   UNL     1     -35.392  26.955   4.844  0.00  0.00    -0.329 N 
ATOM     25  C   UNL     1     -34.642  25.857   5.198  0.00  0.00    +0.224 C 
ATOM     26  H   UNL     1     -34.957  27.736   4.431  0.00  0.00    +0.145 HD
ATOM     27  H   UNL     1     -36.364  26.960   5.003  0.00  0.00    +0.145 HD
ENDBRANCH  22  25
ENDBRANCH   7  22
TORSDOF 7
ENDMDL
