MODEL 1
REMARK VINA RESULT:      -6.5      0.000      0.000
REMARK  Name = 19117
REMARK  7 active torsions:
REMARK  status: ('A' for Active; 'I' for Inactive)
REMARK    1  A    between atoms: C_3  and  S_11
REMARK    2  A    between atoms: C_4  and  N_19
REMARK    3  A    between atoms: C_5  and  O_22
REMARK    4  A    between atoms: C_8  and  S_15
REMARK    5  A    between atoms: C_9  and  N_24
REMARK    6  A    between atoms: N_24  and  N_25
REMARK    7  A    between atoms: N_25  and  C_26
REMARK                            x       y       z     vdW  Elec       q    Type
REMARK                         _______ _______ _______ _____ _____    ______ ____
ROOT
ATOM      1  C   UNL     1     -39.512  23.962   2.046  0.00  0.00    +0.048 C 
ATOM      2  C   UNL     1     -39.149  24.909   3.033  0.00  0.00    +0.007 C 
ATOM      3  C   UNL     1     -37.066  23.709   3.402  0.00  0.00    +0.132 C 
ATOM      4  C   UNL     1     -40.739  24.103   1.377  0.00  0.00    +0.046 C 
ATOM      5  C   UNL     1     -38.636  22.903   1.756  0.00  0.00    +0.153 C 
ATOM      6  C   UNL     1     -37.922  24.768   3.702  0.00  0.00    +0.021 C 
ATOM      7  C   UNL     1     -40.024  25.969   3.323  0.00  0.00    +0.019 C 
ATOM      8  C   UNL     1     -41.239  26.094   2.649  0.00  0.00    +0.114 C 
ATOM      9  C   UNL     1     -37.422  22.777   2.431  0.00  0.00    +0.140 C 
ATOM     10  C   UNL     1     -41.595  25.162   1.677  0.00  0.00    +0.033 C 
ENDROOT
BRANCH   3  11
ATOM     11  S   UNL     1     -35.549  23.584   4.269  0.00  0.00    +0.043 S 
ATOM     12  O   UNL     1     -35.668  24.662   5.490  0.00  0.00    -0.065 OA
ATOM     13  O   UNL     1     -35.488  22.262   4.869  0.00  0.00    -0.065 OA
ATOM     14  O   UNL     1     -34.509  24.039   3.361  0.00  0.00    -0.065 OA
ENDBRANCH   3  11
BRANCH   8  15
ATOM     15  S   UNL     1     -42.312  27.418   3.024  0.00  0.00    +0.042 S 
ATOM     16  O   UNL     1     -41.720  28.075   4.399  0.00  0.00    -0.065 OA
ATOM     17  O   UNL     1     -42.171  28.421   1.979  0.00  0.00    -0.065 OA
ATOM     18  O   UNL     1     -43.612  26.838   3.326  0.00  0.00    -0.065 OA
ENDBRANCH   8  15
BRANCH   4  19
ATOM     19  N   UNL     1     -41.181  23.204   0.376  0.00  0.00    -0.357 N 
ATOM     20  H   UNL     1     -41.165  23.473  -0.571  0.00  0.00    +0.142 HD
ATOM     21  H   UNL     1     -41.505  22.308   0.628  0.00  0.00    +0.142 HD
ENDBRANCH   4  19
BRANCH   5  22
ATOM     22  O   UNL     1     -38.923  21.952   0.814  0.00  0.00    -0.504 OA
ATOM     23  H   UNL     1     -38.926  22.179  -0.095  0.00  0.00    +0.292 HD
ENDBRANCH   5  22
BRANCH   9  24
ATOM     24  N   UNL     1     -36.561  21.712   2.126  0.00  0.00    -0.124 NA
BRANCH  24  25
ATOM     25  N   UNL     1     -35.983  21.931   1.039  0.00  0.00    -0.128 NA
BRANCH  25  26
ATOM     26  C   UNL     1     -34.833  21.130   0.942  0.00  0.00    +0.089 C 
ATOM     27  C   UNL     1     -33.765  21.547   0.153  0.00  0.00    +0.018 C 
ATOM     28  C   UNL     1     -34.769  19.925   1.636  0.00  0.00    +0.018 C 
ATOM     29  C   UNL     1     -32.623  20.751   0.056  0.00  0.00    +0.001 C 
ATOM     30  C   UNL     1     -33.627  19.130   1.539  0.00  0.00    +0.001 C 
ATOM     31  C   UNL     1     -32.555  19.542   0.749  0.00  0.00    +0.000 C 
ENDBRANCH  25  26
ENDBRANCH  24  25
ENDBRANCH   9  24
TORSDOF 7
ENDMDL
MODEL 2
REMARK VINA RESULT:      -6.3      5.426      7.684
REMARK  Name = 19117
REMARK  7 active torsions:
REMARK  status: ('A' for Active; 'I' for Inactive)
REMARK    1  A    between atoms: C_3  and  S_11
REMARK    2  A    between atoms: C_4  and  N_19
REMARK    3  A    between atoms: C_5  and  O_22
REMARK    4  A    between atoms: C_8  and  S_15
REMARK    5  A    between atoms: C_9  and  N_24
REMARK    6  A    between atoms: N_24  and  N_25
REMARK    7  A    between atoms: N_25  and  C_26
REMARK                            x       y       z     vdW  Elec       q    Type
REMARK                         _______ _______ _______ _____ _____    ______ ____
ROOT
ATOM      1  C   UNL     1     -35.596  25.076   3.203  0.00  0.00    +0.048 C 
ATOM      2  C   UNL     1     -34.768  24.357   2.307  0.00  0.00    +0.007 C 
ATOM      3  C   UNL     1     -33.115  26.137   2.426  0.00  0.00    +0.132 C 
ATOM      4  C   UNL     1     -36.834  24.530   3.581  0.00  0.00    +0.046 C 
ATOM      5  C   UNL     1     -35.160  26.317   3.694  0.00  0.00    +0.153 C 
ATOM      6  C   UNL     1     -33.530  24.903   1.929  0.00  0.00    +0.021 C 
ATOM      7  C   UNL     1     -35.203  23.115   1.816  0.00  0.00    +0.019 C 
ATOM      8  C   UNL     1     -36.435  22.589   2.203  0.00  0.00    +0.114 C 
ATOM      9  C   UNL     1     -33.928  26.844   3.308  0.00  0.00    +0.140 C 
ATOM     10  C   UNL     1     -37.249  23.295   3.084  0.00  0.00    +0.033 C 
ENDROOT
BRANCH   3  11
ATOM     11  S   UNL     1     -31.561  26.767   1.919  0.00  0.00    +0.043 S 
ATOM     12  O   UNL     1     -31.056  25.753   0.743  0.00  0.00    -0.065 OA
ATOM     13  O   UNL     1     -31.788  28.062   1.299  0.00  0.00    -0.065 OA
ATOM     14  O   UNL     1     -30.663  26.631   3.054  0.00  0.00    -0.065 OA
ENDBRANCH   3  11
BRANCH   8  15
ATOM     15  S   UNL     1     -36.957  21.043   1.580  0.00  0.00    +0.042 S 
ATOM     16  O   UNL     1     -36.324  20.951   0.076  0.00  0.00    -0.065 OA
ATOM     17  O   UNL     1     -36.322  20.001   2.373  0.00  0.00    -0.065 OA
ATOM     18  O   UNL     1     -38.406  21.103   1.457  0.00  0.00    -0.065 OA
ENDBRANCH   8  15
BRANCH   4  19
ATOM     19  N   UNL     1     -37.724  25.179   4.472  0.00  0.00    -0.357 N 
ATOM     20  H   UNL     1     -37.484  25.282   5.421  0.00  0.00    +0.142 HD
ATOM     21  H   UNL     1     -38.584  25.528   4.141  0.00  0.00    +0.142 HD
ENDBRANCH   4  19
BRANCH   5  22
ATOM     22  O   UNL     1     -35.909  27.065   4.563  0.00  0.00    -0.504 OA
ATOM     23  H   UNL     1     -36.810  27.237   4.376  0.00  0.00    +0.292 HD
ENDBRANCH   5  22
BRANCH   9  24
ATOM     24  N   UNL     1     -33.512  28.086   3.810  0.00  0.00    -0.124 NA
BRANCH  24  25
ATOM     25  N   UNL     1     -33.148  27.961   5.001  0.00  0.00    -0.128 NA
BRANCH  25  26
ATOM     26  C   UNL     1     -32.063  28.817   5.258  0.00  0.00    +0.089 C 
ATOM     27  C   UNL     1     -31.859  29.935   4.455  0.00  0.00    +0.018 C 
ATOM     28  C   UNL     1     -31.201  28.540   6.316  0.00  0.00    +0.018 C 
ATOM     29  C   UNL     1     -30.782  30.784   4.710  0.00  0.00    +0.001 C 
ATOM     30  C   UNL     1     -30.124  29.390   6.571  0.00  0.00    +0.001 C 
ATOM     31  C   UNL     1     -29.914  30.511   5.768  0.00  0.00    +0.000 C 
ENDBRANCH  25  26
ENDBRANCH  24  25
ENDBRANCH   9  24
TORSDOF 7
ENDMDL
MODEL 3
REMARK VINA RESULT:      -6.3      3.229      8.148
REMARK  Name = 19117
REMARK  7 active torsions:
REMARK  status: ('A' for Active; 'I' for Inactive)
REMARK    1  A    between atoms: C_3  and  S_11
REMARK    2  A    between atoms: C_4  and  N_19
REMARK    3  A    between atoms: C_5  and  O_22
REMARK    4  A    between atoms: C_8  and  S_15
REMARK    5  A    between atoms: C_9  and  N_24
REMARK    6  A    between atoms: N_24  and  N_25
REMARK    7  A    between atoms: N_25  and  C_26
REMARK                            x       y       z     vdW  Elec       q    Type
REMARK                         _______ _______ _______ _____ _____    ______ ____
ROOT
ATOM      1  C   UNL     1     -36.521  20.152   1.159  0.00  0.00    +0.048 C 
ATOM      2  C   UNL     1     -35.249  20.572   1.618  0.00  0.00    +0.007 C 
ATOM      3  C   UNL     1     -36.278  22.521   2.647  0.00  0.00    +0.132 C 
ATOM      4  C   UNL     1     -36.624  18.965   0.415  0.00  0.00    +0.046 C 
ATOM      5  C   UNL     1     -37.650  20.931   1.458  0.00  0.00    +0.153 C 
ATOM      6  C   UNL     1     -35.146  21.759   2.361  0.00  0.00    +0.021 C 
ATOM      7  C   UNL     1     -34.119  19.793   1.319  0.00  0.00    +0.019 C 
ATOM      8  C   UNL     1     -34.241  18.616   0.580  0.00  0.00    +0.114 C 
ATOM      9  C   UNL     1     -37.529  22.108   2.196  0.00  0.00    +0.140 C 
ATOM     10  C   UNL     1     -35.491  18.203   0.129  0.00  0.00    +0.033 C 
ENDROOT
BRANCH   3  11
ATOM     11  S   UNL     1     -36.088  23.992   3.578  0.00  0.00    +0.043 S 
ATOM     12  O   UNL     1     -34.494  24.070   3.926  0.00  0.00    -0.065 OA
ATOM     13  O   UNL     1     -36.390  25.113   2.704  0.00  0.00    -0.065 OA
ATOM     14  O   UNL     1     -36.816  23.799   4.821  0.00  0.00    -0.065 OA
ENDBRANCH   3  11
BRANCH   8  15
ATOM     15  S   UNL     1     -32.824  17.663   0.220  0.00  0.00    +0.042 S 
ATOM     16  O   UNL     1     -31.925  17.697   1.585  0.00  0.00    -0.065 OA
ATOM     17  O   UNL     1     -33.247  16.284   0.024  0.00  0.00    -0.065 OA
ATOM     18  O   UNL     1     -32.090  18.369  -0.820  0.00  0.00    -0.065 OA
ENDBRANCH   8  15
BRANCH   4  19
ATOM     19  N   UNL     1     -37.855  18.470  -0.083  0.00  0.00    -0.357 N 
ATOM     20  H   UNL     1     -38.098  18.613  -1.025  0.00  0.00    +0.142 HD
ATOM     21  H   UNL     1     -38.467  17.981   0.515  0.00  0.00    +0.142 HD
ENDBRANCH   4  19
BRANCH   5  22
ATOM     22  O   UNL     1     -38.909  20.585   1.046  0.00  0.00    -0.504 OA
ATOM     23  H   UNL     1     -39.137  20.640   0.139  0.00  0.00    +0.292 HD
ENDBRANCH   5  22
BRANCH   9  24
ATOM     24  N   UNL     1     -38.670  22.872   2.484  0.00  0.00    -0.124 NA
BRANCH  24  25
ATOM     25  N   UNL     1     -39.095  23.410   1.438  0.00  0.00    -0.128 NA
BRANCH  25  26
ATOM     26  C   UNL     1     -40.090  24.350   1.757  0.00  0.00    +0.089 C 
ATOM     27  C   UNL     1     -41.240  24.431   0.977  0.00  0.00    +0.018 C 
ATOM     28  C   UNL     1     -39.919  25.193   2.852  0.00  0.00    +0.018 C 
ATOM     29  C   UNL     1     -42.227  25.364   1.294  0.00  0.00    +0.001 C 
ATOM     30  C   UNL     1     -40.907  26.126   3.168  0.00  0.00    +0.001 C 
ATOM     31  C   UNL     1     -42.060  26.211   2.388  0.00  0.00    +0.000 C 
ENDBRANCH  25  26
ENDBRANCH  24  25
ENDBRANCH   9  24
TORSDOF 7
ENDMDL
MODEL 4
REMARK VINA RESULT:      -6.2      5.468      8.016
REMARK  Name = 19117
REMARK  7 active torsions:
REMARK  status: ('A' for Active; 'I' for Inactive)
REMARK    1  A    between atoms: C_3  and  S_11
REMARK    2  A    between atoms: C_4  and  N_19
REMARK    3  A    between atoms: C_5  and  O_22
REMARK    4  A    between atoms: C_8  and  S_15
REMARK    5  A    between atoms: C_9  and  N_24
REMARK    6  A    between atoms: N_24  and  N_25
REMARK    7  A    between atoms: N_25  and  C_26
REMARK                            x       y       z     vdW  Elec       q    Type
REMARK                         _______ _______ _______ _____ _____    ______ ____
ROOT
ATOM      1  C   UNL     1     -35.459  25.203   3.311  0.00  0.00    +0.048 C 
ATOM      2  C   UNL     1     -34.579  24.558   2.409  0.00  0.00    +0.007 C 
ATOM      3  C   UNL     1     -33.000  26.392   2.659  0.00  0.00    +0.132 C 
ATOM      4  C   UNL     1     -36.685  24.594   3.625  0.00  0.00    +0.046 C 
ATOM      5  C   UNL     1     -35.087  26.436   3.871  0.00  0.00    +0.153 C 
ATOM      6  C   UNL     1     -33.353  25.167   2.094  0.00  0.00    +0.021 C 
ATOM      7  C   UNL     1     -34.950  23.324   1.850  0.00  0.00    +0.019 C 
ATOM      8  C   UNL     1     -36.172  22.735   2.174  0.00  0.00    +0.114 C 
ATOM      9  C   UNL     1     -33.866  27.026   3.546  0.00  0.00    +0.140 C 
ATOM     10  C   UNL     1     -37.038  23.369   3.060  0.00  0.00    +0.033 C 
ENDROOT
BRANCH   3  11
ATOM     11  S   UNL     1     -31.458  27.103   2.229  0.00  0.00    +0.043 S 
ATOM     12  O   UNL     1     -30.692  25.956   1.354  0.00  0.00    -0.065 OA
ATOM     13  O   UNL     1     -31.718  28.220   1.336  0.00  0.00    -0.065 OA
ATOM     14  O   UNL     1     -30.725  27.294   3.469  0.00  0.00    -0.065 OA
ENDBRANCH   3  11
BRANCH   8  15
ATOM     15  S   UNL     1     -36.615  21.201   1.466  0.00  0.00    +0.042 S 
ATOM     16  O   UNL     1     -36.111  20.073   2.537  0.00  0.00    -0.065 OA
ATOM     17  O   UNL     1     -38.067  21.128   1.424  0.00  0.00    -0.065 OA
ATOM     18  O   UNL     1     -35.828  21.053   0.251  0.00  0.00    -0.065 OA
ENDBRANCH   8  15
BRANCH   4  19
ATOM     19  N   UNL     1     -37.626  25.167   4.517  0.00  0.00    -0.357 N 
ATOM     20  H   UNL     1     -37.992  24.632   5.257  0.00  0.00    +0.142 HD
ATOM     21  H   UNL     1     -37.913  26.102   4.395  0.00  0.00    +0.142 HD
ENDBRANCH   4  19
BRANCH   5  22
ATOM     22  O   UNL     1     -35.889  27.113   4.748  0.00  0.00    -0.504 OA
ATOM     23  H   UNL     1     -35.537  27.429   5.557  0.00  0.00    +0.292 HD
ENDBRANCH   5  22
BRANCH   9  24
ATOM     24  N   UNL     1     -33.513  28.258   4.117  0.00  0.00    -0.124 NA
BRANCH  24  25
ATOM     25  N   UNL     1     -34.181  29.176   3.591  0.00  0.00    -0.128 NA
BRANCH  25  26
ATOM     26  C   UNL     1     -33.388  30.329   3.463  0.00  0.00    +0.089 C 
ATOM     27  C   UNL     1     -32.217  30.447   4.206  0.00  0.00    +0.018 C 
ATOM     28  C   UNL     1     -33.779  31.343   2.594  0.00  0.00    +0.018 C 
ATOM     29  C   UNL     1     -31.430  31.592   4.079  0.00  0.00    +0.001 C 
ATOM     30  C   UNL     1     -32.991  32.488   2.467  0.00  0.00    +0.001 C 
ATOM     31  C   UNL     1     -31.817  32.612   3.210  0.00  0.00    +0.000 C 
ENDBRANCH  25  26
ENDBRANCH  24  25
ENDBRANCH   9  24
TORSDOF 7
ENDMDL
MODEL 5
REMARK VINA RESULT:      -6.0      4.561      5.868
REMARK  Name = 19117
REMARK  7 active torsions:
REMARK  status: ('A' for Active; 'I' for Inactive)
REMARK    1  A    between atoms: C_3  and  S_11
REMARK    2  A    between atoms: C_4  and  N_19
REMARK    3  A    between atoms: C_5  and  O_22
REMARK    4  A    between atoms: C_8  and  S_15
REMARK    5  A    between atoms: C_9  and  N_24
REMARK    6  A    between atoms: N_24  and  N_25
REMARK    7  A    between atoms: N_25  and  C_26
REMARK                            x       y       z     vdW  Elec       q    Type
REMARK                         _______ _______ _______ _____ _____    ______ ____
ROOT
ATOM      1  C   UNL     1     -35.113  24.062   3.501  0.00  0.00    +0.048 C 
ATOM      2  C   UNL     1     -34.360  24.789   2.547  0.00  0.00    +0.007 C 
ATOM      3  C   UNL     1     -35.058  23.223   0.821  0.00  0.00    +0.132 C 
ATOM      4  C   UNL     1     -35.129  24.496   4.837  0.00  0.00    +0.046 C 
ATOM      5  C   UNL     1     -35.827  22.925   3.090  0.00  0.00    +0.153 C 
ATOM      6  C   UNL     1     -34.344  24.356   1.211  0.00  0.00    +0.021 C 
ATOM      7  C   UNL     1     -33.647  25.928   2.958  0.00  0.00    +0.019 C 
ATOM      8  C   UNL     1     -33.675  26.343   4.289  0.00  0.00    +0.114 C 
ATOM      9  C   UNL     1     -35.798  22.508   1.759  0.00  0.00    +0.140 C 
ATOM     10  C   UNL     1     -34.415  25.628   5.227  0.00  0.00    +0.033 C 
ENDROOT
BRANCH   3  11
ATOM     11  S   UNL     1     -34.999  22.731  -0.859  0.00  0.00    +0.043 S 
ATOM     12  O   UNL     1     -34.524  24.063  -1.675  0.00  0.00    -0.065 OA
ATOM     13  O   UNL     1     -33.940  21.744  -0.996  0.00  0.00    -0.065 OA
ATOM     14  O   UNL     1     -36.363  22.419  -1.252  0.00  0.00    -0.065 OA
ENDBRANCH   3  11
BRANCH   8  15
ATOM     15  S   UNL     1     -32.781  27.760   4.779  0.00  0.00    +0.042 S 
ATOM     16  O   UNL     1     -31.265  27.529   4.212  0.00  0.00    -0.065 OA
ATOM     17  O   UNL     1     -33.330  28.906   4.069  0.00  0.00    -0.065 OA
ATOM     18  O   UNL     1     -32.726  27.745   6.233  0.00  0.00    -0.065 OA
ENDBRANCH   8  15
BRANCH   4  19
ATOM     19  N   UNL     1     -35.855  23.830   5.856  0.00  0.00    -0.357 N 
ATOM     20  H   UNL     1     -36.638  23.281   5.625  0.00  0.00    +0.142 HD
ATOM     21  H   UNL     1     -35.574  23.916   6.796  0.00  0.00    +0.142 HD
ENDBRANCH   4  19
BRANCH   5  22
ATOM     22  O   UNL     1     -36.574  22.175   3.957  0.00  0.00    -0.504 OA
ATOM     23  H   UNL     1     -37.385  22.510   4.286  0.00  0.00    +0.292 HD
ENDBRANCH   5  22
BRANCH   9  24
ATOM     24  N   UNL     1     -36.518  21.369   1.368  0.00  0.00    -0.124 NA
BRANCH  24  25
ATOM     25  N   UNL     1     -36.151  20.383   2.045  0.00  0.00    -0.128 NA
BRANCH  25  26
ATOM     26  C   UNL     1     -35.284  19.580   1.285  0.00  0.00    +0.089 C 
ATOM     27  C   UNL     1     -33.955  19.439   1.673  0.00  0.00    +0.018 C 
ATOM     28  C   UNL     1     -35.761  18.931   0.149  0.00  0.00    +0.018 C 
ATOM     29  C   UNL     1     -33.094  18.642   0.918  0.00  0.00    +0.001 C 
ATOM     30  C   UNL     1     -34.899  18.135  -0.605  0.00  0.00    +0.001 C 
ATOM     31  C   UNL     1     -33.566  17.991  -0.221  0.00  0.00    +0.000 C 
ENDBRANCH  25  26
ENDBRANCH  24  25
ENDBRANCH   9  24
TORSDOF 7
ENDMDL
MODEL 6
REMARK VINA RESULT:      -5.9      5.072      6.981
REMARK  Name = 19117
REMARK  7 active torsions:
REMARK  status: ('A' for Active; 'I' for Inactive)
REMARK    1  A    between atoms: C_3  and  S_11
REMARK    2  A    between atoms: C_4  and  N_19
REMARK    3  A    between atoms: C_5  and  O_22
REMARK    4  A    between atoms: C_8  and  S_15
REMARK    5  A    between atoms: C_9  and  N_24
REMARK    6  A    between atoms: N_24  and  N_25
REMARK    7  A    between atoms: N_25  and  C_26
REMARK                            x       y       z     vdW  Elec       q    Type
REMARK                         _______ _______ _______ _____ _____    ______ ____
ROOT
ATOM      1  C   UNL     1     -36.181  24.606   3.435  0.00  0.00    +0.048 C 
ATOM      2  C   UNL     1     -36.637  25.205   2.236  0.00  0.00    +0.007 C 
ATOM      3  C   UNL     1     -35.371  27.212   2.773  0.00  0.00    +0.132 C 
ATOM      4  C   UNL     1     -36.596  23.302   3.751  0.00  0.00    +0.046 C 
ATOM      5  C   UNL     1     -35.324  25.328   4.281  0.00  0.00    +0.153 C 
ATOM      6  C   UNL     1     -36.222  26.509   1.920  0.00  0.00    +0.021 C 
ATOM      7  C   UNL     1     -37.493  24.482   1.389  0.00  0.00    +0.019 C 
ATOM      8  C   UNL     1     -37.895  23.188   1.719  0.00  0.00    +0.114 C 
ATOM      9  C   UNL     1     -34.923  26.623   3.951  0.00  0.00    +0.140 C 
ATOM     10  C   UNL     1     -37.447  22.599   2.898  0.00  0.00    +0.033 C 
ENDROOT
BRANCH   3  11
ATOM     11  S   UNL     1     -34.888  28.836   2.326  0.00  0.00    +0.043 S 
ATOM     12  O   UNL     1     -36.039  29.350   1.287  0.00  0.00    -0.065 OA
ATOM     13  O   UNL     1     -34.980  29.669   3.514  0.00  0.00    -0.065 OA
ATOM     14  O   UNL     1     -33.637  28.715   1.596  0.00  0.00    -0.065 OA
ENDBRANCH   3  11
BRANCH   8  15
ATOM     15  S   UNL     1     -38.961  22.308   0.653  0.00  0.00    +0.042 S 
ATOM     16  O   UNL     1     -40.205  21.822   1.595  0.00  0.00    -0.065 OA
ATOM     17  O   UNL     1     -39.504  23.248  -0.316  0.00  0.00    -0.065 OA
ATOM     18  O   UNL     1     -38.238  21.124   0.215  0.00  0.00    -0.065 OA
ENDBRANCH   8  15
BRANCH   4  19
ATOM     19  N   UNL     1     -36.188  22.625   4.927  0.00  0.00    -0.357 N 
ATOM     20  H   UNL     1     -35.928  21.677   4.886  0.00  0.00    +0.142 HD
ATOM     21  H   UNL     1     -36.165  23.105   5.788  0.00  0.00    +0.142 HD
ENDBRANCH   4  19
BRANCH   5  22
ATOM     22  O   UNL     1     -34.845  24.811   5.454  0.00  0.00    -0.504 OA
ATOM     23  H   UNL     1     -35.436  24.602   6.149  0.00  0.00    +0.292 HD
ENDBRANCH   5  22
BRANCH   9  24
ATOM     24  N   UNL     1     -34.066  27.328   4.810  0.00  0.00    -0.124 NA
BRANCH  24  25
ATOM     25  N   UNL     1     -32.880  26.993   4.594  0.00  0.00    -0.128 NA
BRANCH  25  26
ATOM     26  C   UNL     1     -32.013  28.022   5.002  0.00  0.00    +0.089 C 
ATOM     27  C   UNL     1     -32.011  28.436   6.331  0.00  0.00    +0.018 C 
ATOM     28  C   UNL     1     -31.163  28.618   4.076  0.00  0.00    +0.018 C 
ATOM     29  C   UNL     1     -31.151  29.457   6.737  0.00  0.00    +0.001 C 
ATOM     30  C   UNL     1     -30.303  29.639   4.482  0.00  0.00    +0.001 C 
ATOM     31  C   UNL     1     -30.298  30.058   5.812  0.00  0.00    +0.000 C 
ENDBRANCH  25  26
ENDBRANCH  24  25
ENDBRANCH   9  24
TORSDOF 7
ENDMDL
MODEL 7
REMARK VINA RESULT:      -5.9      4.714      6.078
REMARK  Name = 19117
REMARK  7 active torsions:
REMARK  status: ('A' for Active; 'I' for Inactive)
REMARK    1  A    between atoms: C_3  and  S_11
REMARK    2  A    between atoms: C_4  and  N_19
REMARK    3  A    between atoms: C_5  and  O_22
REMARK    4  A    between atoms: C_8  and  S_15
REMARK    5  A    between atoms: C_9  and  N_24
REMARK    6  A    between atoms: N_24  and  N_25
REMARK    7  A    between atoms: N_25  and  C_26
REMARK                            x       y       z     vdW  Elec       q    Type
REMARK                         _______ _______ _______ _____ _____    ______ ____
ROOT
ATOM      1  C   UNL     1     -35.405  22.571   2.865  0.00  0.00    +0.048 C 
ATOM      2  C   UNL     1     -34.901  23.613   2.050  0.00  0.00    +0.007 C 
ATOM      3  C   UNL     1     -35.354  22.270   0.073  0.00  0.00    +0.132 C 
ATOM      4  C   UNL     1     -35.422  22.738   4.260  0.00  0.00    +0.046 C 
ATOM      5  C   UNL     1     -35.876  21.394   2.261  0.00  0.00    +0.153 C 
ATOM      6  C   UNL     1     -34.883  23.446   0.656  0.00  0.00    +0.021 C 
ATOM      7  C   UNL     1     -34.430  24.791   2.654  0.00  0.00    +0.019 C 
ATOM      8  C   UNL     1     -34.455  24.939   4.041  0.00  0.00    +0.114 C 
ATOM      9  C   UNL     1     -35.850  21.245   0.875  0.00  0.00    +0.140 C 
ATOM     10  C   UNL     1     -34.951  23.914   4.842  0.00  0.00    +0.033 C 
ENDROOT
BRANCH   3  11
ATOM     11  S   UNL     1     -35.307  22.119  -1.671  0.00  0.00    +0.043 S 
ATOM     12  O   UNL     1     -34.840  23.588  -2.211  0.00  0.00    -0.065 OA
ATOM     13  O   UNL     1     -34.247  21.182  -2.007  0.00  0.00    -0.065 OA
ATOM     14  O   UNL     1     -36.673  21.886  -2.109  0.00  0.00    -0.065 OA
ENDBRANCH   3  11
BRANCH   8  15
ATOM     15  S   UNL     1     -33.865  26.411   4.771  0.00  0.00    +0.042 S 
ATOM     16  O   UNL     1     -34.794  27.603   4.147  0.00  0.00    -0.065 OA
ATOM     17  O   UNL     1     -34.150  26.351   6.196  0.00  0.00    -0.065 OA
ATOM     18  O   UNL     1     -32.504  26.604   4.293  0.00  0.00    -0.065 OA
ENDBRANCH   8  15
BRANCH   4  19
ATOM     19  N   UNL     1     -35.909  21.749   5.150  0.00  0.00    -0.357 N 
ATOM     20  H   UNL     1     -36.280  20.908   4.798  0.00  0.00    +0.142 HD
ATOM     21  H   UNL     1     -35.874  21.903   6.123  0.00  0.00    +0.142 HD
ENDBRANCH   4  19
BRANCH   5  22
ATOM     22  O   UNL     1     -36.376  20.348   2.987  0.00  0.00    -0.504 OA
ATOM     23  H   UNL     1     -36.911  20.512   3.739  0.00  0.00    +0.292 HD
ENDBRANCH   5  22
BRANCH   9  24
ATOM     24  N   UNL     1     -36.326  20.061   0.291  0.00  0.00    -0.124 NA
BRANCH  24  25
ATOM     25  N   UNL     1     -35.464  19.161   0.395  0.00  0.00    -0.128 NA
BRANCH  25  26
ATOM     26  C   UNL     1     -35.994  17.940  -0.056  0.00  0.00    +0.089 C 
ATOM     27  C   UNL     1     -37.373  17.758  -0.092  0.00  0.00    +0.018 C 
ATOM     28  C   UNL     1     -35.136  16.923  -0.466  0.00  0.00    +0.018 C 
ATOM     29  C   UNL     1     -37.900  16.546  -0.539  0.00  0.00    +0.001 C 
ATOM     30  C   UNL     1     -35.664  15.711  -0.913  0.00  0.00    +0.001 C 
ATOM     31  C   UNL     1     -37.045  15.523  -0.949  0.00  0.00    +0.000 C 
ENDBRANCH  25  26
ENDBRANCH  24  25
ENDBRANCH   9  24
TORSDOF 7
ENDMDL
MODEL 8
REMARK VINA RESULT:      -5.8      6.661      7.665
REMARK  Name = 19117
REMARK  7 active torsions:
REMARK  status: ('A' for Active; 'I' for Inactive)
REMARK    1  A    between atoms: C_3  and  S_11
REMARK    2  A    between atoms: C_4  and  N_19
REMARK    3  A    between atoms: C_5  and  O_22
REMARK    4  A    between atoms: C_8  and  S_15
REMARK    5  A    between atoms: C_9  and  N_24
REMARK    6  A    between atoms: N_24  and  N_25
REMARK    7  A    between atoms: N_25  and  C_26
REMARK                            x       y       z     vdW  Elec       q    Type
REMARK                         _______ _______ _______ _____ _____    ______ ____
ROOT
ATOM      1  C   UNL     1     -34.810  30.100   2.219  0.00  0.00    +0.048 C 
ATOM      2  C   UNL     1     -33.871  31.000   2.778  0.00  0.00    +0.007 C 
ATOM      3  C   UNL     1     -32.894  29.171   4.050  0.00  0.00    +0.132 C 
ATOM      4  C   UNL     1     -35.761  30.581   1.304  0.00  0.00    +0.046 C 
ATOM      5  C   UNL     1     -34.768  28.746   2.590  0.00  0.00    +0.153 C 
ATOM      6  C   UNL     1     -32.920  30.519   3.692  0.00  0.00    +0.021 C 
ATOM      7  C   UNL     1     -33.912  32.354   2.406  0.00  0.00    +0.019 C 
ATOM      8  C   UNL     1     -34.864  32.814   1.497  0.00  0.00    +0.114 C 
ATOM      9  C   UNL     1     -33.817  28.286   3.500  0.00  0.00    +0.140 C 
ATOM     10  C   UNL     1     -35.787  31.929   0.946  0.00  0.00    +0.033 C 
ENDROOT
BRANCH   3  11
ATOM     11  S   UNL     1     -31.684  28.629   5.195  0.00  0.00    +0.043 S 
ATOM     12  O   UNL     1     -30.876  29.980   5.630  0.00  0.00    -0.065 OA
ATOM     13  O   UNL     1     -32.378  28.146   6.378  0.00  0.00    -0.065 OA
ATOM     14  O   UNL     1     -30.770  27.768   4.463  0.00  0.00    -0.065 OA
ENDBRANCH   3  11
BRANCH   8  15
ATOM     15  S   UNL     1     -34.898  34.501   1.049  0.00  0.00    +0.042 S 
ATOM     16  O   UNL     1     -36.435  34.987   1.320  0.00  0.00    -0.065 OA
ATOM     17  O   UNL     1     -34.051  35.231   1.980  0.00  0.00    -0.065 OA
ATOM     18  O   UNL     1     -34.651  34.564  -0.384  0.00  0.00    -0.065 OA
ENDBRANCH   8  15
BRANCH   4  19
ATOM     19  N   UNL     1     -36.736  29.752   0.696  0.00  0.00    -0.357 N 
ATOM     20  H   UNL     1     -36.485  29.163  -0.051  0.00  0.00    +0.142 HD
ATOM     21  H   UNL     1     -37.666  29.765   1.022  0.00  0.00    +0.142 HD
ENDBRANCH   4  19
BRANCH   5  22
ATOM     22  O   UNL     1     -35.644  27.822   2.089  0.00  0.00    -0.504 OA
ATOM     23  H   UNL     1     -36.451  28.101   1.705  0.00  0.00    +0.292 HD
ENDBRANCH   5  22
BRANCH   9  24
ATOM     24  N   UNL     1     -33.792  26.929   3.858  0.00  0.00    -0.124 NA
BRANCH  24  25
ATOM     25  N   UNL     1     -34.808  26.650   4.532  0.00  0.00    -0.128 NA
BRANCH  25  26
ATOM     26  C   UNL     1     -35.026  25.262   4.511  0.00  0.00    +0.089 C 
ATOM     27  C   UNL     1     -35.228  24.576   5.706  0.00  0.00    +0.018 C 
ATOM     28  C   UNL     1     -35.039  24.583   3.296  0.00  0.00    +0.018 C 
ATOM     29  C   UNL     1     -35.444  23.198   5.685  0.00  0.00    +0.001 C 
ATOM     30  C   UNL     1     -35.255  23.204   3.276  0.00  0.00    +0.001 C 
ATOM     31  C   UNL     1     -35.457  22.513   4.471  0.00  0.00    +0.000 C 
ENDBRANCH  25  26
ENDBRANCH  24  25
ENDBRANCH   9  24
TORSDOF 7
ENDMDL
MODEL 9
REMARK VINA RESULT:      -5.8      1.508      2.320
REMARK  Name = 19117
REMARK  7 active torsions:
REMARK  status: ('A' for Active; 'I' for Inactive)
REMARK    1  A    between atoms: C_3  and  S_11
REMARK    2  A    between atoms: C_4  and  N_19
REMARK    3  A    between atoms: C_5  and  O_22
REMARK    4  A    between atoms: C_8  and  S_15
REMARK    5  A    between atoms: C_9  and  N_24
REMARK    6  A    between atoms: N_24  and  N_25
REMARK    7  A    between atoms: N_25  and  C_26
REMARK                            x       y       z     vdW  Elec       q    Type
REMARK                         _______ _______ _______ _____ _____    ______ ____
ROOT
ATOM      1  C   UNL     1     -38.942  22.737   1.039  0.00  0.00    +0.048 C 
ATOM      2  C   UNL     1     -39.098  23.725   2.041  0.00  0.00    +0.007 C 
ATOM      3  C   UNL     1     -36.963  23.067   3.004  0.00  0.00    +0.132 C 
ATOM      4  C   UNL     1     -39.942  22.585   0.064  0.00  0.00    +0.046 C 
ATOM      5  C   UNL     1     -37.792  21.931   1.042  0.00  0.00    +0.153 C 
ATOM      6  C   UNL     1     -38.099  23.877   3.016  0.00  0.00    +0.021 C 
ATOM      7  C   UNL     1     -40.249  24.531   2.038  0.00  0.00    +0.019 C 
ATOM      8  C   UNL     1     -41.231  24.365   1.062  0.00  0.00    +0.114 C 
ATOM      9  C   UNL     1     -36.810  22.096   2.019  0.00  0.00    +0.140 C 
ATOM     10  C   UNL     1     -41.078  23.394   0.077  0.00  0.00    +0.033 C 
ENDROOT
BRANCH   3  11
ATOM     11  S   UNL     1     -35.750  23.303   4.245  0.00  0.00    +0.043 S 
ATOM     12  O   UNL     1     -35.396  21.802   4.783  0.00  0.00    -0.065 OA
ATOM     13  O   UNL     1     -34.553  23.822   3.605  0.00  0.00    -0.065 OA
ATOM     14  O   UNL     1     -36.393  24.033   5.326  0.00  0.00    -0.065 OA
ENDBRANCH   3  11
BRANCH   8  15
ATOM     15  S   UNL     1     -42.653  25.377   1.077  0.00  0.00    +0.042 S 
ATOM     16  O   UNL     1     -43.917  24.344   0.998  0.00  0.00    -0.065 OA
ATOM     17  O   UNL     1     -42.723  26.036   2.372  0.00  0.00    -0.065 OA
ATOM     18  O   UNL     1     -42.632  26.157  -0.152  0.00  0.00    -0.065 OA
ENDBRANCH   8  15
BRANCH   4  19
ATOM     19  N   UNL     1     -39.868  21.623  -0.974  0.00  0.00    -0.357 N 
ATOM     20  H   UNL     1     -39.638  20.689  -0.765  0.00  0.00    +0.142 HD
ATOM     21  H   UNL     1     -40.048  21.890  -1.905  0.00  0.00    +0.142 HD
ENDBRANCH   4  19
BRANCH   5  22
ATOM     22  O   UNL     1     -37.576  20.958   0.105  0.00  0.00    -0.504 OA
ATOM     23  H   UNL     1     -37.768  21.125  -0.797  0.00  0.00    +0.292 HD
ENDBRANCH   5  22
BRANCH   9  24
ATOM     24  N   UNL     1     -35.667  21.281   2.004  0.00  0.00    -0.124 NA
BRANCH  24  25
ATOM     25  N   UNL     1     -34.940  21.589   1.033  0.00  0.00    -0.128 NA
BRANCH  25  26
ATOM     26  C   UNL     1     -33.899  20.653   0.904  0.00  0.00    +0.089 C 
ATOM     27  C   UNL     1     -33.994  19.422   1.546  0.00  0.00    +0.018 C 
ATOM     28  C   UNL     1     -32.783  20.964   0.133  0.00  0.00    +0.018 C 
ATOM     29  C   UNL     1     -32.960  18.493   1.418  0.00  0.00    +0.001 C 
ATOM     30  C   UNL     1     -31.750  20.034   0.005  0.00  0.00    +0.001 C 
ATOM     31  C   UNL     1     -31.839  18.800   0.648  0.00  0.00    +0.000 C 
ENDBRANCH  25  26
ENDBRANCH  24  25
ENDBRANCH   9  24
TORSDOF 7
ENDMDL
