MODEL 1
REMARK VINA RESULT:      -6.7      0.000      0.000
REMARK  Name = 197617
REMARK  11 active torsions:
REMARK  status: ('A' for Active; 'I' for Inactive)
REMARK    1  A    between atoms: C_2  and  O_7
REMARK    2  A    between atoms: C_3  and  O_9
REMARK    3  A    between atoms: C_4  and  O_11
REMARK    4  A    between atoms: C_5  and  O_17
REMARK    5  A    between atoms: C_6  and  C_14
REMARK    6  A    between atoms: C_14  and  O_15
REMARK    7  A    between atoms: O_17  and  N_18
REMARK    8  A    between atoms: N_18  and  C_20
REMARK    9  A    between atoms: C_20  and  C_22
REMARK   10  A    between atoms: C_22  and  O_23
REMARK   11  A    between atoms: O_23  and  C_24
REMARK                            x       y       z     vdW  Elec       q    Type
REMARK                         _______ _______ _______ _____ _____    ______ ____
ROOT
ATOM      1  O   UNL     1     -36.678  22.277   4.012  0.00  0.00    -0.316 OA
ATOM      2  C   UNL     1     -36.475  25.143   4.074  0.00  0.00    +0.172 C 
ATOM      3  C   UNL     1     -37.570  24.416   3.292  0.00  0.00    +0.198 C 
ATOM      4  C   UNL     1     -35.903  24.261   5.185  0.00  0.00    +0.178 C 
ATOM      5  C   UNL     1     -37.115  23.017   2.875  0.00  0.00    +0.284 C 
ATOM      6  C   UNL     1     -35.556  22.877   4.649  0.00  0.00    +0.245 C 
ENDROOT
BRANCH   2   7
ATOM      7  O   UNL     1     -37.021  26.316   4.679  0.00  0.00    -0.379 OA
ATOM      8  H   UNL     1     -36.372  27.035   4.633  0.00  0.00    +0.211 HD
ENDBRANCH   2   7
BRANCH   3   9
ATOM      9  O   UNL     1     -37.878  25.157   2.112  0.00  0.00    -0.377 OA
ATOM     10  H   UNL     1     -38.777  24.938   1.818  0.00  0.00    +0.211 HD
ENDBRANCH   3   9
BRANCH   4  11
ATOM     11  O   UNL     1     -34.717  24.864   5.696  0.00  0.00    -0.379 OA
ATOM     12  H   UNL     1     -34.186  24.195   6.156  0.00  0.00    +0.211 HD
ENDBRANCH   4  11
BRANCH   6  14
ATOM     13  O   UNL     1     -35.123  22.250   6.939  0.00  0.00    -0.247 OA
ATOM     14  C   UNL     1     -35.251  21.932   5.766  0.00  0.00    +0.344 C 
BRANCH  14  15
ATOM     15  O   UNL     1     -35.129  20.665   5.302  0.00  0.00    -0.478 OA
ATOM     16  H   UNL     1     -35.724  20.345   4.654  0.00  0.00    +0.295 HD
ENDBRANCH  14  15
ENDBRANCH   6  14
BRANCH   5  17
ATOM     17  O   UNL     1     -38.226  22.357   2.268  0.00  0.00    -0.255 OA
BRANCH  17  18
ATOM     18  N   UNL     1     -37.900  20.941   2.188  0.00  0.00    -0.185 NA
ATOM     19  H   UNL     1     -38.745  20.373   2.258  0.00  0.00    +0.155 HD
BRANCH  18  20
ATOM     20  C   UNL     1     -37.280  20.782   0.880  0.00  0.00    +0.124 C 
ATOM     21  C   UNL     1     -38.299  20.233  -0.119  0.00  0.00    +0.023 C 
BRANCH  20  22
ATOM     22  C   UNL     1     -36.061  19.868   1.009  0.00  0.00    +0.223 C 
BRANCH  22  23
ATOM     23  O   UNL     1     -34.994  20.577   1.628  0.00  0.00    -0.475 OA
BRANCH  23  24
ATOM     24  C   UNL     1     -33.860  20.757   0.882  0.00  0.00    +0.131 C 
ATOM     25  C   UNL     1     -32.930  19.727   0.777  0.00  0.00    +0.012 C 
ATOM     26  C   UNL     1     -33.644  21.970   0.233  0.00  0.00    +0.012 C 
ATOM     27  C   UNL     1     -31.776  19.911   0.015  0.00  0.00    -0.001 C 
ATOM     28  C   UNL     1     -32.490  22.153  -0.529  0.00  0.00    -0.001 C 
ATOM     29  C   UNL     1     -33.147  18.422   1.469  0.00  0.00    +0.034 C 
ATOM     30  C   UNL     1     -34.632  23.085   0.336  0.00  0.00    +0.034 C 
ATOM     31  C   UNL     1     -31.556  21.123  -0.637  0.00  0.00    -0.000 C 
ENDBRANCH  23  24
ENDBRANCH  22  23
ENDBRANCH  20  22
ENDBRANCH  18  20
ENDBRANCH  17  18
ENDBRANCH   5  17
TORSDOF 11
ENDMDL
MODEL 2
REMARK VINA RESULT:      -6.6      0.158      1.692
REMARK  Name = 197617
REMARK  11 active torsions:
REMARK  status: ('A' for Active; 'I' for Inactive)
REMARK    1  A    between atoms: C_2  and  O_7
REMARK    2  A    between atoms: C_3  and  O_9
REMARK    3  A    between atoms: C_4  and  O_11
REMARK    4  A    between atoms: C_5  and  O_17
REMARK    5  A    between atoms: C_6  and  C_14
REMARK    6  A    between atoms: C_14  and  O_15
REMARK    7  A    between atoms: O_17  and  N_18
REMARK    8  A    between atoms: N_18  and  C_20
REMARK    9  A    between atoms: C_20  and  C_22
REMARK   10  A    between atoms: C_22  and  O_23
REMARK   11  A    between atoms: O_23  and  C_24
REMARK                            x       y       z     vdW  Elec       q    Type
REMARK                         _______ _______ _______ _____ _____    ______ ____
ROOT
ATOM      1  O   UNL     1     -36.739  22.305   3.958  0.00  0.00    -0.316 OA
ATOM      2  C   UNL     1     -36.565  25.168   4.141  0.00  0.00    +0.172 C 
ATOM      3  C   UNL     1     -37.689  24.462   3.382  0.00  0.00    +0.198 C 
ATOM      4  C   UNL     1     -35.927  24.244   5.180  0.00  0.00    +0.178 C 
ATOM      5  C   UNL     1     -37.241  23.089   2.879  0.00  0.00    +0.284 C 
ATOM      6  C   UNL     1     -35.593  22.890   4.565  0.00  0.00    +0.245 C 
ENDROOT
BRANCH   2   7
ATOM      7  O   UNL     1     -37.092  26.305   4.826  0.00  0.00    -0.379 OA
ATOM      8  H   UNL     1     -36.663  26.388   5.691  0.00  0.00    +0.211 HD
ENDBRANCH   2   7
BRANCH   3   9
ATOM      9  O   UNL     1     -38.066  25.251   2.254  0.00  0.00    -0.377 OA
ATOM     10  H   UNL     1     -37.406  25.145   1.550  0.00  0.00    +0.211 HD
ENDBRANCH   3   9
BRANCH   4  11
ATOM     11  O   UNL     1     -34.723  24.840   5.658  0.00  0.00    -0.379 OA
ATOM     12  H   UNL     1     -33.987  24.219   5.543  0.00  0.00    +0.211 HD
ENDBRANCH   4  11
BRANCH   6  14
ATOM     13  O   UNL     1     -35.048  22.165   6.801  0.00  0.00    -0.247 OA
ATOM     14  C   UNL     1     -35.220  21.901   5.621  0.00  0.00    +0.344 C 
BRANCH  14  15
ATOM     15  O   UNL     1     -35.094  20.660   5.091  0.00  0.00    -0.478 OA
ATOM     16  H   UNL     1     -35.327  20.507   4.197  0.00  0.00    +0.295 HD
ENDBRANCH  14  15
ENDBRANCH   6  14
BRANCH   5  17
ATOM     17  O   UNL     1     -38.373  22.443   2.299  0.00  0.00    -0.255 OA
BRANCH  17  18
ATOM     18  N   UNL     1     -38.063  21.025   2.203  0.00  0.00    -0.185 NA
ATOM     19  H   UNL     1     -38.919  20.471   2.160  0.00  0.00    +0.155 HD
BRANCH  18  20
ATOM     20  C   UNL     1     -37.307  20.899   0.965  0.00  0.00    +0.124 C 
ATOM     21  C   UNL     1     -38.225  20.430  -0.164  0.00  0.00    +0.023 C 
BRANCH  20  22
ATOM     22  C   UNL     1     -36.139  19.938   1.185  0.00  0.00    +0.223 C 
BRANCH  22  23
ATOM     23  O   UNL     1     -35.044  20.638   1.764  0.00  0.00    -0.475 OA
BRANCH  23  24
ATOM     24  C   UNL     1     -33.942  20.824   0.972  0.00  0.00    +0.131 C 
ATOM     25  C   UNL     1     -33.749  22.046   0.333  0.00  0.00    +0.012 C 
ATOM     26  C   UNL     1     -33.022  19.792   0.813  0.00  0.00    +0.012 C 
ATOM     27  C   UNL     1     -32.626  22.235  -0.472  0.00  0.00    -0.001 C 
ATOM     28  C   UNL     1     -31.899  19.982   0.009  0.00  0.00    -0.001 C 
ATOM     29  C   UNL     1     -34.728  23.160   0.493  0.00  0.00    +0.034 C 
ATOM     30  C   UNL     1     -33.216  18.476   1.493  0.00  0.00    +0.034 C 
ATOM     31  C   UNL     1     -31.701  21.205  -0.634  0.00  0.00    -0.000 C 
ENDBRANCH  23  24
ENDBRANCH  22  23
ENDBRANCH  20  22
ENDBRANCH  18  20
ENDBRANCH  17  18
ENDBRANCH   5  17
TORSDOF 11
ENDMDL
MODEL 3
REMARK VINA RESULT:      -6.6      0.889      1.292
REMARK  Name = 197617
REMARK  11 active torsions:
REMARK  status: ('A' for Active; 'I' for Inactive)
REMARK    1  A    between atoms: C_2  and  O_7
REMARK    2  A    between atoms: C_3  and  O_9
REMARK    3  A    between atoms: C_4  and  O_11
REMARK    4  A    between atoms: C_5  and  O_17
REMARK    5  A    between atoms: C_6  and  C_14
REMARK    6  A    between atoms: C_14  and  O_15
REMARK    7  A    between atoms: O_17  and  N_18
REMARK    8  A    between atoms: N_18  and  C_20
REMARK    9  A    between atoms: C_20  and  C_22
REMARK   10  A    between atoms: C_22  and  O_23
REMARK   11  A    between atoms: O_23  and  C_24
REMARK                            x       y       z     vdW  Elec       q    Type
REMARK                         _______ _______ _______ _____ _____    ______ ____
ROOT
ATOM      1  O   UNL     1     -37.147  22.808   3.693  0.00  0.00    -0.316 OA
ATOM      2  C   UNL     1     -38.128  25.418   2.997  0.00  0.00    +0.172 C 
ATOM      3  C   UNL     1     -38.860  24.136   2.601  0.00  0.00    +0.198 C 
ATOM      4  C   UNL     1     -37.204  25.187   4.194  0.00  0.00    +0.178 C 
ATOM      5  C   UNL     1     -37.890  22.958   2.486  0.00  0.00    +0.284 C 
ATOM      6  C   UNL     1     -36.344  23.947   3.979  0.00  0.00    +0.245 C 
ENDROOT
BRANCH   2   7
ATOM      7  O   UNL     1     -39.080  26.418   3.362  0.00  0.00    -0.379 OA
ATOM      8  H   UNL     1     -39.024  26.585   4.316  0.00  0.00    +0.211 HD
ENDBRANCH   2   7
BRANCH   3   9
ATOM      9  O   UNL     1     -39.488  24.323   1.333  0.00  0.00    -0.377 OA
ATOM     10  H   UNL     1     -40.345  24.761   1.458  0.00  0.00    +0.211 HD
ENDBRANCH   3   9
BRANCH   4  11
ATOM     11  O   UNL     1     -36.348  26.316   4.349  0.00  0.00    -0.379 OA
ATOM     12  H   UNL     1     -35.746  26.166   5.094  0.00  0.00    +0.211 HD
ENDBRANCH   4  11
BRANCH   6  14
ATOM     13  O   UNL     1     -34.729  24.194   5.756  0.00  0.00    -0.247 OA
ATOM     14  C   UNL     1     -35.637  23.562   5.239  0.00  0.00    +0.344 C 
BRANCH  14  15
ATOM     15  O   UNL     1     -36.140  22.405   5.735  0.00  0.00    -0.478 OA
ATOM     16  H   UNL     1     -36.046  21.608   5.251  0.00  0.00    +0.295 HD
ENDBRANCH  14  15
ENDBRANCH   6  14
BRANCH   5  17
ATOM     17  O   UNL     1     -38.658  21.780   2.243  0.00  0.00    -0.255 OA
BRANCH  17  18
ATOM     18  N   UNL     1     -37.734  20.656   2.217  0.00  0.00    -0.185 NA
ATOM     19  H   UNL     1     -38.220  19.786   2.436  0.00  0.00    +0.155 HD
BRANCH  18  20
ATOM     20  C   UNL     1     -37.224  20.633   0.854  0.00  0.00    +0.124 C 
ATOM     21  C   UNL     1     -38.300  20.112  -0.099  0.00  0.00    +0.023 C 
BRANCH  20  22
ATOM     22  C   UNL     1     -35.959  19.777   0.805  0.00  0.00    +0.223 C 
BRANCH  22  23
ATOM     23  O   UNL     1     -34.908  20.433   1.504  0.00  0.00    -0.475 OA
BRANCH  23  24
ATOM     24  C   UNL     1     -33.749  20.656   0.807  0.00  0.00    +0.131 C 
ATOM     25  C   UNL     1     -32.785  19.655   0.733  0.00  0.00    +0.012 C 
ATOM     26  C   UNL     1     -33.545  21.881   0.178  0.00  0.00    +0.012 C 
ATOM     27  C   UNL     1     -31.605  19.882   0.022  0.00  0.00    -0.001 C 
ATOM     28  C   UNL     1     -32.366  22.107  -0.532  0.00  0.00    -0.001 C 
ATOM     29  C   UNL     1     -32.989  18.338   1.404  0.00  0.00    +0.034 C 
ATOM     30  C   UNL     1     -34.571  22.963   0.250  0.00  0.00    +0.034 C 
ATOM     31  C   UNL     1     -31.396  21.107  -0.610  0.00  0.00    -0.000 C 
ENDBRANCH  23  24
ENDBRANCH  22  23
ENDBRANCH  20  22
ENDBRANCH  18  20
ENDBRANCH  17  18
ENDBRANCH   5  17
TORSDOF 11
ENDMDL
MODEL 4
REMARK VINA RESULT:      -6.4      5.310      8.228
REMARK  Name = 197617
REMARK  11 active torsions:
REMARK  status: ('A' for Active; 'I' for Inactive)
REMARK    1  A    between atoms: C_2  and  O_7
REMARK    2  A    between atoms: C_3  and  O_9
REMARK    3  A    between atoms: C_4  and  O_11
REMARK    4  A    between atoms: C_5  and  O_17
REMARK    5  A    between atoms: C_6  and  C_14
REMARK    6  A    between atoms: C_14  and  O_15
REMARK    7  A    between atoms: O_17  and  N_18
REMARK    8  A    between atoms: N_18  and  C_20
REMARK    9  A    between atoms: C_20  and  C_22
REMARK   10  A    between atoms: C_22  and  O_23
REMARK   11  A    between atoms: O_23  and  C_24
REMARK                            x       y       z     vdW  Elec       q    Type
REMARK                         _______ _______ _______ _____ _____    ______ ____
ROOT
ATOM      1  O   UNL     1     -34.339  23.898   4.983  0.00  0.00    -0.316 OA
ATOM      2  C   UNL     1     -36.533  25.071   3.545  0.00  0.00    +0.172 C 
ATOM      3  C   UNL     1     -35.213  25.809   3.770  0.00  0.00    +0.198 C 
ATOM      4  C   UNL     1     -36.354  23.557   3.666  0.00  0.00    +0.178 C 
ATOM      5  C   UNL     1     -34.510  25.312   5.033  0.00  0.00    +0.284 C 
ATOM      6  C   UNL     1     -35.581  23.205   4.931  0.00  0.00    +0.245 C 
ENDROOT
BRANCH   2   7
ATOM      7  O   UNL     1     -37.021  25.354   2.232  0.00  0.00    -0.379 OA
ATOM      8  H   UNL     1     -37.951  25.622   2.285  0.00  0.00    +0.211 HD
ENDBRANCH   2   7
BRANCH   3   9
ATOM      9  O   UNL     1     -35.471  27.204   3.921  0.00  0.00    -0.377 OA
ATOM     10  H   UNL     1     -36.013  27.349   4.713  0.00  0.00    +0.211 HD
ENDBRANCH   3   9
BRANCH   4  11
ATOM     11  O   UNL     1     -37.637  22.938   3.727  0.00  0.00    -0.379 OA
ATOM     12  H   UNL     1     -37.604  22.185   4.337  0.00  0.00    +0.211 HD
ENDBRANCH   4  11
BRANCH   6  14
ATOM     13  O   UNL     1     -35.275  21.012   3.971  0.00  0.00    -0.247 OA
ATOM     14  C   UNL     1     -35.172  21.767   4.925  0.00  0.00    +0.344 C 
BRANCH  14  15
ATOM     15  O   UNL     1     -34.669  21.408   6.132  0.00  0.00    -0.478 OA
ATOM     16  H   UNL     1     -35.181  20.881   6.714  0.00  0.00    +0.295 HD
ENDBRANCH  14  15
ENDBRANCH   6  14
BRANCH   5  17
ATOM     17  O   UNL     1     -33.235  25.949   5.105  0.00  0.00    -0.255 OA
BRANCH  17  18
ATOM     18  N   UNL     1     -33.382  27.124   5.951  0.00  0.00    -0.185 NA
ATOM     19  H   UNL     1     -33.391  26.860   6.937  0.00  0.00    +0.155 HD
BRANCH  18  20
ATOM     20  C   UNL     1     -32.217  27.942   5.647  0.00  0.00    +0.124 C 
ATOM     21  C   UNL     1     -31.851  28.802   6.858  0.00  0.00    +0.023 C 
BRANCH  20  22
ATOM     22  C   UNL     1     -32.508  28.794   4.412  0.00  0.00    +0.223 C 
BRANCH  22  23
ATOM     23  O   UNL     1     -32.942  30.088   4.813  0.00  0.00    -0.475 OA
BRANCH  23  24
ATOM     24  C   UNL     1     -32.787  31.100   3.904  0.00  0.00    +0.131 C 
ATOM     25  C   UNL     1     -33.836  31.428   3.050  0.00  0.00    +0.012 C 
ATOM     26  C   UNL     1     -31.582  31.795   3.840  0.00  0.00    +0.012 C 
ATOM     27  C   UNL     1     -33.678  32.461   2.125  0.00  0.00    -0.001 C 
ATOM     28  C   UNL     1     -31.425  32.827   2.916  0.00  0.00    -0.001 C 
ATOM     29  C   UNL     1     -35.132  30.691   3.105  0.00  0.00    +0.034 C 
ATOM     30  C   UNL     1     -30.448  31.454   4.750  0.00  0.00    +0.034 C 
ATOM     31  C   UNL     1     -32.474  33.159   2.058  0.00  0.00    -0.000 C 
ENDBRANCH  23  24
ENDBRANCH  22  23
ENDBRANCH  20  22
ENDBRANCH  18  20
ENDBRANCH  17  18
ENDBRANCH   5  17
TORSDOF 11
ENDMDL
MODEL 5
REMARK VINA RESULT:      -6.3      0.963      2.047
REMARK  Name = 197617
REMARK  11 active torsions:
REMARK  status: ('A' for Active; 'I' for Inactive)
REMARK    1  A    between atoms: C_2  and  O_7
REMARK    2  A    between atoms: C_3  and  O_9
REMARK    3  A    between atoms: C_4  and  O_11
REMARK    4  A    between atoms: C_5  and  O_17
REMARK    5  A    between atoms: C_6  and  C_14
REMARK    6  A    between atoms: C_14  and  O_15
REMARK    7  A    between atoms: O_17  and  N_18
REMARK    8  A    between atoms: N_18  and  C_20
REMARK    9  A    between atoms: C_20  and  C_22
REMARK   10  A    between atoms: C_22  and  O_23
REMARK   11  A    between atoms: O_23  and  C_24
REMARK                            x       y       z     vdW  Elec       q    Type
REMARK                         _______ _______ _______ _____ _____    ______ ____
ROOT
ATOM      1  O   UNL     1     -36.738  22.337   3.977  0.00  0.00    -0.316 OA
ATOM      2  C   UNL     1     -36.451  25.194   4.095  0.00  0.00    +0.172 C 
ATOM      3  C   UNL     1     -37.575  24.516   3.312  0.00  0.00    +0.198 C 
ATOM      4  C   UNL     1     -35.892  24.273   5.180  0.00  0.00    +0.178 C 
ATOM      5  C   UNL     1     -37.167  23.113   2.861  0.00  0.00    +0.284 C 
ATOM      6  C   UNL     1     -35.592  22.891   4.613  0.00  0.00    +0.245 C 
ENDROOT
BRANCH   2   7
ATOM      7  O   UNL     1     -36.955  26.370   4.731  0.00  0.00    -0.379 OA
ATOM      8  H   UNL     1     -37.622  26.121   5.389  0.00  0.00    +0.211 HD
ENDBRANCH   2   7
BRANCH   3   9
ATOM      9  O   UNL     1     -37.876  25.289   2.151  0.00  0.00    -0.377 OA
ATOM     10  H   UNL     1     -37.053  25.634   1.770  0.00  0.00    +0.211 HD
ENDBRANCH   3   9
BRANCH   4  11
ATOM     11  O   UNL     1     -34.683  24.831   5.689  0.00  0.00    -0.379 OA
ATOM     12  H   UNL     1     -34.884  25.636   6.191  0.00  0.00    +0.211 HD
ENDBRANCH   4  11
BRANCH   6  14
ATOM     13  O   UNL     1     -35.217  22.195   6.893  0.00  0.00    -0.247 OA
ATOM     14  C   UNL     1     -35.301  21.915   5.707  0.00  0.00    +0.344 C 
BRANCH  14  15
ATOM     15  O   UNL     1     -35.137  20.667   5.204  0.00  0.00    -0.478 OA
ATOM     16  H   UNL     1     -35.340  20.494   4.306  0.00  0.00    +0.295 HD
ENDBRANCH  14  15
ENDBRANCH   6  14
BRANCH   5  17
ATOM     17  O   UNL     1     -38.303  22.498   2.254  0.00  0.00    -0.255 OA
BRANCH  17  18
ATOM     18  N   UNL     1     -38.084  21.060   2.277  0.00  0.00    -0.185 NA
ATOM     19  H   UNL     1     -38.973  20.562   2.343  0.00  0.00    +0.155 HD
BRANCH  18  20
ATOM     20  C   UNL     1     -37.424  20.770   1.013  0.00  0.00    +0.124 C 
ATOM     21  C   UNL     1     -38.454  20.327  -0.027  0.00  0.00    +0.023 C 
BRANCH  20  22
ATOM     22  C   UNL     1     -36.350  19.706   1.238  0.00  0.00    +0.223 C 
BRANCH  22  23
ATOM     23  O   UNL     1     -35.605  19.516   0.042  0.00  0.00    -0.475 OA
BRANCH  23  24
ATOM     24  C   UNL     1     -34.290  19.159   0.184  0.00  0.00    +0.131 C 
ATOM     25  C   UNL     1     -33.323  20.143   0.368  0.00  0.00    +0.012 C 
ATOM     26  C   UNL     1     -33.930  17.815   0.144  0.00  0.00    +0.012 C 
ATOM     27  C   UNL     1     -31.985  19.779   0.514  0.00  0.00    -0.001 C 
ATOM     28  C   UNL     1     -32.592  17.452   0.291  0.00  0.00    -0.001 C 
ATOM     29  C   UNL     1     -33.695  21.588   0.410  0.00  0.00    +0.034 C 
ATOM     30  C   UNL     1     -34.957  16.748  -0.052  0.00  0.00    +0.034 C 
ATOM     31  C   UNL     1     -31.619  18.435   0.476  0.00  0.00    -0.000 C 
ENDBRANCH  23  24
ENDBRANCH  22  23
ENDBRANCH  20  22
ENDBRANCH  18  20
ENDBRANCH  17  18
ENDBRANCH   5  17
TORSDOF 11
ENDMDL
MODEL 6
REMARK VINA RESULT:      -6.3      5.294      8.174
REMARK  Name = 197617
REMARK  11 active torsions:
REMARK  status: ('A' for Active; 'I' for Inactive)
REMARK    1  A    between atoms: C_2  and  O_7
REMARK    2  A    between atoms: C_3  and  O_9
REMARK    3  A    between atoms: C_4  and  O_11
REMARK    4  A    between atoms: C_5  and  O_17
REMARK    5  A    between atoms: C_6  and  C_14
REMARK    6  A    between atoms: C_14  and  O_15
REMARK    7  A    between atoms: O_17  and  N_18
REMARK    8  A    between atoms: N_18  and  C_20
REMARK    9  A    between atoms: C_20  and  C_22
REMARK   10  A    between atoms: C_22  and  O_23
REMARK   11  A    between atoms: O_23  and  C_24
REMARK                            x       y       z     vdW  Elec       q    Type
REMARK                         _______ _______ _______ _____ _____    ______ ____
ROOT
ATOM      1  O   UNL     1     -34.335  23.899   4.978  0.00  0.00    -0.316 OA
ATOM      2  C   UNL     1     -36.482  24.967   3.394  0.00  0.00    +0.172 C 
ATOM      3  C   UNL     1     -35.167  25.719   3.605  0.00  0.00    +0.198 C 
ATOM      4  C   UNL     1     -36.310  23.466   3.629  0.00  0.00    +0.178 C 
ATOM      5  C   UNL     1     -34.503  25.313   4.922  0.00  0.00    +0.284 C 
ATOM      6  C   UNL     1     -35.575  23.204   4.938  0.00  0.00    +0.245 C 
ENDROOT
BRANCH   2   7
ATOM      7  O   UNL     1     -36.929  25.156   2.051  0.00  0.00    -0.379 OA
ATOM      8  H   UNL     1     -36.618  26.014   1.725  0.00  0.00    +0.211 HD
ENDBRANCH   2   7
BRANCH   3   9
ATOM      9  O   UNL     1     -35.426  27.121   3.648  0.00  0.00    -0.377 OA
ATOM     10  H   UNL     1     -35.073  27.490   4.474  0.00  0.00    +0.211 HD
ENDBRANCH   3   9
BRANCH   4  11
ATOM     11  O   UNL     1     -37.596  22.853   3.695  0.00  0.00    -0.379 OA
ATOM     12  H   UNL     1     -37.940  22.920   4.600  0.00  0.00    +0.211 HD
ENDBRANCH   4  11
BRANCH   6  14
ATOM     13  O   UNL     1     -35.260  20.945   4.150  0.00  0.00    -0.247 OA
ATOM     14  C   UNL     1     -35.170  21.770   5.047  0.00  0.00    +0.344 C 
BRANCH  14  15
ATOM     15  O   UNL     1     -34.687  21.501   6.285  0.00  0.00    -0.478 OA
ATOM     16  H   UNL     1     -34.667  20.619   6.598  0.00  0.00    +0.295 HD
ENDBRANCH  14  15
ENDBRANCH   6  14
BRANCH   5  17
ATOM     17  O   UNL     1     -33.229  25.953   4.986  0.00  0.00    -0.255 OA
BRANCH  17  18
ATOM     18  N   UNL     1     -33.373  27.124   5.838  0.00  0.00    -0.185 NA
ATOM     19  H   UNL     1     -33.371  26.856   6.822  0.00  0.00    +0.155 HD
BRANCH  18  20
ATOM     20  C   UNL     1     -32.213  27.948   5.527  0.00  0.00    +0.124 C 
ATOM     21  C   UNL     1     -31.838  28.803   6.738  0.00  0.00    +0.023 C 
BRANCH  20  22
ATOM     22  C   UNL     1     -32.520  28.805   4.299  0.00  0.00    +0.223 C 
BRANCH  22  23
ATOM     23  O   UNL     1     -32.980  30.086   4.712  0.00  0.00    -0.475 OA
BRANCH  23  24
ATOM     24  C   UNL     1     -32.856  31.107   3.807  0.00  0.00    +0.131 C 
ATOM     25  C   UNL     1     -31.658  31.810   3.717  0.00  0.00    +0.012 C 
ATOM     26  C   UNL     1     -33.930  31.434   2.983  0.00  0.00    +0.012 C 
ATOM     27  C   UNL     1     -31.533  32.849   2.794  0.00  0.00    -0.001 C 
ATOM     28  C   UNL     1     -33.804  32.472   2.060  0.00  0.00    -0.001 C 
ATOM     29  C   UNL     1     -30.500  31.472   4.595  0.00  0.00    +0.034 C 
ATOM     30  C   UNL     1     -35.221  30.689   3.068  0.00  0.00    +0.034 C 
ATOM     31  C   UNL     1     -32.605  33.180   1.966  0.00  0.00    -0.000 C 
ENDBRANCH  23  24
ENDBRANCH  22  23
ENDBRANCH  20  22
ENDBRANCH  18  20
ENDBRANCH  17  18
ENDBRANCH   5  17
TORSDOF 11
ENDMDL
MODEL 7
REMARK VINA RESULT:      -6.2      1.341      1.964
REMARK  Name = 197617
REMARK  11 active torsions:
REMARK  status: ('A' for Active; 'I' for Inactive)
REMARK    1  A    between atoms: C_2  and  O_7
REMARK    2  A    between atoms: C_3  and  O_9
REMARK    3  A    between atoms: C_4  and  O_11
REMARK    4  A    between atoms: C_5  and  O_17
REMARK    5  A    between atoms: C_6  and  C_14
REMARK    6  A    between atoms: C_14  and  O_15
REMARK    7  A    between atoms: O_17  and  N_18
REMARK    8  A    between atoms: N_18  and  C_20
REMARK    9  A    between atoms: C_20  and  C_22
REMARK   10  A    between atoms: C_22  and  O_23
REMARK   11  A    between atoms: O_23  and  C_24
REMARK                            x       y       z     vdW  Elec       q    Type
REMARK                         _______ _______ _______ _____ _____    ______ ____
ROOT
ATOM      1  O   UNL     1     -36.806  22.730   3.971  0.00  0.00    -0.316 OA
ATOM      2  C   UNL     1     -36.353  25.521   4.485  0.00  0.00    +0.172 C 
ATOM      3  C   UNL     1     -37.552  25.021   3.677  0.00  0.00    +0.198 C 
ATOM      4  C   UNL     1     -35.794  24.423   5.391  0.00  0.00    +0.178 C 
ATOM      5  C   UNL     1     -37.246  23.682   3.005  0.00  0.00    +0.284 C 
ATOM      6  C   UNL     1     -35.601  23.127   4.613  0.00  0.00    +0.245 C 
ENDROOT
BRANCH   2   7
ATOM      7  O   UNL     1     -36.758  26.613   5.313  0.00  0.00    -0.379 OA
ATOM      8  H   UNL     1     -36.335  26.533   6.182  0.00  0.00    +0.211 HD
ENDBRANCH   2   7
BRANCH   3   9
ATOM      9  O   UNL     1     -37.866  25.972   2.660  0.00  0.00    -0.377 OA
ATOM     10  H   UNL     1     -38.078  25.505   1.836  0.00  0.00    +0.211 HD
ENDBRANCH   3   9
BRANCH   4  11
ATOM     11  O   UNL     1     -34.531  24.841   5.906  0.00  0.00    -0.379 OA
ATOM     12  H   UNL     1     -34.665  25.343   6.725  0.00  0.00    +0.211 HD
ENDBRANCH   4  11
BRANCH   6  14
ATOM     13  O   UNL     1     -35.082  22.092   6.730  0.00  0.00    -0.247 OA
ATOM     14  C   UNL     1     -35.311  21.988   5.535  0.00  0.00    +0.344 C 
BRANCH  14  15
ATOM     15  O   UNL     1     -35.333  20.811   4.863  0.00  0.00    -0.478 OA
ATOM     16  H   UNL     1     -34.864  20.072   5.198  0.00  0.00    +0.295 HD
ENDBRANCH  14  15
ENDBRANCH   6  14
BRANCH   5  17
ATOM     17  O   UNL     1     -38.443  23.220   2.382  0.00  0.00    -0.255 OA
BRANCH  17  18
ATOM     18  N   UNL     1     -38.386  21.767   2.353  0.00  0.00    -0.185 NA
ATOM     19  H   UNL     1     -39.209  21.365   2.803  0.00  0.00    +0.155 HD
BRANCH  18  20
ATOM     20  C   UNL     1     -38.358  21.429   0.937  0.00  0.00    +0.124 C 
ATOM     21  C   UNL     1     -39.773  21.484   0.358  0.00  0.00    +0.023 C 
BRANCH  20  22
ATOM     22  C   UNL     1     -37.725  20.049   0.761  0.00  0.00    +0.223 C 
BRANCH  22  23
ATOM     23  O   UNL     1     -36.631  20.137  -0.144  0.00  0.00    -0.475 OA
BRANCH  23  24
ATOM     24  C   UNL     1     -35.503  19.431   0.182  0.00  0.00    +0.131 C 
ATOM     25  C   UNL     1     -35.361  18.116  -0.253  0.00  0.00    +0.012 C 
ATOM     26  C   UNL     1     -34.507  20.033   0.944  0.00  0.00    +0.012 C 
ATOM     27  C   UNL     1     -34.211  17.399   0.078  0.00  0.00    -0.001 C 
ATOM     28  C   UNL     1     -33.357  19.316   1.274  0.00  0.00    -0.001 C 
ATOM     29  C   UNL     1     -36.422  17.457  -1.069  0.00  0.00    +0.034 C 
ATOM     30  C   UNL     1     -34.645  21.443   1.417  0.00  0.00    +0.034 C 
ATOM     31  C   UNL     1     -33.210  17.998   0.841  0.00  0.00    -0.000 C 
ENDBRANCH  23  24
ENDBRANCH  22  23
ENDBRANCH  20  22
ENDBRANCH  18  20
ENDBRANCH  17  18
ENDBRANCH   5  17
TORSDOF 11
ENDMDL
MODEL 8
REMARK VINA RESULT:      -6.0      1.363      3.538
REMARK  Name = 197617
REMARK  11 active torsions:
REMARK  status: ('A' for Active; 'I' for Inactive)
REMARK    1  A    between atoms: C_2  and  O_7
REMARK    2  A    between atoms: C_3  and  O_9
REMARK    3  A    between atoms: C_4  and  O_11
REMARK    4  A    between atoms: C_5  and  O_17
REMARK    5  A    between atoms: C_6  and  C_14
REMARK    6  A    between atoms: C_14  and  O_15
REMARK    7  A    between atoms: O_17  and  N_18
REMARK    8  A    between atoms: N_18  and  C_20
REMARK    9  A    between atoms: C_20  and  C_22
REMARK   10  A    between atoms: C_22  and  O_23
REMARK   11  A    between atoms: O_23  and  C_24
REMARK                            x       y       z     vdW  Elec       q    Type
REMARK                         _______ _______ _______ _____ _____    ______ ____
ROOT
ATOM      1  O   UNL     1     -37.715  24.026   2.494  0.00  0.00    -0.316 OA
ATOM      2  C   UNL     1     -35.971  23.993   4.778  0.00  0.00    +0.172 C 
ATOM      3  C   UNL     1     -35.997  22.860   3.751  0.00  0.00    +0.198 C 
ATOM      4  C   UNL     1     -36.519  25.293   4.189  0.00  0.00    +0.178 C 
ATOM      5  C   UNL     1     -37.361  22.768   3.063  0.00  0.00    +0.284 C 
ATOM      6  C   UNL     1     -37.843  25.047   3.476  0.00  0.00    +0.245 C 
ENDROOT
BRANCH   2   7
ATOM      7  O   UNL     1     -34.625  24.228   5.193  0.00  0.00    -0.379 OA
ATOM      8  H   UNL     1     -34.096  24.509   4.431  0.00  0.00    +0.211 HD
ENDBRANCH   2   7
BRANCH   3   9
ATOM      9  O   UNL     1     -35.743  21.619   4.408  0.00  0.00    -0.377 OA
ATOM     10  H   UNL     1     -36.000  21.689   5.342  0.00  0.00    +0.211 HD
ENDBRANCH   3   9
BRANCH   4  11
ATOM     11  O   UNL     1     -36.733  26.230   5.243  0.00  0.00    -0.379 OA
ATOM     12  H   UNL     1     -36.216  27.032   5.072  0.00  0.00    +0.211 HD
ENDBRANCH   4  11
BRANCH   6  14
ATOM     13  O   UNL     1     -39.373  26.445   2.240  0.00  0.00    -0.247 OA
ATOM     14  C   UNL     1     -38.250  26.243   2.677  0.00  0.00    +0.344 C 
BRANCH  14  15
ATOM     15  O   UNL     1     -37.199  27.079   2.496  0.00  0.00    -0.478 OA
ATOM     16  H   UNL     1     -37.072  27.804   3.076  0.00  0.00    +0.295 HD
ENDBRANCH  14  15
ENDBRANCH   6  14
BRANCH   5  17
ATOM     17  O   UNL     1     -37.268  21.782   2.036  0.00  0.00    -0.255 OA
BRANCH  17  18
ATOM     18  N   UNL     1     -35.947  21.900   1.437  0.00  0.00    -0.185 NA
ATOM     19  H   UNL     1     -35.250  21.418   2.006  0.00  0.00    +0.155 HD
BRANCH  18  20
ATOM     20  C   UNL     1     -36.078  21.263   0.135  0.00  0.00    +0.124 C 
ATOM     21  C   UNL     1     -36.662  19.859   0.295  0.00  0.00    +0.023 C 
BRANCH  20  22
ATOM     22  C   UNL     1     -34.712  21.235  -0.551  0.00  0.00    +0.223 C 
BRANCH  22  23
ATOM     23  O   UNL     1     -33.684  21.369   0.423  0.00  0.00    -0.475 OA
BRANCH  23  24
ATOM     24  C   UNL     1     -32.504  20.722   0.168  0.00  0.00    +0.131 C 
ATOM     25  C   UNL     1     -31.518  21.354  -0.585  0.00  0.00    +0.012 C 
ATOM     26  C   UNL     1     -32.298  19.438   0.663  0.00  0.00    +0.012 C 
ATOM     27  C   UNL     1     -30.316  20.694  -0.843  0.00  0.00    -0.001 C 
ATOM     28  C   UNL     1     -31.096  18.779   0.405  0.00  0.00    -0.001 C 
ATOM     29  C   UNL     1     -31.725  22.730  -1.124  0.00  0.00    +0.034 C 
ATOM     30  C   UNL     1     -33.347  18.748   1.472  0.00  0.00    +0.034 C 
ATOM     31  C   UNL     1     -30.105  19.408  -0.349  0.00  0.00    -0.000 C 
ENDBRANCH  23  24
ENDBRANCH  22  23
ENDBRANCH  20  22
ENDBRANCH  18  20
ENDBRANCH  17  18
ENDBRANCH   5  17
TORSDOF 11
ENDMDL
MODEL 9
REMARK VINA RESULT:      -6.0      5.062      7.902
REMARK  Name = 197617
REMARK  11 active torsions:
REMARK  status: ('A' for Active; 'I' for Inactive)
REMARK    1  A    between atoms: C_2  and  O_7
REMARK    2  A    between atoms: C_3  and  O_9
REMARK    3  A    between atoms: C_4  and  O_11
REMARK    4  A    between atoms: C_5  and  O_17
REMARK    5  A    between atoms: C_6  and  C_14
REMARK    6  A    between atoms: C_14  and  O_15
REMARK    7  A    between atoms: O_17  and  N_18
REMARK    8  A    between atoms: N_18  and  C_20
REMARK    9  A    between atoms: C_20  and  C_22
REMARK   10  A    between atoms: C_22  and  O_23
REMARK   11  A    between atoms: O_23  and  C_24
REMARK                            x       y       z     vdW  Elec       q    Type
REMARK                         _______ _______ _______ _____ _____    ______ ____
ROOT
ATOM      1  O   UNL     1     -35.107  23.492   4.332  0.00  0.00    -0.316 OA
ATOM      2  C   UNL     1     -37.475  25.104   4.110  0.00  0.00    +0.172 C 
ATOM      3  C   UNL     1     -36.160  25.653   4.663  0.00  0.00    +0.198 C 
ATOM      4  C   UNL     1     -37.242  23.872   3.234  0.00  0.00    +0.178 C 
ATOM      5  C   UNL     1     -35.309  24.540   5.276  0.00  0.00    +0.284 C 
ATOM      6  C   UNL     1     -36.327  22.876   3.936  0.00  0.00    +0.245 C 
ENDROOT
BRANCH   2   7
ATOM      7  O   UNL     1     -38.110  26.102   3.309  0.00  0.00    -0.379 OA
ATOM      8  H   UNL     1     -39.030  26.209   3.596  0.00  0.00    +0.211 HD
ENDBRANCH   2   7
BRANCH   3   9
ATOM      9  O   UNL     1     -36.438  26.615   5.679  0.00  0.00    -0.377 OA
ATOM     10  H   UNL     1     -36.587  26.160   6.523  0.00  0.00    +0.211 HD
ENDBRANCH   3   9
BRANCH   4  11
ATOM     11  O   UNL     1     -38.494  23.240   2.975  0.00  0.00    -0.379 OA
ATOM     12  H   UNL     1     -38.752  23.399   2.054  0.00  0.00    +0.211 HD
ENDBRANCH   4  11
BRANCH   6  14
ATOM     13  O   UNL     1     -35.858  21.905   1.777  0.00  0.00    -0.247 OA
ATOM     14  C   UNL     1     -35.881  21.805   2.995  0.00  0.00    +0.344 C 
BRANCH  14  15
ATOM     15  O   UNL     1     -35.505  20.695   3.676  0.00  0.00    -0.478 OA
ATOM     16  H   UNL     1     -35.233  20.764   4.570  0.00  0.00    +0.295 HD
ENDBRANCH  14  15
ENDBRANCH   6  14
BRANCH   5  17
ATOM     17  O   UNL     1     -34.052  25.103   5.650  0.00  0.00    -0.255 OA
BRANCH  17  18
ATOM     18  N   UNL     1     -33.535  25.818   4.493  0.00  0.00    -0.185 NA
ATOM     19  H   UNL     1     -34.297  26.224   3.950  0.00  0.00    +0.155 HD
BRANCH  18  20
ATOM     20  C   UNL     1     -32.691  26.862   5.055  0.00  0.00    +0.124 C 
ATOM     21  C   UNL     1     -33.002  27.042   6.542  0.00  0.00    +0.023 C 
BRANCH  20  22
ATOM     22  C   UNL     1     -32.901  28.156   4.270  0.00  0.00    +0.223 C 
BRANCH  22  23
ATOM     23  O   UNL     1     -32.788  29.272   5.146  0.00  0.00    -0.475 OA
BRANCH  23  24
ATOM     24  C   UNL     1     -31.980  30.299   4.735  0.00  0.00    +0.131 C 
ATOM     25  C   UNL     1     -32.452  31.221   3.805  0.00  0.00    +0.012 C 
ATOM     26  C   UNL     1     -30.692  30.414   5.251  0.00  0.00    +0.012 C 
ATOM     27  C   UNL     1     -31.629  32.267   3.389  0.00  0.00    -0.001 C 
ATOM     28  C   UNL     1     -29.870  31.461   4.835  0.00  0.00    -0.001 C 
ATOM     29  C   UNL     1     -33.830  31.108   3.242  0.00  0.00    +0.034 C 
ATOM     30  C   UNL     1     -30.172  29.433   6.249  0.00  0.00    +0.034 C 
ATOM     31  C   UNL     1     -30.339  32.388   3.903  0.00  0.00    -0.000 C 
ENDBRANCH  23  24
ENDBRANCH  22  23
ENDBRANCH  20  22
ENDBRANCH  18  20
ENDBRANCH  17  18
ENDBRANCH   5  17
TORSDOF 11
ENDMDL
