MODEL 1
REMARK VINA RESULT:      -6.4      0.000      0.000
REMARK  Name = 5280681
REMARK  6 active torsions:
REMARK  status: ('A' for Active; 'I' for Inactive)
REMARK    1  A    between atoms: C_4  and  C_12
REMARK    2  A    between atoms: C_6  and  O_22
REMARK    3  A    between atoms: C_8  and  O_24
REMARK    4  A    between atoms: C_11  and  O_26
REMARK    5  A    between atoms: C_15  and  O_18
REMARK    6  A    between atoms: C_17  and  O_20
REMARK                            x       y       z     vdW  Elec       q    Type
REMARK                         _______ _______ _______ _____ _____    ______ ____
ROOT
ATOM      1  O   UNL     1     -34.938  26.309   3.499  0.00  0.00    -0.450 OA
ATOM      2  O   UNL     1     -38.149  27.288   1.189  0.00  0.00    -0.283 OA
ATOM      3  C   UNL     1     -36.078  27.940   2.107  0.00  0.00    +0.110 A 
ATOM      4  C   UNL     1     -35.971  25.410   3.277  0.00  0.00    +0.182 A 
ATOM      5  C   UNL     1     -35.009  27.545   2.909  0.00  0.00    +0.155 A 
ATOM      6  C   UNL     1     -37.060  25.670   2.533  0.00  0.00    +0.212 A 
ATOM      7  C   UNL     1     -37.182  26.995   1.880  0.00  0.00    +0.238 A 
ATOM      8  C   UNL     1     -36.096  29.213   1.534  0.00  0.00    +0.143 C 
ATOM      9  C   UNL     1     -33.951  28.423   3.143  0.00  0.00    +0.074 C 
ATOM     10  C   UNL     1     -35.036  30.090   1.769  0.00  0.00    +0.073 C 
ATOM     11  C   UNL     1     -33.965  29.695   2.572  0.00  0.00    +0.140 C 
ENDROOT
BRANCH   4  12
ATOM     12  C   UNL     1     -35.770  24.124   3.966  0.00  0.00    +0.041 C 
ATOM     13  C   UNL     1     -35.803  22.931   3.244  0.00  0.00    +0.043 C 
ATOM     14  C   UNL     1     -35.548  24.098   5.343  0.00  0.00    +0.006 C 
ATOM     15  C   UNL     1     -35.613  21.713   3.897  0.00  0.00    +0.168 C 
ATOM     16  C   UNL     1     -35.359  22.881   5.998  0.00  0.00    +0.040 C 
ATOM     17  C   UNL     1     -35.391  21.688   5.274  0.00  0.00    +0.167 C 
BRANCH  15  18
ATOM     18  O   UNL     1     -35.647  20.556   3.180  0.00  0.00    -0.503 OA
ATOM     19  H   UNL     1     -35.241  19.783   3.520  0.00  0.00    +0.292 HD
ENDBRANCH  15  18
BRANCH  17  20
ATOM     20  O   UNL     1     -35.205  20.506   5.924  0.00  0.00    -0.503 OA
ATOM     21  H   UNL     1     -35.916  20.108   6.386  0.00  0.00    +0.292 HD
ENDBRANCH  17  20
ENDBRANCH   4  12
BRANCH   6  22
ATOM     22  O   UNL     1     -38.085  24.765   2.358  0.00  0.00    -0.465 OA
ATOM     23  C   UNL     1     -39.104  24.967   3.319  0.00  0.00    +0.253 C 
ENDBRANCH   6  22
BRANCH   8  24
ATOM     24  O   UNL     1     -37.117  29.648   0.743  0.00  0.00    -0.505 OA
ATOM     25  H   UNL     1     -37.765  29.044   0.442  0.00  0.00    +0.292 HD
ENDBRANCH   8  24
BRANCH  11  26
ATOM     26  O   UNL     1     -32.933  30.554   2.798  0.00  0.00    -0.505 OA
ATOM     27  H   UNL     1     -32.600  30.668   3.667  0.00  0.00    +0.292 HD
ENDBRANCH  11  26
TORSDOF 6
ENDMDL
MODEL 2
REMARK VINA RESULT:      -6.2      2.232      3.527
REMARK  Name = 5280681
REMARK  6 active torsions:
REMARK  status: ('A' for Active; 'I' for Inactive)
REMARK    1  A    between atoms: C_4  and  C_12
REMARK    2  A    between atoms: C_6  and  O_22
REMARK    3  A    between atoms: C_8  and  O_24
REMARK    4  A    between atoms: C_11  and  O_26
REMARK    5  A    between atoms: C_15  and  O_18
REMARK    6  A    between atoms: C_17  and  O_20
REMARK                            x       y       z     vdW  Elec       q    Type
REMARK                         _______ _______ _______ _____ _____    ______ ____
ROOT
ATOM      1  O   UNL     1     -33.400  26.247   4.958  0.00  0.00    -0.450 OA
ATOM      2  O   UNL     1     -34.128  29.133   2.173  0.00  0.00    -0.283 OA
ATOM      3  C   UNL     1     -33.091  28.535   4.205  0.00  0.00    +0.110 A 
ATOM      4  C   UNL     1     -34.157  25.986   3.825  0.00  0.00    +0.182 A 
ATOM      5  C   UNL     1     -32.881  27.506   5.121  0.00  0.00    +0.155 A 
ATOM      6  C   UNL     1     -34.441  26.891   2.872  0.00  0.00    +0.212 A 
ATOM      7  C   UNL     1     -33.905  28.267   3.010  0.00  0.00    +0.238 A 
ATOM      8  C   UNL     1     -32.538  29.799   4.425  0.00  0.00    +0.143 C 
ATOM      9  C   UNL     1     -32.116  27.735   6.264  0.00  0.00    +0.074 C 
ATOM     10  C   UNL     1     -31.773  30.025   5.570  0.00  0.00    +0.073 C 
ATOM     11  C   UNL     1     -31.562  28.996   6.487  0.00  0.00    +0.140 C 
ENDROOT
BRANCH   4  12
ATOM     12  C   UNL     1     -34.652  24.600   3.774  0.00  0.00    +0.041 C 
ATOM     13  C   UNL     1     -35.138  23.987   4.929  0.00  0.00    +0.043 C 
ATOM     14  C   UNL     1     -34.635  23.897   2.568  0.00  0.00    +0.006 C 
ATOM     15  C   UNL     1     -35.606  22.674   4.881  0.00  0.00    +0.168 C 
ATOM     16  C   UNL     1     -35.103  22.584   2.519  0.00  0.00    +0.040 C 
ATOM     17  C   UNL     1     -35.589  21.973   3.675  0.00  0.00    +0.167 C 
BRANCH  15  18
ATOM     18  O   UNL     1     -36.077  22.088   6.016  0.00  0.00    -0.503 OA
ATOM     19  H   UNL     1     -36.996  22.096   6.200  0.00  0.00    +0.292 HD
ENDBRANCH  15  18
BRANCH  17  20
ATOM     20  O   UNL     1     -36.043  20.690   3.614  0.00  0.00    -0.503 OA
ATOM     21  H   UNL     1     -36.872  20.468   3.990  0.00  0.00    +0.292 HD
ENDBRANCH  17  20
ENDBRANCH   4  12
BRANCH   6  22
ATOM     22  O   UNL     1     -35.224  26.608   1.774  0.00  0.00    -0.465 OA
ATOM     23  C   UNL     1     -36.567  26.990   2.002  0.00  0.00    +0.253 C 
ENDBRANCH   6  22
BRANCH   8  24
ATOM     24  O   UNL     1     -32.714  30.838   3.562  0.00  0.00    -0.505 OA
ATOM     25  H   UNL     1     -32.270  31.649   3.710  0.00  0.00    +0.292 HD
ENDBRANCH   8  24
BRANCH  11  26
ATOM     26  O   UNL     1     -30.814  29.222   7.603  0.00  0.00    -0.505 OA
ATOM     27  H   UNL     1     -29.891  29.060   7.588  0.00  0.00    +0.292 HD
ENDBRANCH  11  26
TORSDOF 6
ENDMDL
MODEL 3
REMARK VINA RESULT:      -6.2      2.131      3.697
REMARK  Name = 5280681
REMARK  6 active torsions:
REMARK  status: ('A' for Active; 'I' for Inactive)
REMARK    1  A    between atoms: C_4  and  C_12
REMARK    2  A    between atoms: C_6  and  O_22
REMARK    3  A    between atoms: C_8  and  O_24
REMARK    4  A    between atoms: C_11  and  O_26
REMARK    5  A    between atoms: C_15  and  O_18
REMARK    6  A    between atoms: C_17  and  O_20
REMARK                            x       y       z     vdW  Elec       q    Type
REMARK                         _______ _______ _______ _____ _____    ______ ____
ROOT
ATOM      1  O   UNL     1     -35.901  25.643   2.200  0.00  0.00    -0.450 OA
ATOM      2  O   UNL     1     -34.452  26.212   5.966  0.00  0.00    -0.283 OA
ATOM      3  C   UNL     1     -34.434  26.864   3.701  0.00  0.00    +0.110 A 
ATOM      4  C   UNL     1     -36.342  24.877   3.269  0.00  0.00    +0.182 A 
ATOM      5  C   UNL     1     -34.967  26.618   2.437  0.00  0.00    +0.155 A 
ATOM      6  C   UNL     1     -35.902  25.007   4.533  0.00  0.00    +0.212 A 
ATOM      7  C   UNL     1     -34.888  26.045   4.835  0.00  0.00    +0.238 A 
ATOM      8  C   UNL     1     -33.483  27.872   3.881  0.00  0.00    +0.143 C 
ATOM      9  C   UNL     1     -34.551  27.379   1.344  0.00  0.00    +0.074 C 
ATOM     10  C   UNL     1     -33.069  28.631   2.786  0.00  0.00    +0.073 C 
ATOM     11  C   UNL     1     -33.601  28.386   1.521  0.00  0.00    +0.140 C 
ENDROOT
BRANCH   4  12
ATOM     12  C   UNL     1     -37.342  23.868   2.878  0.00  0.00    +0.041 C 
ATOM     13  C   UNL     1     -36.950  22.552   2.634  0.00  0.00    +0.043 C 
ATOM     14  C   UNL     1     -38.684  24.230   2.750  0.00  0.00    +0.006 C 
ATOM     15  C   UNL     1     -37.897  21.598   2.263  0.00  0.00    +0.168 C 
ATOM     16  C   UNL     1     -39.632  23.277   2.378  0.00  0.00    +0.040 C 
ATOM     17  C   UNL     1     -39.238  21.960   2.136  0.00  0.00    +0.167 C 
BRANCH  15  18
ATOM     18  O   UNL     1     -37.501  20.316   2.028  0.00  0.00    -0.503 OA
ATOM     19  H   UNL     1     -36.887  19.904   2.603  0.00  0.00    +0.292 HD
ENDBRANCH  15  18
BRANCH  17  20
ATOM     20  O   UNL     1     -40.173  21.038   1.774  0.00  0.00    -0.503 OA
ATOM     21  H   UNL     1     -41.009  21.026   2.198  0.00  0.00    +0.292 HD
ENDBRANCH  17  20
ENDBRANCH   4  12
BRANCH   6  22
ATOM     22  O   UNL     1     -36.337  24.207   5.568  0.00  0.00    -0.465 OA
ATOM     23  C   UNL     1     -35.420  23.158   5.814  0.00  0.00    +0.253 C 
ENDBRANCH   6  22
BRANCH   8  24
ATOM     24  O   UNL     1     -32.931  28.152   5.095  0.00  0.00    -0.505 OA
ATOM     25  H   UNL     1     -32.372  27.526   5.510  0.00  0.00    +0.292 HD
ENDBRANCH   8  24
BRANCH  11  26
ATOM     26  O   UNL     1     -33.194  29.130   0.456  0.00  0.00    -0.505 OA
ATOM     27  H   UNL     1     -33.827  29.553  -0.091  0.00  0.00    +0.292 HD
ENDBRANCH  11  26
TORSDOF 6
ENDMDL
MODEL 4
REMARK VINA RESULT:      -6.2      2.973      6.462
REMARK  Name = 5280681
REMARK  6 active torsions:
REMARK  status: ('A' for Active; 'I' for Inactive)
REMARK    1  A    between atoms: C_4  and  C_12
REMARK    2  A    between atoms: C_6  and  O_22
REMARK    3  A    between atoms: C_8  and  O_24
REMARK    4  A    between atoms: C_11  and  O_26
REMARK    5  A    between atoms: C_15  and  O_18
REMARK    6  A    between atoms: C_17  and  O_20
REMARK                            x       y       z     vdW  Elec       q    Type
REMARK                         _______ _______ _______ _____ _____    ______ ____
ROOT
ATOM      1  O   UNL     1     -35.128  22.330   2.680  0.00  0.00    -0.450 OA
ATOM      2  O   UNL     1     -39.147  22.224   2.016  0.00  0.00    -0.283 OA
ATOM      3  C   UNL     1     -37.036  21.239   1.650  0.00  0.00    +0.110 A 
ATOM      4  C   UNL     1     -35.977  23.280   3.227  0.00  0.00    +0.182 A 
ATOM      5  C   UNL     1     -35.671  21.332   1.912  0.00  0.00    +0.155 A 
ATOM      6  C   UNL     1     -37.309  23.308   3.044  0.00  0.00    +0.212 A 
ATOM      7  C   UNL     1     -37.940  22.251   2.217  0.00  0.00    +0.238 A 
ATOM      8  C   UNL     1     -37.533  20.200   0.859  0.00  0.00    +0.143 C 
ATOM      9  C   UNL     1     -34.793  20.386   1.383  0.00  0.00    +0.074 C 
ATOM     10  C   UNL     1     -36.652  19.254   0.331  0.00  0.00    +0.073 C 
ATOM     11  C   UNL     1     -35.285  19.347   0.593  0.00  0.00    +0.140 C 
ENDROOT
BRANCH   4  12
ATOM     12  C   UNL     1     -35.266  24.292   4.028  0.00  0.00    +0.041 C 
ATOM     13  C   UNL     1     -34.242  25.045   3.453  0.00  0.00    +0.043 C 
ATOM     14  C   UNL     1     -35.616  24.497   5.363  0.00  0.00    +0.006 C 
ATOM     15  C   UNL     1     -33.569  26.002   4.211  0.00  0.00    +0.168 C 
ATOM     16  C   UNL     1     -34.942  25.454   6.122  0.00  0.00    +0.040 C 
ATOM     17  C   UNL     1     -33.919  26.207   5.545  0.00  0.00    +0.167 C 
BRANCH  15  18
ATOM     18  O   UNL     1     -32.571  26.731   3.637  0.00  0.00    -0.503 OA
ATOM     19  H   UNL     1     -32.261  27.510   4.055  0.00  0.00    +0.292 HD
ENDBRANCH  15  18
BRANCH  17  20
ATOM     20  O   UNL     1     -33.269  27.139   6.297  0.00  0.00    -0.503 OA
ATOM     21  H   UNL     1     -33.177  27.014   7.221  0.00  0.00    +0.292 HD
ENDBRANCH  17  20
ENDBRANCH   4  12
BRANCH   6  22
ATOM     22  O   UNL     1     -38.122  24.285   3.576  0.00  0.00    -0.465 OA
ATOM     23  C   UNL     1     -38.265  25.367   2.675  0.00  0.00    +0.253 C 
ENDBRANCH   6  22
BRANCH   8  24
ATOM     24  O   UNL     1     -38.858  20.063   0.572  0.00  0.00    -0.505 OA
ATOM     25  H   UNL     1     -39.192  19.236   0.287  0.00  0.00    +0.292 HD
ENDBRANCH   8  24
BRANCH  11  26
ATOM     26  O   UNL     1     -34.430  18.422   0.077  0.00  0.00    -0.505 OA
ATOM     27  H   UNL     1     -33.531  18.414   0.343  0.00  0.00    +0.292 HD
ENDBRANCH  11  26
TORSDOF 6
ENDMDL
MODEL 5
REMARK VINA RESULT:      -6.1      3.061      4.108
REMARK  Name = 5280681
REMARK  6 active torsions:
REMARK  status: ('A' for Active; 'I' for Inactive)
REMARK    1  A    between atoms: C_4  and  C_12
REMARK    2  A    between atoms: C_6  and  O_22
REMARK    3  A    between atoms: C_8  and  O_24
REMARK    4  A    between atoms: C_11  and  O_26
REMARK    5  A    between atoms: C_15  and  O_18
REMARK    6  A    between atoms: C_17  and  O_20
REMARK                            x       y       z     vdW  Elec       q    Type
REMARK                         _______ _______ _______ _____ _____    ______ ____
ROOT
ATOM      1  O   UNL     1     -34.367  24.102   2.168  0.00  0.00    -0.450 OA
ATOM      2  O   UNL     1     -34.885  25.287   6.032  0.00  0.00    -0.283 OA
ATOM      3  C   UNL     1     -33.936  25.727   3.919  0.00  0.00    +0.110 A 
ATOM      4  C   UNL     1     -35.129  23.358   3.057  0.00  0.00    +0.182 A 
ATOM      5  C   UNL     1     -33.795  25.266   2.612  0.00  0.00    +0.155 A 
ATOM      6  C   UNL     1     -35.334  23.687   4.345  0.00  0.00    +0.212 A 
ATOM      7  C   UNL     1     -34.730  24.935   4.870  0.00  0.00    +0.238 A 
ATOM      8  C   UNL     1     -33.328  26.921   4.315  0.00  0.00    +0.143 C 
ATOM      9  C   UNL     1     -33.044  25.997   1.691  0.00  0.00    +0.074 C 
ATOM     10  C   UNL     1     -32.577  27.650   3.392  0.00  0.00    +0.073 C 
ATOM     11  C   UNL     1     -32.435  27.189   2.083  0.00  0.00    +0.140 C 
ENDROOT
BRANCH   4  12
ATOM     12  C   UNL     1     -35.684  22.134   2.454  0.00  0.00    +0.041 C 
ATOM     13  C   UNL     1     -37.046  22.054   2.164  0.00  0.00    +0.043 C 
ATOM     14  C   UNL     1     -34.847  21.054   2.172  0.00  0.00    +0.006 C 
ATOM     15  C   UNL     1     -37.572  20.895   1.593  0.00  0.00    +0.168 C 
ATOM     16  C   UNL     1     -35.372  19.894   1.601  0.00  0.00    +0.040 C 
ATOM     17  C   UNL     1     -36.735  19.816   1.311  0.00  0.00    +0.167 C 
BRANCH  15  18
ATOM     18  O   UNL     1     -38.904  20.830   1.315  0.00  0.00    -0.503 OA
ATOM     19  H   UNL     1     -39.528  21.157   1.933  0.00  0.00    +0.292 HD
ENDBRANCH  15  18
BRANCH  17  20
ATOM     20  O   UNL     1     -37.236  18.678   0.754  0.00  0.00    -0.503 OA
ATOM     21  H   UNL     1     -36.977  17.840   1.085  0.00  0.00    +0.292 HD
ENDBRANCH  17  20
ENDBRANCH   4  12
BRANCH   6  22
ATOM     22  O   UNL     1     -36.070  22.909   5.212  0.00  0.00    -0.465 OA
ATOM     23  C   UNL     1     -35.227  22.050   5.957  0.00  0.00    +0.253 C 
ENDBRANCH   6  22
BRANCH   8  24
ATOM     24  O   UNL     1     -33.434  27.415   5.580  0.00  0.00    -0.505 OA
ATOM     25  H   UNL     1     -33.757  26.870   6.270  0.00  0.00    +0.292 HD
ENDBRANCH   8  24
BRANCH  11  26
ATOM     26  O   UNL     1     -31.702  27.905   1.186  0.00  0.00    -0.505 OA
ATOM     27  H   UNL     1     -31.258  27.466   0.487  0.00  0.00    +0.292 HD
ENDBRANCH  11  26
TORSDOF 6
ENDMDL
MODEL 6
REMARK VINA RESULT:      -6.0      3.587      6.532
REMARK  Name = 5280681
REMARK  6 active torsions:
REMARK  status: ('A' for Active; 'I' for Inactive)
REMARK    1  A    between atoms: C_4  and  C_12
REMARK    2  A    between atoms: C_6  and  O_22
REMARK    3  A    between atoms: C_8  and  O_24
REMARK    4  A    between atoms: C_11  and  O_26
REMARK    5  A    between atoms: C_15  and  O_18
REMARK    6  A    between atoms: C_17  and  O_20
REMARK                            x       y       z     vdW  Elec       q    Type
REMARK                         _______ _______ _______ _____ _____    ______ ____
ROOT
ATOM      1  O   UNL     1     -37.745  23.350   2.270  0.00  0.00    -0.450 OA
ATOM      2  O   UNL     1     -35.180  20.608   3.856  0.00  0.00    -0.283 OA
ATOM      3  C   UNL     1     -36.083  22.785   3.948  0.00  0.00    +0.110 A 
ATOM      4  C   UNL     1     -37.634  22.072   1.742  0.00  0.00    +0.182 A 
ATOM      5  C   UNL     1     -36.977  23.676   3.358  0.00  0.00    +0.155 A 
ATOM      6  C   UNL     1     -36.805  21.122   2.212  0.00  0.00    +0.212 A 
ATOM      7  C   UNL     1     -35.952  21.433   3.384  0.00  0.00    +0.238 A 
ATOM      8  C   UNL     1     -35.326  23.174   5.055  0.00  0.00    +0.143 C 
ATOM      9  C   UNL     1     -37.117  24.965   3.872  0.00  0.00    +0.074 C 
ATOM     10  C   UNL     1     -35.468  24.464   5.567  0.00  0.00    +0.073 C 
ATOM     11  C   UNL     1     -36.363  25.358   4.977  0.00  0.00    +0.140 C 
ENDROOT
BRANCH   4  12
ATOM     12  C   UNL     1     -38.512  21.853   0.580  0.00  0.00    +0.041 C 
ATOM     13  C   UNL     1     -39.780  21.299   0.755  0.00  0.00    +0.043 C 
ATOM     14  C   UNL     1     -38.074  22.200  -0.699  0.00  0.00    +0.006 C 
ATOM     15  C   UNL     1     -40.610  21.091  -0.346  0.00  0.00    +0.168 C 
ATOM     16  C   UNL     1     -38.904  21.992  -1.801  0.00  0.00    +0.040 C 
ATOM     17  C   UNL     1     -40.173  21.439  -1.624  0.00  0.00    +0.167 C 
BRANCH  15  18
ATOM     18  O   UNL     1     -41.846  20.550  -0.161  0.00  0.00    -0.503 OA
ATOM     19  H   UNL     1     -41.992  19.643  -0.344  0.00  0.00    +0.292 HD
ENDBRANCH  15  18
BRANCH  17  20
ATOM     20  O   UNL     1     -40.974  21.241  -2.708  0.00  0.00    -0.503 OA
ATOM     21  H   UNL     1     -41.763  21.737  -2.804  0.00  0.00    +0.292 HD
ENDBRANCH  17  20
ENDBRANCH   4  12
BRANCH   6  22
ATOM     22  O   UNL     1     -36.696  19.871   1.644  0.00  0.00    -0.465 OA
ATOM     23  C   UNL     1     -35.612  19.823   0.736  0.00  0.00    +0.253 C 
ENDBRANCH   6  22
BRANCH   8  24
ATOM     24  O   UNL     1     -34.438  22.342   5.668  0.00  0.00    -0.505 OA
ATOM     25  H   UNL     1     -33.782  21.904   5.163  0.00  0.00    +0.292 HD
ENDBRANCH   8  24
BRANCH  11  26
ATOM     26  O   UNL     1     -36.498  26.616   5.481  0.00  0.00    -0.505 OA
ATOM     27  H   UNL     1     -36.285  27.359   4.951  0.00  0.00    +0.292 HD
ENDBRANCH  11  26
TORSDOF 6
ENDMDL
MODEL 7
REMARK VINA RESULT:      -6.0      3.334      7.357
REMARK  Name = 5280681
REMARK  6 active torsions:
REMARK  status: ('A' for Active; 'I' for Inactive)
REMARK    1  A    between atoms: C_4  and  C_12
REMARK    2  A    between atoms: C_6  and  O_22
REMARK    3  A    between atoms: C_8  and  O_24
REMARK    4  A    between atoms: C_11  and  O_26
REMARK    5  A    between atoms: C_15  and  O_18
REMARK    6  A    between atoms: C_17  and  O_20
REMARK                            x       y       z     vdW  Elec       q    Type
REMARK                         _______ _______ _______ _____ _____    ______ ____
ROOT
ATOM      1  O   UNL     1     -35.067  21.162   2.276  0.00  0.00    -0.450 OA
ATOM      2  O   UNL     1     -38.031  19.914  -0.227  0.00  0.00    -0.283 OA
ATOM      3  C   UNL     1     -35.877  19.544   0.657  0.00  0.00    +0.110 A 
ATOM      4  C   UNL     1     -36.262  21.858   2.166  0.00  0.00    +0.182 A 
ATOM      5  C   UNL     1     -34.902  20.024   1.529  0.00  0.00    +0.155 A 
ATOM      6  C   UNL     1     -37.277  21.506   1.357  0.00  0.00    +0.212 A 
ATOM      7  C   UNL     1     -37.140  20.285   0.527  0.00  0.00    +0.238 A 
ATOM      8  C   UNL     1     -35.652  18.378  -0.079  0.00  0.00    +0.143 C 
ATOM      9  C   UNL     1     -33.694  19.341   1.669  0.00  0.00    +0.074 C 
ATOM     10  C   UNL     1     -34.443  17.697   0.063  0.00  0.00    +0.073 C 
ATOM     11  C   UNL     1     -33.466  18.177   0.935  0.00  0.00    +0.140 C 
ENDROOT
BRANCH   4  12
ATOM     12  C   UNL     1     -36.308  23.057   3.019  0.00  0.00    +0.041 C 
ATOM     13  C   UNL     1     -36.744  24.273   2.493  0.00  0.00    +0.043 C 
ATOM     14  C   UNL     1     -35.914  22.978   4.356  0.00  0.00    +0.006 C 
ATOM     15  C   UNL     1     -36.786  25.409   3.302  0.00  0.00    +0.168 C 
ATOM     16  C   UNL     1     -35.956  24.113   5.165  0.00  0.00    +0.040 C 
ATOM     17  C   UNL     1     -36.394  25.329   4.638  0.00  0.00    +0.167 C 
BRANCH  15  18
ATOM     18  O   UNL     1     -37.214  26.591   2.775  0.00  0.00    -0.503 OA
ATOM     19  H   UNL     1     -37.602  27.237   3.331  0.00  0.00    +0.292 HD
ENDBRANCH  15  18
BRANCH  17  20
ATOM     20  O   UNL     1     -36.431  26.431   5.437  0.00  0.00    -0.503 OA
ATOM     21  H   UNL     1     -36.202  26.360   6.344  0.00  0.00    +0.292 HD
ENDBRANCH  17  20
ENDBRANCH   4  12
BRANCH   6  22
ATOM     22  O   UNL     1     -38.439  22.238   1.246  0.00  0.00    -0.465 OA
ATOM     23  C   UNL     1     -39.462  21.683   2.050  0.00  0.00    +0.253 C 
ENDBRANCH   6  22
BRANCH   8  24
ATOM     24  O   UNL     1     -36.572  17.867  -0.945  0.00  0.00    -0.505 OA
ATOM     25  H   UNL     1     -36.291  17.466  -1.743  0.00  0.00    +0.292 HD
ENDBRANCH   8  24
BRANCH  11  26
ATOM     26  O   UNL     1     -32.287  17.508   1.070  0.00  0.00    -0.505 OA
ATOM     27  H   UNL     1     -32.280  16.638   1.418  0.00  0.00    +0.292 HD
ENDBRANCH  11  26
TORSDOF 6
ENDMDL
MODEL 8
REMARK VINA RESULT:      -5.9      3.749      6.030
REMARK  Name = 5280681
REMARK  6 active torsions:
REMARK  status: ('A' for Active; 'I' for Inactive)
REMARK    1  A    between atoms: C_4  and  C_12
REMARK    2  A    between atoms: C_6  and  O_22
REMARK    3  A    between atoms: C_8  and  O_24
REMARK    4  A    between atoms: C_11  and  O_26
REMARK    5  A    between atoms: C_15  and  O_18
REMARK    6  A    between atoms: C_17  and  O_20
REMARK                            x       y       z     vdW  Elec       q    Type
REMARK                         _______ _______ _______ _____ _____    ______ ____
ROOT
ATOM      1  O   UNL     1     -35.319  22.351   2.024  0.00  0.00    -0.450 OA
ATOM      2  O   UNL     1     -38.922  20.895   0.796  0.00  0.00    -0.283 OA
ATOM      3  C   UNL     1     -37.740  22.539   2.004  0.00  0.00    +0.110 A 
ATOM      4  C   UNL     1     -35.409  21.224   1.220  0.00  0.00    +0.182 A 
ATOM      5  C   UNL     1     -36.478  22.984   2.393  0.00  0.00    +0.155 A 
ATOM      6  C   UNL     1     -36.563  20.688   0.785  0.00  0.00    +0.212 A 
ATOM      7  C   UNL     1     -37.841  21.337   1.163  0.00  0.00    +0.238 A 
ATOM      8  C   UNL     1     -38.886  23.225   2.412  0.00  0.00    +0.143 C 
ATOM      9  C   UNL     1     -36.355  24.120   3.193  0.00  0.00    +0.074 C 
ATOM     10  C   UNL     1     -38.761  24.361   3.213  0.00  0.00    +0.073 C 
ATOM     11  C   UNL     1     -37.498  24.808   3.602  0.00  0.00    +0.140 C 
ENDROOT
BRANCH   4  12
ATOM     12  C   UNL     1     -34.094  20.643   0.898  0.00  0.00    +0.041 C 
ATOM     13  C   UNL     1     -33.727  19.407   1.431  0.00  0.00    +0.043 C 
ATOM     14  C   UNL     1     -33.214  21.329   0.061  0.00  0.00    +0.006 C 
ATOM     15  C   UNL     1     -32.482  18.857   1.127  0.00  0.00    +0.168 C 
ATOM     16  C   UNL     1     -31.968  20.780  -0.243  0.00  0.00    +0.040 C 
ATOM     17  C   UNL     1     -31.603  19.543   0.289  0.00  0.00    +0.167 C 
BRANCH  15  18
ATOM     18  O   UNL     1     -32.136  17.649   1.654  0.00  0.00    -0.503 OA
ATOM     19  H   UNL     1     -32.363  16.860   1.204  0.00  0.00    +0.292 HD
ENDBRANCH  15  18
BRANCH  17  20
ATOM     20  O   UNL     1     -30.384  19.017  -0.015  0.00  0.00    -0.503 OA
ATOM     21  H   UNL     1     -29.861  19.405  -0.690  0.00  0.00    +0.292 HD
ENDBRANCH  17  20
ENDBRANCH   4  12
BRANCH   6  22
ATOM     22  O   UNL     1     -36.619  19.547   0.013  0.00  0.00    -0.465 OA
ATOM     23  C   UNL     1     -36.633  19.871  -1.364  0.00  0.00    +0.253 C 
ENDBRANCH   6  22
BRANCH   8  24
ATOM     24  O   UNL     1     -40.143  22.831   2.061  0.00  0.00    -0.505 OA
ATOM     25  H   UNL     1     -40.609  22.222   2.598  0.00  0.00    +0.292 HD
ENDBRANCH   8  24
BRANCH  11  26
ATOM     26  O   UNL     1     -37.380  25.917   4.383  0.00  0.00    -0.505 OA
ATOM     27  H   UNL     1     -37.981  26.629   4.279  0.00  0.00    +0.292 HD
ENDBRANCH  11  26
TORSDOF 6
ENDMDL
MODEL 9
REMARK VINA RESULT:      -5.9      4.231      8.288
REMARK  Name = 5280681
REMARK  6 active torsions:
REMARK  status: ('A' for Active; 'I' for Inactive)
REMARK    1  A    between atoms: C_4  and  C_12
REMARK    2  A    between atoms: C_6  and  O_22
REMARK    3  A    between atoms: C_8  and  O_24
REMARK    4  A    between atoms: C_11  and  O_26
REMARK    5  A    between atoms: C_15  and  O_18
REMARK    6  A    between atoms: C_17  and  O_20
REMARK                            x       y       z     vdW  Elec       q    Type
REMARK                         _______ _______ _______ _____ _____    ______ ____
ROOT
ATOM      1  O   UNL     1     -33.963  19.787   1.870  0.00  0.00    -0.450 OA
ATOM      2  O   UNL     1     -36.852  18.531  -0.715  0.00  0.00    -0.283 OA
ATOM      3  C   UNL     1     -34.684  18.223   0.159  0.00  0.00    +0.110 A 
ATOM      4  C   UNL     1     -35.192  20.426   1.793  0.00  0.00    +0.182 A 
ATOM      5  C   UNL     1     -33.737  18.703   1.062  0.00  0.00    +0.155 A 
ATOM      6  C   UNL     1     -36.185  20.068   0.959  0.00  0.00    +0.212 A 
ATOM      7  C   UNL     1     -35.984  18.904   0.063  0.00  0.00    +0.238 A 
ATOM      8  C   UNL     1     -34.397  17.114  -0.640  0.00  0.00    +0.143 C 
ATOM      9  C   UNL     1     -32.496  18.076   1.170  0.00  0.00    +0.074 C 
ATOM     10  C   UNL     1     -33.154  16.488  -0.530  0.00  0.00    +0.073 C 
ATOM     11  C   UNL     1     -32.206  16.968   0.374  0.00  0.00    +0.140 C 
ENDROOT
BRANCH   4  12
ATOM     12  C   UNL     1     -35.302  21.571   2.712  0.00  0.00    +0.041 C 
ATOM     13  C   UNL     1     -35.646  21.365   4.048  0.00  0.00    +0.043 C 
ATOM     14  C   UNL     1     -35.064  22.865   2.245  0.00  0.00    +0.006 C 
ATOM     15  C   UNL     1     -35.752  22.451   4.917  0.00  0.00    +0.168 C 
ATOM     16  C   UNL     1     -35.169  23.951   3.115  0.00  0.00    +0.040 C 
ATOM     17  C   UNL     1     -35.512  23.743   4.451  0.00  0.00    +0.167 C 
BRANCH  15  18
ATOM     18  O   UNL     1     -36.088  22.236   6.220  0.00  0.00    -0.503 OA
ATOM     19  H   UNL     1     -35.443  22.336   6.892  0.00  0.00    +0.292 HD
ENDBRANCH  15  18
BRANCH  17  20
ATOM     20  O   UNL     1     -35.612  24.812   5.290  0.00  0.00    -0.503 OA
ATOM     21  H   UNL     1     -34.840  25.272   5.557  0.00  0.00    +0.292 HD
ENDBRANCH  17  20
ENDBRANCH   4  12
BRANCH   6  22
ATOM     22  O   UNL     1     -37.384  20.744   0.883  0.00  0.00    -0.465 OA
ATOM     23  C   UNL     1     -37.395  21.627  -0.222  0.00  0.00    +0.253 C 
ENDBRANCH   6  22
BRANCH   8  24
ATOM     24  O   UNL     1     -35.287  16.605  -1.538  0.00  0.00    -0.505 OA
ATOM     25  H   UNL     1     -36.168  16.922  -1.554  0.00  0.00    +0.292 HD
ENDBRANCH   8  24
BRANCH  11  26
ATOM     26  O   UNL     1     -30.995  16.354   0.478  0.00  0.00    -0.505 OA
ATOM     27  H   UNL     1     -30.768  15.897   1.263  0.00  0.00    +0.292 HD
ENDBRANCH  11  26
TORSDOF 6
ENDMDL
