MODEL 1
REMARK VINA RESULT:      -5.6      0.000      0.000
REMARK  Name = 5276375
REMARK  12 active torsions:
REMARK  status: ('A' for Active; 'I' for Inactive)
REMARK    1  A    between atoms: C_4  and  C_21
REMARK    2  A    between atoms: C_5  and  O_14
REMARK    3  A    between atoms: C_6  and  O_16
REMARK    4  A    between atoms: C_9  and  C_26
REMARK    5  A    between atoms: C_12  and  O_18
REMARK    6  A    between atoms: C_21  and  C_22
REMARK    7  A    between atoms: C_23  and  O_24
REMARK    8  A    between atoms: C_26  and  C_28
REMARK    9  A    between atoms: C_28  and  C_29
REMARK   10  A    between atoms: C_29  and  C_30
REMARK   11  A    between atoms: C_30  and  C_31
REMARK   12  A    between atoms: C_31  and  C_32
REMARK                            x       y       z     vdW  Elec       q    Type
REMARK                         _______ _______ _______ _____ _____    ______ ____
ROOT
ATOM      1  O   UNL     1     -40.231  21.469   1.725  0.00  0.00    -0.288 OA
ATOM      2  C   UNL     1     -38.916  24.855   1.547  0.00  0.00    +0.047 C 
ATOM      3  C   UNL     1     -40.007  23.855   1.979  0.00  0.00    +0.095 C 
ATOM      4  C   UNL     1     -37.611  24.661   2.396  0.00  0.00    +0.076 C 
ATOM      5  C   UNL     1     -39.496  26.296   1.563  0.00  0.00    +0.112 C 
ATOM      6  C   UNL     1     -41.281  23.983   1.116  0.00  0.00    +0.118 C 
ATOM      7  C   UNL     1     -41.837  25.416   1.172  0.00  0.00    +0.030 C 
ATOM      8  C   UNL     1     -40.771  26.418   0.726  0.00  0.00    +0.032 C 
ATOM      9  C   UNL     1     -37.198  23.182   2.495  0.00  0.00    -0.002 C 
ATOM     10  C   UNL     1     -39.486  22.427   1.938  0.00  0.00    +0.208 C 
ATOM     11  C   UNL     1     -37.723  25.267   3.805  0.00  0.00    +0.012 C 
ATOM     12  C   UNL     1     -38.051  22.167   2.240  0.00  0.00    +0.161 C 
ATOM     13  C   UNL     1     -43.104  25.582   0.332  0.00  0.00    +0.003 C 
ENDROOT
BRANCH   5  14
ATOM     14  O   UNL     1     -38.566  27.236   1.031  0.00  0.00    -0.384 OA
ATOM     15  H   UNL     1     -37.662  26.939   1.219  0.00  0.00    +0.210 HD
ENDBRANCH   5  14
BRANCH   6  16
ATOM     16  O   UNL     1     -40.966  23.629  -0.232  0.00  0.00    -0.384 OA
ATOM     17  H   UNL     1     -41.048  24.412  -0.799  0.00  0.00    +0.210 HD
ENDBRANCH   6  16
BRANCH  12  18
ATOM     18  O   UNL     1     -37.699  20.832   2.249  0.00  0.00    -0.503 OA
ATOM     19  H   UNL     1     -38.299  20.193   2.580  0.00  0.00    +0.292 HD
ENDBRANCH  12  18
BRANCH   4  21
ATOM     20  O   UNL     1     -36.324  25.156   0.442  0.00  0.00    -0.291 OA
ATOM     21  C   UNL     1     -36.481  25.335   1.648  0.00  0.00    +0.179 C 
BRANCH  21  22
ATOM     22  C   UNL     1     -35.570  26.200   2.444  0.00  0.00    +0.077 C 
ATOM     23  C   UNL     1     -35.283  27.435   2.028  0.00  0.00    +0.170 C 
BRANCH  23  24
ATOM     24  O   UNL     1     -35.795  27.964   0.875  0.00  0.00    -0.503 OA
ATOM     25  H   UNL     1     -36.497  27.531   0.432  0.00  0.00    +0.292 HD
ENDBRANCH  23  24
ENDBRANCH  21  22
ENDBRANCH   4  21
BRANCH   9  26
ATOM     26  C   UNL     1     -35.767  22.899   2.916  0.00  0.00    +0.022 C 
ATOM     27  C   UNL     1     -35.069  22.140   1.796  0.00  0.00    +0.004 C 
BRANCH  26  28
ATOM     28  C   UNL     1     -35.708  22.116   4.232  0.00  0.00    +0.004 C 
BRANCH  28  29
ATOM     29  C   UNL     1     -35.410  22.999   5.451  0.00  0.00    +0.000 C 
BRANCH  29  30
ATOM     30  C   UNL     1     -34.398  24.094   5.105  0.00  0.00    +0.000 C 
BRANCH  30  31
ATOM     31  C   UNL     1     -34.640  25.408   5.854  0.00  0.00    +0.000 C 
BRANCH  31  32
ATOM     32  C   UNL     1     -33.633  26.528   5.578  0.00  0.00    +0.000 C 
ATOM     33  C   UNL     1     -32.877  26.984   6.814  0.00  0.00    +0.000 C 
ENDBRANCH  31  32
ENDBRANCH  30  31
ENDBRANCH  29  30
ENDBRANCH  28  29
ENDBRANCH  26  28
ENDBRANCH   9  26
TORSDOF 12
ENDMDL
MODEL 2
REMARK VINA RESULT:      -5.6      2.185      5.639
REMARK  Name = 5276375
REMARK  12 active torsions:
REMARK  status: ('A' for Active; 'I' for Inactive)
REMARK    1  A    between atoms: C_4  and  C_21
REMARK    2  A    between atoms: C_5  and  O_14
REMARK    3  A    between atoms: C_6  and  O_16
REMARK    4  A    between atoms: C_9  and  C_26
REMARK    5  A    between atoms: C_12  and  O_18
REMARK    6  A    between atoms: C_21  and  C_22
REMARK    7  A    between atoms: C_23  and  O_24
REMARK    8  A    between atoms: C_26  and  C_28
REMARK    9  A    between atoms: C_28  and  C_29
REMARK   10  A    between atoms: C_29  and  C_30
REMARK   11  A    between atoms: C_30  and  C_31
REMARK   12  A    between atoms: C_31  and  C_32
REMARK                            x       y       z     vdW  Elec       q    Type
REMARK                         _______ _______ _______ _____ _____    ______ ____
ROOT
ATOM      1  O   UNL     1     -35.176  21.205   4.373  0.00  0.00    -0.288 OA
ATOM      2  C   UNL     1     -36.470  24.297   2.962  0.00  0.00    +0.047 C 
ATOM      3  C   UNL     1     -35.299  23.445   3.494  0.00  0.00    +0.095 C 
ATOM      4  C   UNL     1     -36.981  23.748   1.584  0.00  0.00    +0.076 C 
ATOM      5  C   UNL     1     -36.061  25.796   2.956  0.00  0.00    +0.112 C 
ATOM      6  C   UNL     1     -34.818  23.927   4.880  0.00  0.00    +0.118 C 
ATOM      7  C   UNL     1     -34.403  25.406   4.830  0.00  0.00    +0.030 C 
ATOM      8  C   UNL     1     -35.562  26.267   4.324  0.00  0.00    +0.032 C 
ATOM      9  C   UNL     1     -37.186  22.224   1.607  0.00  0.00    -0.002 C 
ATOM     10  C   UNL     1     -35.678  21.973   3.550  0.00  0.00    +0.208 C 
ATOM     11  C   UNL     1     -36.061  24.134   0.413  0.00  0.00    +0.012 C 
ATOM     12  C   UNL     1     -36.622  21.425   2.537  0.00  0.00    +0.161 C 
ATOM     13  C   UNL     1     -33.916  25.920   6.186  0.00  0.00    +0.003 C 
ENDROOT
BRANCH   5  14
ATOM     14  O   UNL     1     -37.161  26.633   2.610  0.00  0.00    -0.384 OA
ATOM     15  H   UNL     1     -37.851  26.101   2.184  0.00  0.00    +0.210 HD
ENDBRANCH   5  14
BRANCH   6  16
ATOM     16  O   UNL     1     -35.873  23.741   5.826  0.00  0.00    -0.384 OA
ATOM     17  H   UNL     1     -36.074  22.795   5.904  0.00  0.00    +0.210 HD
ENDBRANCH   6  16
BRANCH  12  18
ATOM     18  O   UNL     1     -36.840  20.065   2.633  0.00  0.00    -0.503 OA
ATOM     19  H   UNL     1     -36.162  19.504   2.957  0.00  0.00    +0.292 HD
ENDBRANCH  12  18
BRANCH   4  21
ATOM     20  O   UNL     1     -38.616  24.963   0.331  0.00  0.00    -0.291 OA
ATOM     21  C   UNL     1     -38.360  24.327   1.351  0.00  0.00    +0.179 C 
BRANCH  21  22
ATOM     22  C   UNL     1     -39.373  24.102   2.417  0.00  0.00    +0.077 C 
ATOM     23  C   UNL     1     -40.075  25.127   2.902  0.00  0.00    +0.170 C 
BRANCH  23  24
ATOM     24  O   UNL     1     -39.911  26.412   2.460  0.00  0.00    -0.503 OA
ATOM     25  H   UNL     1     -40.657  26.922   2.215  0.00  0.00    +0.292 HD
ENDBRANCH  23  24
ENDBRANCH  21  22
ENDBRANCH   4  21
BRANCH   9  26
ATOM     26  C   UNL     1     -38.054  21.634   0.509  0.00  0.00    +0.022 C 
ATOM     27  C   UNL     1     -39.332  21.092   1.134  0.00  0.00    +0.004 C 
BRANCH  26  28
ATOM     28  C   UNL     1     -37.315  20.543  -0.272  0.00  0.00    +0.004 C 
BRANCH  28  29
ATOM     29  C   UNL     1     -36.348  21.098  -1.326  0.00  0.00    +0.000 C 
BRANCH  29  30
ATOM     30  C   UNL     1     -34.964  20.457  -1.197  0.00  0.00    +0.000 C 
BRANCH  30  31
ATOM     31  C   UNL     1     -34.082  21.120  -0.134  0.00  0.00    +0.000 C 
BRANCH  31  32
ATOM     32  C   UNL     1     -33.058  20.206   0.546  0.00  0.00    +0.000 C 
ATOM     33  C   UNL     1     -33.680  19.195   1.494  0.00  0.00    +0.000 C 
ENDBRANCH  31  32
ENDBRANCH  30  31
ENDBRANCH  29  30
ENDBRANCH  28  29
ENDBRANCH  26  28
ENDBRANCH   9  26
TORSDOF 12
ENDMDL
MODEL 3
REMARK VINA RESULT:      -5.4      2.736      6.578
REMARK  Name = 5276375
REMARK  12 active torsions:
REMARK  status: ('A' for Active; 'I' for Inactive)
REMARK    1  A    between atoms: C_4  and  C_21
REMARK    2  A    between atoms: C_5  and  O_14
REMARK    3  A    between atoms: C_6  and  O_16
REMARK    4  A    between atoms: C_9  and  C_26
REMARK    5  A    between atoms: C_12  and  O_18
REMARK    6  A    between atoms: C_21  and  C_22
REMARK    7  A    between atoms: C_23  and  O_24
REMARK    8  A    between atoms: C_26  and  C_28
REMARK    9  A    between atoms: C_28  and  C_29
REMARK   10  A    between atoms: C_29  and  C_30
REMARK   11  A    between atoms: C_30  and  C_31
REMARK   12  A    between atoms: C_31  and  C_32
REMARK                            x       y       z     vdW  Elec       q    Type
REMARK                         _______ _______ _______ _____ _____    ______ ____
ROOT
ATOM      1  O   UNL     1     -32.669  24.493   0.215  0.00  0.00    -0.288 OA
ATOM      2  C   UNL     1     -34.122  25.599   3.360  0.00  0.00    +0.047 C 
ATOM      3  C   UNL     1     -33.605  25.894   1.937  0.00  0.00    +0.095 C 
ATOM      4  C   UNL     1     -35.466  24.793   3.312  0.00  0.00    +0.076 C 
ATOM      5  C   UNL     1     -34.183  26.921   4.175  0.00  0.00    +0.112 C 
ATOM      6  C   UNL     1     -32.250  26.634   1.957  0.00  0.00    +0.118 C 
ATOM      7  C   UNL     1     -32.354  27.944   2.754  0.00  0.00    +0.030 C 
ATOM      8  C   UNL     1     -32.845  27.665   4.176  0.00  0.00    +0.032 C 
ATOM      9  C   UNL     1     -35.395  23.604   2.339  0.00  0.00    -0.002 C 
ATOM     10  C   UNL     1     -33.495  24.615   1.121  0.00  0.00    +0.208 C 
ATOM     11  C   UNL     1     -36.677  25.677   2.967  0.00  0.00    +0.012 C 
ATOM     12  C   UNL     1     -34.461  23.509   1.368  0.00  0.00    +0.161 C 
ATOM     13  C   UNL     1     -31.029  28.708   2.793  0.00  0.00    +0.003 C 
ENDROOT
BRANCH   5  14
ATOM     14  O   UNL     1     -34.515  26.675   5.539  0.00  0.00    -0.384 OA
ATOM     15  H   UNL     1     -33.869  26.062   5.923  0.00  0.00    +0.210 HD
ENDBRANCH   5  14
BRANCH   6  16
ATOM     16  O   UNL     1     -31.264  25.778   2.540  0.00  0.00    -0.384 OA
ATOM     17  H   UNL     1     -30.963  25.135   1.879  0.00  0.00    +0.210 HD
ENDBRANCH   6  16
BRANCH  12  18
ATOM     18  O   UNL     1     -34.321  22.427   0.524  0.00  0.00    -0.503 OA
ATOM     19  H   UNL     1     -33.620  21.818   0.655  0.00  0.00    +0.292 HD
ENDBRANCH  12  18
BRANCH   4  21
ATOM     20  O   UNL     1     -36.678  24.411   5.337  0.00  0.00    -0.291 OA
ATOM     21  C   UNL     1     -35.670  24.172   4.677  0.00  0.00    +0.179 C 
BRANCH  21  22
ATOM     22  C   UNL     1     -34.589  23.281   5.178  0.00  0.00    +0.077 C 
ATOM     23  C   UNL     1     -34.886  22.236   5.953  0.00  0.00    +0.170 C 
BRANCH  23  24
ATOM     24  O   UNL     1     -36.168  21.929   6.322  0.00  0.00    -0.503 OA
ATOM     25  H   UNL     1     -36.594  22.425   6.993  0.00  0.00    +0.292 HD
ENDBRANCH  23  24
ENDBRANCH  21  22
ENDBRANCH   4  21
BRANCH   9  26
ATOM     26  C   UNL     1     -36.447  22.521   2.504  0.00  0.00    +0.022 C 
ATOM     27  C   UNL     1     -35.753  21.166   2.538  0.00  0.00    +0.004 C 
BRANCH  26  28
ATOM     28  C   UNL     1     -37.495  22.576   1.388  0.00  0.00    +0.004 C 
BRANCH  28  29
ATOM     29  C   UNL     1     -38.890  22.125   1.842  0.00  0.00    +0.000 C 
BRANCH  29  30
ATOM     30  C   UNL     1     -39.757  23.325   2.234  0.00  0.00    +0.000 C 
BRANCH  30  31
ATOM     31  C   UNL     1     -39.904  24.362   1.117  0.00  0.00    +0.000 C 
BRANCH  31  32
ATOM     32  C   UNL     1     -40.220  25.790   1.571  0.00  0.00    +0.000 C 
ATOM     33  C   UNL     1     -40.537  25.900   3.053  0.00  0.00    +0.000 C 
ENDBRANCH  31  32
ENDBRANCH  30  31
ENDBRANCH  29  30
ENDBRANCH  28  29
ENDBRANCH  26  28
ENDBRANCH   9  26
TORSDOF 12
ENDMDL
MODEL 4
REMARK VINA RESULT:      -5.3      2.338      5.698
REMARK  Name = 5276375
REMARK  12 active torsions:
REMARK  status: ('A' for Active; 'I' for Inactive)
REMARK    1  A    between atoms: C_4  and  C_21
REMARK    2  A    between atoms: C_5  and  O_14
REMARK    3  A    between atoms: C_6  and  O_16
REMARK    4  A    between atoms: C_9  and  C_26
REMARK    5  A    between atoms: C_12  and  O_18
REMARK    6  A    between atoms: C_21  and  C_22
REMARK    7  A    between atoms: C_23  and  O_24
REMARK    8  A    between atoms: C_26  and  C_28
REMARK    9  A    between atoms: C_28  and  C_29
REMARK   10  A    between atoms: C_29  and  C_30
REMARK   11  A    between atoms: C_30  and  C_31
REMARK   12  A    between atoms: C_31  and  C_32
REMARK                            x       y       z     vdW  Elec       q    Type
REMARK                         _______ _______ _______ _____ _____    ______ ____
ROOT
ATOM      1  O   UNL     1     -32.997  26.488   3.819  0.00  0.00    -0.288 OA
ATOM      2  C   UNL     1     -36.334  26.213   2.402  0.00  0.00    +0.047 C 
ATOM      3  C   UNL     1     -34.843  26.587   2.275  0.00  0.00    +0.095 C 
ATOM      4  C   UNL     1     -36.516  24.657   2.491  0.00  0.00    +0.076 C 
ATOM      5  C   UNL     1     -37.142  26.900   1.266  0.00  0.00    +0.112 C 
ATOM      6  C   UNL     1     -34.633  28.116   2.249  0.00  0.00    +0.118 C 
ATOM      7  C   UNL     1     -35.429  28.758   1.101  0.00  0.00    +0.030 C 
ATOM      8  C   UNL     1     -36.915  28.413   1.226  0.00  0.00    +0.032 C 
ATOM      9  C   UNL     1     -35.551  24.017   3.504  0.00  0.00    -0.002 C 
ATOM     10  C   UNL     1     -34.027  25.962   3.396  0.00  0.00    +0.208 C 
ATOM     11  C   UNL     1     -36.374  23.964   1.125  0.00  0.00    +0.012 C 
ATOM     12  C   UNL     1     -34.438  24.640   3.946  0.00  0.00    +0.161 C 
ATOM     13  C   UNL     1     -35.242  30.275   1.040  0.00  0.00    +0.003 C 
ENDROOT
BRANCH   5  14
ATOM     14  O   UNL     1     -38.542  26.701   1.431  0.00  0.00    -0.384 OA
ATOM     15  H   UNL     1     -38.724  26.414   2.339  0.00  0.00    +0.210 HD
ENDBRANCH   5  14
BRANCH   6  16
ATOM     16  O   UNL     1     -35.047  28.662   3.503  0.00  0.00    -0.384 OA
ATOM     17  H   UNL     1     -34.343  29.229   3.857  0.00  0.00    +0.210 HD
ENDBRANCH   6  16
BRANCH  12  18
ATOM     18  O   UNL     1     -33.587  24.130   4.906  0.00  0.00    -0.503 OA
ATOM     19  H   UNL     1     -33.560  24.515   5.760  0.00  0.00    +0.292 HD
ENDBRANCH  12  18
BRANCH   4  21
ATOM     20  O   UNL     1     -38.330  25.036   4.002  0.00  0.00    -0.291 OA
ATOM     21  C   UNL     1     -37.899  24.394   3.047  0.00  0.00    +0.179 C 
BRANCH  21  22
ATOM     22  C   UNL     1     -38.692  23.319   2.394  0.00  0.00    +0.077 C 
ATOM     23  C   UNL     1     -39.954  23.545   2.025  0.00  0.00    +0.170 C 
BRANCH  23  24
ATOM     24  O   UNL     1     -40.578  24.748   2.220  0.00  0.00    -0.503 OA
ATOM     25  H   UNL     1     -40.831  25.269   1.485  0.00  0.00    +0.292 HD
ENDBRANCH  23  24
ENDBRANCH  21  22
ENDBRANCH   4  21
BRANCH   9  26
ATOM     26  C   UNL     1     -35.895  22.619   3.987  0.00  0.00    +0.022 C 
ATOM     27  C   UNL     1     -35.627  22.540   5.483  0.00  0.00    +0.004 C 
BRANCH  26  28
ATOM     28  C   UNL     1     -35.105  21.548   3.228  0.00  0.00    +0.004 C 
BRANCH  28  29
ATOM     29  C   UNL     1     -35.999  20.555   2.472  0.00  0.00    +0.000 C 
BRANCH  29  30
ATOM     30  C   UNL     1     -35.205  19.803   1.401  0.00  0.00    +0.000 C 
BRANCH  30  31
ATOM     31  C   UNL     1     -33.982  20.574   0.894  0.00  0.00    +0.000 C 
BRANCH  31  32
ATOM     32  C   UNL     1     -32.704  19.751   0.715  0.00  0.00    +0.000 C 
ATOM     33  C   UNL     1     -32.777  18.370   1.343  0.00  0.00    +0.000 C 
ENDBRANCH  31  32
ENDBRANCH  30  31
ENDBRANCH  29  30
ENDBRANCH  28  29
ENDBRANCH  26  28
ENDBRANCH   9  26
TORSDOF 12
ENDMDL
MODEL 5
REMARK VINA RESULT:      -5.2      2.174      5.085
REMARK  Name = 5276375
REMARK  12 active torsions:
REMARK  status: ('A' for Active; 'I' for Inactive)
REMARK    1  A    between atoms: C_4  and  C_21
REMARK    2  A    between atoms: C_5  and  O_14
REMARK    3  A    between atoms: C_6  and  O_16
REMARK    4  A    between atoms: C_9  and  C_26
REMARK    5  A    between atoms: C_12  and  O_18
REMARK    6  A    between atoms: C_21  and  C_22
REMARK    7  A    between atoms: C_23  and  O_24
REMARK    8  A    between atoms: C_26  and  C_28
REMARK    9  A    between atoms: C_28  and  C_29
REMARK   10  A    between atoms: C_29  and  C_30
REMARK   11  A    between atoms: C_30  and  C_31
REMARK   12  A    between atoms: C_31  and  C_32
REMARK                            x       y       z     vdW  Elec       q    Type
REMARK                         _______ _______ _______ _____ _____    ______ ____
ROOT
ATOM      1  O   UNL     1     -37.166  28.196   1.513  0.00  0.00    -0.288 OA
ATOM      2  C   UNL     1     -37.221  24.753   2.683  0.00  0.00    +0.047 C 
ATOM      3  C   UNL     1     -37.363  25.795   1.555  0.00  0.00    +0.095 C 
ATOM      4  C   UNL     1     -35.726  24.620   3.137  0.00  0.00    +0.076 C 
ATOM      5  C   UNL     1     -37.892  23.421   2.248  0.00  0.00    +0.112 C 
ATOM      6  C   UNL     1     -38.835  25.992   1.133  0.00  0.00    +0.118 C 
ATOM      7  C   UNL     1     -39.459  24.658   0.690  0.00  0.00    +0.030 C 
ATOM      8  C   UNL     1     -39.345  23.620   1.808  0.00  0.00    +0.032 C 
ATOM      9  C   UNL     1     -35.065  25.989   3.370  0.00  0.00    -0.002 C 
ATOM     10  C   UNL     1     -36.750  27.127   1.962  0.00  0.00    +0.208 C 
ATOM     11  C   UNL     1     -34.879  23.792   2.155  0.00  0.00    +0.012 C 
ATOM     12  C   UNL     1     -35.566  27.137   2.866  0.00  0.00    +0.161 C 
ATOM     13  C   UNL     1     -40.919  24.813   0.260  0.00  0.00    +0.003 C 
ENDROOT
BRANCH   5  14
ATOM     14  O   UNL     1     -37.914  22.478   3.315  0.00  0.00    -0.384 OA
ATOM     15  H   UNL     1     -37.004  22.239   3.554  0.00  0.00    +0.210 HD
ENDBRANCH   5  14
BRANCH   6  16
ATOM     16  O   UNL     1     -39.564  26.536   2.235  0.00  0.00    -0.384 OA
ATOM     17  H   UNL     1     -40.509  26.340   2.126  0.00  0.00    +0.210 HD
ENDBRANCH   6  16
BRANCH  12  18
ATOM     18  O   UNL     1     -35.044  28.391   3.111  0.00  0.00    -0.503 OA
ATOM     19  H   UNL     1     -34.847  28.964   2.396  0.00  0.00    +0.292 HD
ENDBRANCH  12  18
BRANCH   4  21
ATOM     20  O   UNL     1     -36.482  24.318   5.385  0.00  0.00    -0.291 OA
ATOM     21  C   UNL     1     -35.723  23.947   4.493  0.00  0.00    +0.179 C 
BRANCH  21  22
ATOM     22  C   UNL     1     -34.752  22.838   4.691  0.00  0.00    +0.077 C 
ATOM     23  C   UNL     1     -35.017  21.861   5.560  0.00  0.00    +0.170 C 
BRANCH  23  24
ATOM     24  O   UNL     1     -36.167  21.822   6.301  0.00  0.00    -0.503 OA
ATOM     25  H   UNL     1     -36.931  22.274   6.004  0.00  0.00    +0.292 HD
ENDBRANCH  23  24
ENDBRANCH  21  22
ENDBRANCH   4  21
BRANCH   9  26
ATOM     26  C   UNL     1     -33.790  26.002   4.193  0.00  0.00    +0.022 C 
ATOM     27  C   UNL     1     -34.099  26.588   5.564  0.00  0.00    +0.004 C 
BRANCH  26  28
ATOM     28  C   UNL     1     -32.674  26.787   3.497  0.00  0.00    +0.004 C 
BRANCH  28  29
ATOM     29  C   UNL     1     -32.017  26.017   2.344  0.00  0.00    +0.000 C 
BRANCH  29  30
ATOM     30  C   UNL     1     -32.112  26.801   1.032  0.00  0.00    +0.000 C 
BRANCH  30  31
ATOM     31  C   UNL     1     -32.975  26.112  -0.029  0.00  0.00    +0.000 C 
BRANCH  31  32
ATOM     32  C   UNL     1     -34.177  26.914  -0.534  0.00  0.00    +0.000 C 
ATOM     33  C   UNL     1     -34.036  28.414  -0.331  0.00  0.00    +0.000 C 
ENDBRANCH  31  32
ENDBRANCH  30  31
ENDBRANCH  29  30
ENDBRANCH  28  29
ENDBRANCH  26  28
ENDBRANCH   9  26
TORSDOF 12
ENDMDL
MODEL 6
REMARK VINA RESULT:      -5.2      2.354      5.348
REMARK  Name = 5276375
REMARK  12 active torsions:
REMARK  status: ('A' for Active; 'I' for Inactive)
REMARK    1  A    between atoms: C_4  and  C_21
REMARK    2  A    between atoms: C_5  and  O_14
REMARK    3  A    between atoms: C_6  and  O_16
REMARK    4  A    between atoms: C_9  and  C_26
REMARK    5  A    between atoms: C_12  and  O_18
REMARK    6  A    between atoms: C_21  and  C_22
REMARK    7  A    between atoms: C_23  and  O_24
REMARK    8  A    between atoms: C_26  and  C_28
REMARK    9  A    between atoms: C_28  and  C_29
REMARK   10  A    between atoms: C_29  and  C_30
REMARK   11  A    between atoms: C_30  and  C_31
REMARK   12  A    between atoms: C_31  and  C_32
REMARK                            x       y       z     vdW  Elec       q    Type
REMARK                         _______ _______ _______ _____ _____    ______ ____
ROOT
ATOM      1  O   UNL     1     -33.239  24.491  -0.187  0.00  0.00    -0.288 OA
ATOM      2  C   UNL     1     -35.793  23.447   2.183  0.00  0.00    +0.047 C 
ATOM      3  C   UNL     1     -34.539  23.150   1.336  0.00  0.00    +0.095 C 
ATOM      4  C   UNL     1     -35.453  24.424   3.362  0.00  0.00    +0.076 C 
ATOM      5  C   UNL     1     -36.458  22.111   2.614  0.00  0.00    +0.112 C 
ATOM      6  C   UNL     1     -34.859  22.239   0.131  0.00  0.00    +0.118 C 
ATOM      7  C   UNL     1     -35.496  20.920   0.597  0.00  0.00    +0.030 C 
ATOM      8  C   UNL     1     -36.755  21.199   1.421  0.00  0.00    +0.032 C 
ATOM      9  C   UNL     1     -34.629  25.635   2.894  0.00  0.00    -0.002 C 
ATOM     10  C   UNL     1     -33.882  24.438   0.863  0.00  0.00    +0.208 C 
ATOM     11  C   UNL     1     -34.734  23.722   4.527  0.00  0.00    +0.012 C 
ATOM     12  C   UNL     1     -33.950  25.649   1.727  0.00  0.00    +0.161 C 
ATOM     13  C   UNL     1     -35.825  19.988  -0.571  0.00  0.00    +0.003 C 
ENDROOT
BRANCH   5  14
ATOM     14  O   UNL     1     -37.700  22.338   3.274  0.00  0.00    -0.384 OA
ATOM     15  H   UNL     1     -38.429  22.208   2.646  0.00  0.00    +0.210 HD
ENDBRANCH   5  14
BRANCH   6  16
ATOM     16  O   UNL     1     -35.746  22.932  -0.750  0.00  0.00    -0.384 OA
ATOM     17  H   UNL     1     -35.506  23.872  -0.777  0.00  0.00    +0.210 HD
ENDBRANCH   6  16
BRANCH  12  18
ATOM     18  O   UNL     1     -33.259  26.740   1.240  0.00  0.00    -0.503 OA
ATOM     19  H   UNL     1     -33.631  27.597   1.305  0.00  0.00    +0.292 HD
ENDBRANCH  12  18
BRANCH   4  21
ATOM     20  O   UNL     1     -37.098  24.894   5.033  0.00  0.00    -0.291 OA
ATOM     21  C   UNL     1     -36.760  25.006   3.857  0.00  0.00    +0.179 C 
BRANCH  21  22
ATOM     22  C   UNL     1     -37.611  25.698   2.853  0.00  0.00    +0.077 C 
ATOM     23  C   UNL     1     -38.938  25.567   2.893  0.00  0.00    +0.170 C 
BRANCH  23  24
ATOM     24  O   UNL     1     -39.579  24.808   3.835  0.00  0.00    -0.503 OA
ATOM     25  H   UNL     1     -39.723  25.151   4.694  0.00  0.00    +0.292 HD
ENDBRANCH  23  24
ENDBRANCH  21  22
ENDBRANCH   4  21
BRANCH   9  26
ATOM     26  C   UNL     1     -34.593  26.837   3.820  0.00  0.00    +0.022 C 
ATOM     27  C   UNL     1     -34.811  28.098   2.994  0.00  0.00    +0.004 C 
BRANCH  26  28
ATOM     28  C   UNL     1     -33.277  26.911   4.601  0.00  0.00    +0.004 C 
BRANCH  28  29
ATOM     29  C   UNL     1     -33.438  26.593   6.094  0.00  0.00    +0.000 C 
BRANCH  29  30
ATOM     30  C   UNL     1     -32.470  27.423   6.942  0.00  0.00    +0.000 C 
BRANCH  30  31
ATOM     31  C   UNL     1     -31.597  28.374   6.117  0.00  0.00    +0.000 C 
BRANCH  31  32
ATOM     32  C   UNL     1     -31.723  29.860   6.460  0.00  0.00    +0.000 C 
ATOM     33  C   UNL     1     -31.917  30.751   5.244  0.00  0.00    +0.000 C 
ENDBRANCH  31  32
ENDBRANCH  30  31
ENDBRANCH  29  30
ENDBRANCH  28  29
ENDBRANCH  26  28
ENDBRANCH   9  26
TORSDOF 12
ENDMDL
MODEL 7
REMARK VINA RESULT:      -5.1      3.211      6.939
REMARK  Name = 5276375
REMARK  12 active torsions:
REMARK  status: ('A' for Active; 'I' for Inactive)
REMARK    1  A    between atoms: C_4  and  C_21
REMARK    2  A    between atoms: C_5  and  O_14
REMARK    3  A    between atoms: C_6  and  O_16
REMARK    4  A    between atoms: C_9  and  C_26
REMARK    5  A    between atoms: C_12  and  O_18
REMARK    6  A    between atoms: C_21  and  C_22
REMARK    7  A    between atoms: C_23  and  O_24
REMARK    8  A    between atoms: C_26  and  C_28
REMARK    9  A    between atoms: C_28  and  C_29
REMARK   10  A    between atoms: C_29  and  C_30
REMARK   11  A    between atoms: C_30  and  C_31
REMARK   12  A    between atoms: C_31  and  C_32
REMARK                            x       y       z     vdW  Elec       q    Type
REMARK                         _______ _______ _______ _____ _____    ______ ____
ROOT
ATOM      1  O   UNL     1     -32.642  24.489   0.224  0.00  0.00    -0.288 OA
ATOM      2  C   UNL     1     -34.103  25.624   3.354  0.00  0.00    +0.047 C 
ATOM      3  C   UNL     1     -33.583  25.906   1.930  0.00  0.00    +0.095 C 
ATOM      4  C   UNL     1     -35.448  24.817   3.309  0.00  0.00    +0.076 C 
ATOM      5  C   UNL     1     -34.167  26.952   4.157  0.00  0.00    +0.112 C 
ATOM      6  C   UNL     1     -32.227  26.645   1.948  0.00  0.00    +0.118 C 
ATOM      7  C   UNL     1     -32.334  27.963   2.732  0.00  0.00    +0.030 C 
ATOM      8  C   UNL     1     -32.829  27.697   4.155  0.00  0.00    +0.032 C 
ATOM      9  C   UNL     1     -35.374  23.618   2.348  0.00  0.00    -0.002 C 
ATOM     10  C   UNL     1     -33.471  24.619   1.126  0.00  0.00    +0.208 C 
ATOM     11  C   UNL     1     -36.658  25.697   2.954  0.00  0.00    +0.012 C 
ATOM     12  C   UNL     1     -34.437  23.516   1.381  0.00  0.00    +0.161 C 
ATOM     13  C   UNL     1     -31.010  28.727   2.768  0.00  0.00    +0.003 C 
ENDROOT
BRANCH   5  14
ATOM     14  O   UNL     1     -34.503  26.719   5.522  0.00  0.00    -0.384 OA
ATOM     15  H   UNL     1     -34.239  27.485   6.056  0.00  0.00    +0.210 HD
ENDBRANCH   5  14
BRANCH   6  16
ATOM     16  O   UNL     1     -31.244  25.795   2.541  0.00  0.00    -0.384 OA
ATOM     17  H   UNL     1     -31.667  25.223   3.202  0.00  0.00    +0.210 HD
ENDBRANCH   6  16
BRANCH  12  18
ATOM     18  O   UNL     1     -34.294  22.425   0.546  0.00  0.00    -0.503 OA
ATOM     19  H   UNL     1     -33.787  21.687   0.823  0.00  0.00    +0.292 HD
ENDBRANCH  12  18
BRANCH   4  21
ATOM     20  O   UNL     1     -36.664  24.455   5.336  0.00  0.00    -0.291 OA
ATOM     21  C   UNL     1     -35.655  24.208   4.680  0.00  0.00    +0.179 C 
BRANCH  21  22
ATOM     22  C   UNL     1     -34.577  23.319   5.191  0.00  0.00    +0.077 C 
ATOM     23  C   UNL     1     -34.879  22.276   5.966  0.00  0.00    +0.170 C 
BRANCH  23  24
ATOM     24  O   UNL     1     -36.163  21.969   6.327  0.00  0.00    -0.503 OA
ATOM     25  H   UNL     1     -36.883  22.350   5.866  0.00  0.00    +0.292 HD
ENDBRANCH  23  24
ENDBRANCH  21  22
ENDBRANCH   4  21
BRANCH   9  26
ATOM     26  C   UNL     1     -36.426  22.538   2.519  0.00  0.00    +0.022 C 
ATOM     27  C   UNL     1     -35.733  21.183   2.565  0.00  0.00    +0.004 C 
BRANCH  26  28
ATOM     28  C   UNL     1     -37.473  22.584   1.402  0.00  0.00    +0.004 C 
BRANCH  28  29
ATOM     29  C   UNL     1     -38.904  22.345   1.899  0.00  0.00    +0.000 C 
BRANCH  29  30
ATOM     30  C   UNL     1     -39.628  21.317   1.025  0.00  0.00    +0.000 C 
BRANCH  30  31
ATOM     31  C   UNL     1     -38.879  20.982  -0.269  0.00  0.00    +0.000 C 
BRANCH  31  32
ATOM     32  C   UNL     1     -38.435  19.525  -0.423  0.00  0.00    +0.000 C 
ATOM     33  C   UNL     1     -36.926  19.350  -0.457  0.00  0.00    +0.000 C 
ENDBRANCH  31  32
ENDBRANCH  30  31
ENDBRANCH  29  30
ENDBRANCH  28  29
ENDBRANCH  26  28
ENDBRANCH   9  26
TORSDOF 12
ENDMDL
MODEL 8
REMARK VINA RESULT:      -5.1      2.953      6.570
REMARK  Name = 5276375
REMARK  12 active torsions:
REMARK  status: ('A' for Active; 'I' for Inactive)
REMARK    1  A    between atoms: C_4  and  C_21
REMARK    2  A    between atoms: C_5  and  O_14
REMARK    3  A    between atoms: C_6  and  O_16
REMARK    4  A    between atoms: C_9  and  C_26
REMARK    5  A    between atoms: C_12  and  O_18
REMARK    6  A    between atoms: C_21  and  C_22
REMARK    7  A    between atoms: C_23  and  O_24
REMARK    8  A    between atoms: C_26  and  C_28
REMARK    9  A    between atoms: C_28  and  C_29
REMARK   10  A    between atoms: C_29  and  C_30
REMARK   11  A    between atoms: C_30  and  C_31
REMARK   12  A    between atoms: C_31  and  C_32
REMARK                            x       y       z     vdW  Elec       q    Type
REMARK                         _______ _______ _______ _____ _____    ______ ____
ROOT
ATOM      1  O   UNL     1     -35.323  21.453   4.204  0.00  0.00    -0.288 OA
ATOM      2  C   UNL     1     -36.667  24.601   2.976  0.00  0.00    +0.047 C 
ATOM      3  C   UNL     1     -35.475  23.719   3.399  0.00  0.00    +0.095 C 
ATOM      4  C   UNL     1     -37.284  24.099   1.624  0.00  0.00    +0.076 C 
ATOM      5  C   UNL     1     -36.237  26.094   2.983  0.00  0.00    +0.112 C 
ATOM      6  C   UNL     1     -34.889  24.154   4.760  0.00  0.00    +0.118 C 
ATOM      7  C   UNL     1     -34.456  25.629   4.722  0.00  0.00    +0.030 C 
ATOM      8  C   UNL     1     -35.635  26.520   4.324  0.00  0.00    +0.032 C 
ATOM      9  C   UNL     1     -37.510  22.578   1.619  0.00  0.00    -0.002 C 
ATOM     10  C   UNL     1     -35.871  22.251   3.442  0.00  0.00    +0.208 C 
ATOM     11  C   UNL     1     -36.444  24.506   0.401  0.00  0.00    +0.012 C 
ATOM     12  C   UNL     1     -36.893  21.745   2.484  0.00  0.00    +0.161 C 
ATOM     13  C   UNL     1     -33.866  26.097   6.053  0.00  0.00    +0.003 C 
ENDROOT
BRANCH   5  14
ATOM     14  O   UNL     1     -37.346  26.955   2.741  0.00  0.00    -0.384 OA
ATOM     15  H   UNL     1     -38.095  26.434   2.412  0.00  0.00    +0.210 HD
ENDBRANCH   5  14
BRANCH   6  16
ATOM     16  O   UNL     1     -35.876  23.955   5.774  0.00  0.00    -0.384 OA
ATOM     17  H   UNL     1     -36.162  23.028   5.769  0.00  0.00    +0.210 HD
ENDBRANCH   6  16
BRANCH  12  18
ATOM     18  O   UNL     1     -37.123  20.386   2.557  0.00  0.00    -0.503 OA
ATOM     19  H   UNL     1     -37.948  20.067   2.869  0.00  0.00    +0.292 HD
ENDBRANCH  12  18
BRANCH   4  21
ATOM     20  O   UNL     1     -38.944  25.478   0.595  0.00  0.00    -0.291 OA
ATOM     21  C   UNL     1     -38.667  24.702   1.507  0.00  0.00    +0.179 C 
BRANCH  21  22
ATOM     22  C   UNL     1     -39.656  24.324   2.551  0.00  0.00    +0.077 C 
ATOM     23  C   UNL     1     -40.261  25.268   3.275  0.00  0.00    +0.170 C 
BRANCH  23  24
ATOM     24  O   UNL     1     -40.015  26.603   3.105  0.00  0.00    -0.503 OA
ATOM     25  H   UNL     1     -40.106  26.992   2.258  0.00  0.00    +0.292 HD
ENDBRANCH  23  24
ENDBRANCH  21  22
ENDBRANCH   4  21
BRANCH   9  26
ATOM     26  C   UNL     1     -38.462  22.032   0.570  0.00  0.00    +0.022 C 
ATOM     27  C   UNL     1     -39.594  21.296   1.274  0.00  0.00    +0.004 C 
BRANCH  26  28
ATOM     28  C   UNL     1     -37.743  21.115  -0.425  0.00  0.00    +0.004 C 
BRANCH  28  29
ATOM     29  C   UNL     1     -38.471  19.784  -0.660  0.00  0.00    +0.000 C 
BRANCH  29  30
ATOM     30  C   UNL     1     -37.552  18.594  -0.368  0.00  0.00    +0.000 C 
BRANCH  30  31
ATOM     31  C   UNL     1     -37.902  17.341  -1.177  0.00  0.00    +0.000 C 
BRANCH  31  32
ATOM     32  C   UNL     1     -38.089  16.056  -0.366  0.00  0.00    +0.000 C 
ATOM     33  C   UNL     1     -39.419  15.366  -0.619  0.00  0.00    +0.000 C 
ENDBRANCH  31  32
ENDBRANCH  30  31
ENDBRANCH  29  30
ENDBRANCH  28  29
ENDBRANCH  26  28
ENDBRANCH   9  26
TORSDOF 12
ENDMDL
MODEL 9
REMARK VINA RESULT:      -5.0      1.793      6.652
REMARK  Name = 5276375
REMARK  12 active torsions:
REMARK  status: ('A' for Active; 'I' for Inactive)
REMARK    1  A    between atoms: C_4  and  C_21
REMARK    2  A    between atoms: C_5  and  O_14
REMARK    3  A    between atoms: C_6  and  O_16
REMARK    4  A    between atoms: C_9  and  C_26
REMARK    5  A    between atoms: C_12  and  O_18
REMARK    6  A    between atoms: C_21  and  C_22
REMARK    7  A    between atoms: C_23  and  O_24
REMARK    8  A    between atoms: C_26  and  C_28
REMARK    9  A    between atoms: C_28  and  C_29
REMARK   10  A    between atoms: C_29  and  C_30
REMARK   11  A    between atoms: C_30  and  C_31
REMARK   12  A    between atoms: C_31  and  C_32
REMARK                            x       y       z     vdW  Elec       q    Type
REMARK                         _______ _______ _______ _____ _____    ______ ____
ROOT
ATOM      1  O   UNL     1     -34.584  27.615   1.547  0.00  0.00    -0.288 OA
ATOM      2  C   UNL     1     -35.868  24.845   3.524  0.00  0.00    +0.047 C 
ATOM      3  C   UNL     1     -35.498  26.335   3.373  0.00  0.00    +0.095 C 
ATOM      4  C   UNL     1     -37.134  24.493   2.668  0.00  0.00    +0.076 C 
ATOM      5  C   UNL     1     -35.980  24.488   5.032  0.00  0.00    +0.112 C 
ATOM      6  C   UNL     1     -34.217  26.694   4.157  0.00  0.00    +0.118 C 
ATOM      7  C   UNL     1     -34.372  26.346   5.646  0.00  0.00    +0.030 C 
ATOM      8  C   UNL     1     -34.719  24.865   5.814  0.00  0.00    +0.032 C 
ATOM      9  C   UNL     1     -37.036  25.042   1.234  0.00  0.00    -0.002 C 
ATOM     10  C   UNL     1     -35.341  26.712   1.908  0.00  0.00    +0.208 C 
ATOM     11  C   UNL     1     -38.443  24.968   3.321  0.00  0.00    +0.012 C 
ATOM     12  C   UNL     1     -36.181  26.026   0.886  0.00  0.00    +0.161 C 
ATOM     13  C   UNL     1     -33.123  26.691   6.458  0.00  0.00    +0.003 C 
ENDROOT
BRANCH   5  14
ATOM     14  O   UNL     1     -36.176  23.090   5.222  0.00  0.00    -0.384 OA
ATOM     15  H   UNL     1     -36.725  22.740   4.503  0.00  0.00    +0.210 HD
ENDBRANCH   5  14
BRANCH   6  16
ATOM     16  O   UNL     1     -33.115  25.979   3.595  0.00  0.00    -0.384 OA
ATOM     17  H   UNL     1     -33.424  25.444   2.847  0.00  0.00    +0.210 HD
ENDBRANCH   6  16
BRANCH  12  18
ATOM     18  O   UNL     1     -36.013  26.495  -0.401  0.00  0.00    -0.503 OA
ATOM     19  H   UNL     1     -36.548  26.161  -1.094  0.00  0.00    +0.292 HD
ENDBRANCH  12  18
BRANCH   4  21
ATOM     20  O   UNL     1     -38.141  22.335   2.882  0.00  0.00    -0.291 OA
ATOM     21  C   UNL     1     -37.169  22.988   2.511  0.00  0.00    +0.179 C 
BRANCH  21  22
ATOM     22  C   UNL     1     -35.970  22.347   1.907  0.00  0.00    +0.077 C 
ATOM     23  C   UNL     1     -35.451  21.245   2.452  0.00  0.00    +0.170 C 
BRANCH  23  24
ATOM     24  O   UNL     1     -35.977  20.654   3.569  0.00  0.00    -0.503 OA
ATOM     25  H   UNL     1     -36.731  21.024   3.983  0.00  0.00    +0.292 HD
ENDBRANCH  23  24
ENDBRANCH  21  22
ENDBRANCH   4  21
BRANCH   9  26
ATOM     26  C   UNL     1     -37.970  24.432   0.204  0.00  0.00    +0.022 C 
ATOM     27  C   UNL     1     -37.153  24.018  -1.012  0.00  0.00    +0.004 C 
BRANCH  26  28
ATOM     28  C   UNL     1     -39.089  25.402  -0.189  0.00  0.00    +0.004 C 
BRANCH  28  29
ATOM     29  C   UNL     1     -40.459  24.724  -0.327  0.00  0.00    +0.000 C 
BRANCH  29  30
ATOM     30  C   UNL     1     -41.071  24.432   1.046  0.00  0.00    +0.000 C 
BRANCH  30  31
ATOM     31  C   UNL     1     -42.090  25.484   1.496  0.00  0.00    +0.000 C 
BRANCH  31  32
ATOM     32  C   UNL     1     -41.517  26.683   2.257  0.00  0.00    +0.000 C 
ATOM     33  C   UNL     1     -41.873  26.691   3.735  0.00  0.00    +0.000 C 
ENDBRANCH  31  32
ENDBRANCH  30  31
ENDBRANCH  29  30
ENDBRANCH  28  29
ENDBRANCH  26  28
ENDBRANCH   9  26
TORSDOF 12
ENDMDL
