MODEL 1
REMARK VINA RESULT:      -5.4      0.000      0.000
REMARK  Name = 198492
REMARK  5 active torsions:
REMARK  status: ('A' for Active; 'I' for Inactive)
REMARK    1  A    between atoms: C_1  and  C_3
REMARK    2  A    between atoms: C_1  and  C_11
REMARK    3  A    between atoms: C_3  and  N_6
REMARK    4  A    between atoms: C_11  and  C_13
REMARK    5  A    between atoms: C_13  and  N_16
REMARK                            x       y       z     vdW  Elec       q    Type
REMARK                         _______ _______ _______ _____ _____    ______ ____
ROOT
ATOM      1  C   UNL     1     -36.212  25.966   3.993  0.00  0.00    +0.097 C 
ENDROOT
BRANCH   1   3
ATOM      2  O   UNL     1     -38.319  24.817   3.750  0.00  0.00    -0.273 OA
ATOM      3  C   UNL     1     -37.147  24.771   4.117  0.00  0.00    +0.248 C 
BRANCH   3   6
ATOM      4  S   UNL     1     -36.309  22.944   2.149  0.00  0.00    -0.081 S 
ATOM      5  N   UNL     1     -35.409  21.593   4.172  0.00  0.00    -0.288 N 
ATOM      6  N   UNL     1     -36.511  23.685   4.682  0.00  0.00    -0.159 NA
ATOM      7  C   UNL     1     -35.222  20.687   3.045  0.00  0.00    +0.105 C 
ATOM      8  C   UNL     1     -35.187  21.553   1.790  0.00  0.00    +0.086 C 
ATOM      9  C   UNL     1     -36.072  22.768   3.891  0.00  0.00    +0.151 C 
ATOM     10  C   UNL     1     -35.188  21.095   5.513  0.00  0.00    +0.114 C 
ENDBRANCH   3   6
ENDBRANCH   1   3
BRANCH   1  11
ATOM     11  C   UNL     1     -35.413  26.247   5.262  0.00  0.00    +0.097 C 
BRANCH  11  13
ATOM     12  O   UNL     1     -33.452  25.100   4.453  0.00  0.00    -0.273 OA
ATOM     13  C   UNL     1     -33.914  26.043   5.092  0.00  0.00    +0.248 C 
BRANCH  13  16
ATOM     14  S   UNL     1     -32.874  27.918   3.272  0.00  0.00    -0.081 S 
ATOM     15  N   UNL     1     -31.898  29.035   5.400  0.00  0.00    -0.288 N 
ATOM     16  N   UNL     1     -33.192  27.022   5.743  0.00  0.00    -0.159 NA
ATOM     17  C   UNL     1     -31.291  29.787   4.308  0.00  0.00    +0.105 C 
ATOM     18  C   UNL     1     -32.192  29.597   3.092  0.00  0.00    +0.086 C 
ATOM     19  C   UNL     1     -32.658  27.950   5.025  0.00  0.00    +0.151 C 
ATOM     20  C   UNL     1     -31.429  29.264   6.750  0.00  0.00    +0.114 C 
ENDBRANCH  13  16
ENDBRANCH  11  13
ENDBRANCH   1  11
TORSDOF 5
ENDMDL
MODEL 2
REMARK VINA RESULT:      -5.3      2.811      4.077
REMARK  Name = 198492
REMARK  5 active torsions:
REMARK  status: ('A' for Active; 'I' for Inactive)
REMARK    1  A    between atoms: C_1  and  C_3
REMARK    2  A    between atoms: C_1  and  C_11
REMARK    3  A    between atoms: C_3  and  N_6
REMARK    4  A    between atoms: C_11  and  C_13
REMARK    5  A    between atoms: C_13  and  N_16
REMARK                            x       y       z     vdW  Elec       q    Type
REMARK                         _______ _______ _______ _____ _____    ______ ____
ROOT
ATOM      1  C   UNL     1     -34.547  24.026   5.480  0.00  0.00    +0.097 C 
ENDROOT
BRANCH   1   3
ATOM      2  O   UNL     1     -35.906  22.215   6.312  0.00  0.00    -0.273 OA
ATOM      3  C   UNL     1     -35.793  23.151   5.524  0.00  0.00    +0.248 C 
BRANCH   3   6
ATOM      4  S   UNL     1     -35.614  21.589   3.191  0.00  0.00    -0.081 S 
ATOM      5  N   UNL     1     -37.566  23.086   2.366  0.00  0.00    -0.288 N 
ATOM      6  N   UNL     1     -36.724  23.546   4.587  0.00  0.00    -0.159 NA
ATOM      7  C   UNL     1     -37.203  22.313   1.184  0.00  0.00    +0.105 C 
ATOM      8  C   UNL     1     -36.491  21.060   1.683  0.00  0.00    +0.086 C 
ATOM      9  C   UNL     1     -36.755  22.910   3.466  0.00  0.00    +0.151 C 
ATOM     10  C   UNL     1     -38.508  24.176   2.225  0.00  0.00    +0.114 C 
ENDBRANCH   3   6
ENDBRANCH   1   3
BRANCH   1  11
ATOM     11  C   UNL     1     -34.854  25.520   5.487  0.00  0.00    +0.097 C 
BRANCH  11  13
ATOM     12  O   UNL     1     -33.759  27.465   4.575  0.00  0.00    -0.273 OA
ATOM     13  C   UNL     1     -34.107  26.297   4.413  0.00  0.00    +0.248 C 
BRANCH  13  16
ATOM     14  S   UNL     1     -35.889  27.020   2.360  0.00  0.00    -0.081 S 
ATOM     15  N   UNL     1     -34.670  25.162   1.020  0.00  0.00    -0.288 N 
ATOM     16  N   UNL     1     -33.902  25.533   3.283  0.00  0.00    -0.159 NA
ATOM     17  C   UNL     1     -35.783  25.537   0.155  0.00  0.00    +0.105 C 
ATOM     18  C   UNL     1     -36.204  26.943   0.567  0.00  0.00    +0.086 C 
ATOM     19  C   UNL     1     -34.653  25.762   2.260  0.00  0.00    +0.151 C 
ATOM     20  C   UNL     1     -33.875  24.004   0.672  0.00  0.00    +0.114 C 
ENDBRANCH  13  16
ENDBRANCH  11  13
ENDBRANCH   1  11
TORSDOF 5
ENDMDL
MODEL 3
REMARK VINA RESULT:      -5.3      1.996      7.321
REMARK  Name = 198492
REMARK  5 active torsions:
REMARK  status: ('A' for Active; 'I' for Inactive)
REMARK    1  A    between atoms: C_1  and  C_3
REMARK    2  A    between atoms: C_1  and  C_11
REMARK    3  A    between atoms: C_3  and  N_6
REMARK    4  A    between atoms: C_11  and  C_13
REMARK    5  A    between atoms: C_13  and  N_16
REMARK                            x       y       z     vdW  Elec       q    Type
REMARK                         _______ _______ _______ _____ _____    ______ ____
ROOT
ATOM      1  C   UNL     1     -34.105  24.698   4.945  0.00  0.00    +0.097 C 
ENDROOT
BRANCH   1   3
ATOM      2  O   UNL     1     -35.621  26.515   5.417  0.00  0.00    -0.273 OA
ATOM      3  C   UNL     1     -34.462  26.107   5.401  0.00  0.00    +0.248 C 
BRANCH   3   6
ATOM      4  S   UNL     1     -33.547  27.719   3.283  0.00  0.00    -0.081 S 
ATOM      5  N   UNL     1     -31.711  28.425   4.974  0.00  0.00    -0.288 N 
ATOM      6  N   UNL     1     -33.339  26.821   5.766  0.00  0.00    -0.159 NA
ATOM      7  C   UNL     1     -31.279  29.038   3.723  0.00  0.00    +0.105 C 
ATOM      8  C   UNL     1     -32.520  29.160   2.845  0.00  0.00    +0.086 C 
ATOM      9  C   UNL     1     -32.815  27.606   4.888  0.00  0.00    +0.151 C 
ATOM     10  C   UNL     1     -30.815  28.452   6.110  0.00  0.00    +0.114 C 
ENDBRANCH   3   6
ENDBRANCH   1   3
BRANCH   1  11
ATOM     11  C   UNL     1     -35.054  24.145   3.885  0.00  0.00    +0.097 C 
BRANCH  11  13
ATOM     12  O   UNL     1     -36.006  22.686   5.552  0.00  0.00    -0.273 OA
ATOM     13  C   UNL     1     -36.123  23.222   4.453  0.00  0.00    +0.248 C 
BRANCH  13  16
ATOM     14  S   UNL     1     -35.676  21.115   2.644  0.00  0.00    -0.081 S 
ATOM     15  N   UNL     1     -38.007  21.777   1.718  0.00  0.00    -0.288 N 
ATOM     16  N   UNL     1     -37.184  23.079   3.582  0.00  0.00    -0.159 NA
ATOM     17  C   UNL     1     -37.524  20.791   0.759  0.00  0.00    +0.105 C 
ATOM     18  C   UNL     1     -36.469  19.959   1.480  0.00  0.00    +0.086 C 
ATOM     19  C   UNL     1     -37.111  22.144   2.697  0.00  0.00    +0.151 C 
ATOM     20  C   UNL     1     -39.216  22.514   1.413  0.00  0.00    +0.114 C 
ENDBRANCH  13  16
ENDBRANCH  11  13
ENDBRANCH   1  11
TORSDOF 5
ENDMDL
MODEL 4
REMARK VINA RESULT:      -5.3      2.762      6.030
REMARK  Name = 198492
REMARK  5 active torsions:
REMARK  status: ('A' for Active; 'I' for Inactive)
REMARK    1  A    between atoms: C_1  and  C_3
REMARK    2  A    between atoms: C_1  and  C_11
REMARK    3  A    between atoms: C_3  and  N_6
REMARK    4  A    between atoms: C_11  and  C_13
REMARK    5  A    between atoms: C_13  and  N_16
REMARK                            x       y       z     vdW  Elec       q    Type
REMARK                         _______ _______ _______ _____ _____    ______ ____
ROOT
ATOM      1  C   UNL     1     -34.674  25.438   5.623  0.00  0.00    +0.097 C 
ENDROOT
BRANCH   1   3
ATOM      2  O   UNL     1     -33.526  27.389   4.791  0.00  0.00    -0.273 OA
ATOM      3  C   UNL     1     -33.911  26.242   4.578  0.00  0.00    +0.248 C 
BRANCH   3   6
ATOM      4  S   UNL     1     -35.726  27.065   2.592  0.00  0.00    -0.081 S 
ATOM      5  N   UNL     1     -34.551  25.255   1.153  0.00  0.00    -0.288 N 
ATOM      6  N   UNL     1     -33.735  25.524   3.414  0.00  0.00    -0.159 NA
ATOM      7  C   UNL     1     -35.676  25.674   0.325  0.00  0.00    +0.105 C 
ATOM      8  C   UNL     1     -36.075  27.066   0.803  0.00  0.00    +0.086 C 
ATOM      9  C   UNL     1     -34.503  25.802   2.416  0.00  0.00    +0.151 C 
ATOM     10  C   UNL     1     -33.771  24.106   0.742  0.00  0.00    +0.114 C 
ENDBRANCH   3   6
ENDBRANCH   1   3
BRANCH   1  11
ATOM     11  C   UNL     1     -34.469  23.931   5.497  0.00  0.00    +0.097 C 
BRANCH  11  13
ATOM     12  O   UNL     1     -35.937  22.230   6.373  0.00  0.00    -0.273 OA
ATOM     13  C   UNL     1     -35.766  23.136   5.560  0.00  0.00    +0.248 C 
BRANCH  13  16
ATOM     14  S   UNL     1     -35.564  21.593   3.217  0.00  0.00    -0.081 S 
ATOM     15  N   UNL     1     -37.466  23.137   2.363  0.00  0.00    -0.288 N 
ATOM     16  N   UNL     1     -36.667  23.560   4.605  0.00  0.00    -0.159 NA
ATOM     17  C   UNL     1     -37.092  22.368   1.182  0.00  0.00    +0.105 C 
ATOM     18  C   UNL     1     -36.414  21.097   1.684  0.00  0.00    +0.086 C 
ATOM     19  C   UNL     1     -36.683  22.935   3.478  0.00  0.00    +0.151 C 
ATOM     20  C   UNL     1     -38.383  24.247   2.211  0.00  0.00    +0.114 C 
ENDBRANCH  13  16
ENDBRANCH  11  13
ENDBRANCH   1  11
TORSDOF 5
ENDMDL
MODEL 5
REMARK VINA RESULT:      -5.3      1.979      2.322
REMARK  Name = 198492
REMARK  5 active torsions:
REMARK  status: ('A' for Active; 'I' for Inactive)
REMARK    1  A    between atoms: C_1  and  C_3
REMARK    2  A    between atoms: C_1  and  C_11
REMARK    3  A    between atoms: C_3  and  N_6
REMARK    4  A    between atoms: C_11  and  C_13
REMARK    5  A    between atoms: C_13  and  N_16
REMARK                            x       y       z     vdW  Elec       q    Type
REMARK                         _______ _______ _______ _____ _____    ______ ____
ROOT
ATOM      1  C   UNL     1     -35.014  24.146   3.913  0.00  0.00    +0.097 C 
ENDROOT
BRANCH   1   3
ATOM      2  O   UNL     1     -35.976  22.697   5.584  0.00  0.00    -0.273 OA
ATOM      3  C   UNL     1     -36.091  23.232   4.485  0.00  0.00    +0.248 C 
BRANCH   3   6
ATOM      4  S   UNL     1     -35.672  21.122   2.672  0.00  0.00    -0.081 S 
ATOM      5  N   UNL     1     -38.000  21.808   1.756  0.00  0.00    -0.288 N 
ATOM      6  N   UNL     1     -37.156  23.100   3.619  0.00  0.00    -0.159 NA
ATOM      7  C   UNL     1     -37.532  20.818   0.793  0.00  0.00    +0.105 C 
ATOM      8  C   UNL     1     -36.482  19.975   1.510  0.00  0.00    +0.086 C 
ATOM      9  C   UNL     1     -37.097  22.165   2.733  0.00  0.00    +0.151 C 
ATOM     10  C   UNL     1     -39.203  22.557   1.458  0.00  0.00    +0.114 C 
ENDBRANCH   3   6
ENDBRANCH   1   3
BRANCH   1  11
ATOM     11  C   UNL     1     -34.080  24.721   4.973  0.00  0.00    +0.097 C 
BRANCH  11  13
ATOM     12  O   UNL     1     -35.577  26.578   5.329  0.00  0.00    -0.273 OA
ATOM     13  C   UNL     1     -34.426  26.148   5.374  0.00  0.00    +0.248 C 
BRANCH  13  16
ATOM     14  S   UNL     1     -33.477  27.782   3.290  0.00  0.00    -0.081 S 
ATOM     15  N   UNL     1     -31.660  28.458   5.014  0.00  0.00    -0.288 N 
ATOM     16  N   UNL     1     -33.305  26.852   5.764  0.00  0.00    -0.159 NA
ATOM     17  C   UNL     1     -31.209  29.084   3.776  0.00  0.00    +0.105 C 
ATOM     18  C   UNL     1     -32.438  29.222   2.883  0.00  0.00    +0.086 C 
ATOM     19  C   UNL     1     -32.766  27.645   4.901  0.00  0.00    +0.151 C 
ATOM     20  C   UNL     1     -30.778  28.466   6.162  0.00  0.00    +0.114 C 
ENDBRANCH  13  16
ENDBRANCH  11  13
ENDBRANCH   1  11
TORSDOF 5
ENDMDL
MODEL 6
REMARK VINA RESULT:      -5.3      2.564      6.675
REMARK  Name = 198492
REMARK  5 active torsions:
REMARK  status: ('A' for Active; 'I' for Inactive)
REMARK    1  A    between atoms: C_1  and  C_3
REMARK    2  A    between atoms: C_1  and  C_11
REMARK    3  A    between atoms: C_3  and  N_6
REMARK    4  A    between atoms: C_11  and  C_13
REMARK    5  A    between atoms: C_13  and  N_16
REMARK                            x       y       z     vdW  Elec       q    Type
REMARK                         _______ _______ _______ _____ _____    ______ ____
ROOT
ATOM      1  C   UNL     1     -34.658  25.719   5.141  0.00  0.00    +0.097 C 
ENDROOT
BRANCH   1   3
ATOM      2  O   UNL     1     -32.774  25.842   3.639  0.00  0.00    -0.273 OA
ATOM      3  C   UNL     1     -33.739  26.411   4.143  0.00  0.00    +0.248 C 
BRANCH   3   6
ATOM      4  S   UNL     1     -35.424  26.573   1.895  0.00  0.00    -0.081 S 
ATOM      5  N   UNL     1     -35.457  29.109   2.442  0.00  0.00    -0.288 N 
ATOM      6  N   UNL     1     -34.134  27.712   3.908  0.00  0.00    -0.159 NA
ATOM      7  C   UNL     1     -36.148  29.026   1.161  0.00  0.00    +0.105 C 
ATOM      8  C   UNL     1     -36.663  27.596   1.034  0.00  0.00    +0.086 C 
ATOM      9  C   UNL     1     -34.914  27.931   2.905  0.00  0.00    +0.151 C 
ATOM     10  C   UNL     1     -35.119  30.414   2.969  0.00  0.00    +0.114 C 
ENDBRANCH   3   6
ENDBRANCH   1   3
BRANCH   1  11
ATOM     11  C   UNL     1     -34.458  24.207   5.203  0.00  0.00    +0.097 C 
BRANCH  11  13
ATOM     12  O   UNL     1     -35.878  22.552   6.232  0.00  0.00    -0.273 OA
ATOM     13  C   UNL     1     -35.756  23.432   5.382  0.00  0.00    +0.248 C 
BRANCH  13  16
ATOM     14  S   UNL     1     -35.796  21.767   3.115  0.00  0.00    -0.081 S 
ATOM     15  N   UNL     1     -37.711  23.334   2.335  0.00  0.00    -0.288 N 
ATOM     16  N   UNL     1     -36.719  23.839   4.481  0.00  0.00    -0.159 NA
ATOM     17  C   UNL     1     -37.459  22.493   1.171  0.00  0.00    +0.105 C 
ATOM     18  C   UNL     1     -36.785  21.225   1.684  0.00  0.00    +0.086 C 
ATOM     19  C   UNL     1     -36.847  23.159   3.393  0.00  0.00    +0.151 C 
ATOM     20  C   UNL     1     -38.602  24.467   2.199  0.00  0.00    +0.114 C 
ENDBRANCH  13  16
ENDBRANCH  11  13
ENDBRANCH   1  11
TORSDOF 5
ENDMDL
MODEL 7
REMARK VINA RESULT:      -5.2      2.565      3.409
REMARK  Name = 198492
REMARK  5 active torsions:
REMARK  status: ('A' for Active; 'I' for Inactive)
REMARK    1  A    between atoms: C_1  and  C_3
REMARK    2  A    between atoms: C_1  and  C_11
REMARK    3  A    between atoms: C_3  and  N_6
REMARK    4  A    between atoms: C_11  and  C_13
REMARK    5  A    between atoms: C_13  and  N_16
REMARK                            x       y       z     vdW  Elec       q    Type
REMARK                         _______ _______ _______ _____ _____    ______ ____
ROOT
ATOM      1  C   UNL     1     -34.514  24.229   5.331  0.00  0.00    +0.097 C 
ENDROOT
BRANCH   1   3
ATOM      2  O   UNL     1     -35.897  22.472   6.237  0.00  0.00    -0.273 OA
ATOM      3  C   UNL     1     -35.779  23.384   5.423  0.00  0.00    +0.248 C 
BRANCH   3   6
ATOM      4  S   UNL     1     -35.746  21.700   3.169  0.00  0.00    -0.081 S 
ATOM      5  N   UNL     1     -37.649  23.247   2.324  0.00  0.00    -0.288 N 
ATOM      6  N   UNL     1     -36.719  23.777   4.493  0.00  0.00    -0.159 NA
ATOM      7  C   UNL     1     -37.361  22.398   1.173  0.00  0.00    +0.105 C 
ATOM      8  C   UNL     1     -36.692  21.139   1.716  0.00  0.00    +0.086 C 
ATOM      9  C   UNL     1     -36.814  23.087   3.408  0.00  0.00    +0.151 C 
ATOM     10  C   UNL     1     -38.543  24.373   2.154  0.00  0.00    +0.114 C 
ENDBRANCH   3   6
ENDBRANCH   1   3
BRANCH   1  11
ATOM     11  C   UNL     1     -34.791  25.715   5.123  0.00  0.00    +0.097 C 
BRANCH  11  13
ATOM     12  O   UNL     1     -32.867  25.779   3.670  0.00  0.00    -0.273 OA
ATOM     13  C   UNL     1     -33.825  26.380   4.151  0.00  0.00    +0.248 C 
BRANCH  13  16
ATOM     14  S   UNL     1     -35.507  26.608   1.908  0.00  0.00    -0.081 S 
ATOM     15  N   UNL     1     -35.435  29.144   2.453  0.00  0.00    -0.288 N 
ATOM     16  N   UNL     1     -34.167  27.696   3.916  0.00  0.00    -0.159 NA
ATOM     17  C   UNL     1     -36.132  29.087   1.173  0.00  0.00    +0.105 C 
ATOM     18  C   UNL     1     -36.704  27.679   1.049  0.00  0.00    +0.086 C 
ATOM     19  C   UNL     1     -34.939  27.944   2.915  0.00  0.00    +0.151 C 
ATOM     20  C   UNL     1     -35.042  30.435   2.977  0.00  0.00    +0.114 C 
ENDBRANCH  13  16
ENDBRANCH  11  13
ENDBRANCH   1  11
TORSDOF 5
ENDMDL
MODEL 8
REMARK VINA RESULT:      -5.1      1.968      2.913
REMARK  Name = 198492
REMARK  5 active torsions:
REMARK  status: ('A' for Active; 'I' for Inactive)
REMARK    1  A    between atoms: C_1  and  C_3
REMARK    2  A    between atoms: C_1  and  C_11
REMARK    3  A    between atoms: C_3  and  N_6
REMARK    4  A    between atoms: C_11  and  C_13
REMARK    5  A    between atoms: C_13  and  N_16
REMARK                            x       y       z     vdW  Elec       q    Type
REMARK                         _______ _______ _______ _____ _____    ______ ____
ROOT
ATOM      1  C   UNL     1     -35.191  23.512   5.533  0.00  0.00    +0.097 C 
ENDROOT
BRANCH   1   3
ATOM      2  O   UNL     1     -35.448  21.907   3.750  0.00  0.00    -0.273 OA
ATOM      3  C   UNL     1     -35.918  22.864   4.362  0.00  0.00    +0.248 C 
BRANCH   3   6
ATOM      4  S   UNL     1     -35.844  24.228   1.902  0.00  0.00    -0.081 S 
ATOM      5  N   UNL     1     -38.289  24.863   2.491  0.00  0.00    -0.288 N 
ATOM      6  N   UNL     1     -37.119  23.489   4.102  0.00  0.00    -0.159 NA
ATOM      7  C   UNL     1     -38.005  25.657   1.300  0.00  0.00    +0.105 C 
ATOM      8  C   UNL     1     -36.856  24.964   0.577  0.00  0.00    +0.086 C 
ATOM      9  C   UNL     1     -37.225  24.152   3.001  0.00  0.00    +0.151 C 
ATOM     10  C   UNL     1     -39.517  25.108   3.217  0.00  0.00    +0.114 C 
ENDBRANCH   3   6
ENDBRANCH   1   3
BRANCH   1  11
ATOM     11  C   UNL     1     -34.173  24.566   5.108  0.00  0.00    +0.097 C 
BRANCH  11  13
ATOM     12  O   UNL     1     -35.748  26.358   5.462  0.00  0.00    -0.273 OA
ATOM     13  C   UNL     1     -34.577  25.984   5.487  0.00  0.00    +0.248 C 
BRANCH  13  16
ATOM     14  S   UNL     1     -33.586  27.401   3.268  0.00  0.00    -0.081 S 
ATOM     15  N   UNL     1     -31.839  28.297   4.964  0.00  0.00    -0.288 N 
ATOM     16  N   UNL     1     -33.482  26.749   5.833  0.00  0.00    -0.159 NA
ATOM     17  C   UNL     1     -31.358  28.794   3.681  0.00  0.00    +0.105 C 
ATOM     18  C   UNL     1     -32.558  28.809   2.739  0.00  0.00    +0.086 C 
ATOM     19  C   UNL     1     -32.927  27.454   4.906  0.00  0.00    +0.151 C 
ATOM     20  C   UNL     1     -30.997  28.448   6.132  0.00  0.00    +0.114 C 
ENDBRANCH  13  16
ENDBRANCH  11  13
ENDBRANCH   1  11
TORSDOF 5
ENDMDL
MODEL 9
REMARK VINA RESULT:      -5.1      1.996      6.282
REMARK  Name = 198492
REMARK  5 active torsions:
REMARK  status: ('A' for Active; 'I' for Inactive)
REMARK    1  A    between atoms: C_1  and  C_3
REMARK    2  A    between atoms: C_1  and  C_11
REMARK    3  A    between atoms: C_3  and  N_6
REMARK    4  A    between atoms: C_11  and  C_13
REMARK    5  A    between atoms: C_13  and  N_16
REMARK                            x       y       z     vdW  Elec       q    Type
REMARK                         _______ _______ _______ _____ _____    ______ ____
ROOT
ATOM      1  C   UNL     1     -34.251  24.374   5.206  0.00  0.00    +0.097 C 
ENDROOT
BRANCH   1   3
ATOM      2  O   UNL     1     -35.943  26.062   5.531  0.00  0.00    -0.273 OA
ATOM      3  C   UNL     1     -34.752  25.764   5.575  0.00  0.00    +0.248 C 
BRANCH   3   6
ATOM      4  S   UNL     1     -33.816  27.249   3.377  0.00  0.00    -0.081 S 
ATOM      5  N   UNL     1     -32.161  28.250   5.105  0.00  0.00    -0.288 N 
ATOM      6  N   UNL     1     -33.715  26.596   5.941  0.00  0.00    -0.159 NA
ATOM      7  C   UNL     1     -31.690  28.782   3.831  0.00  0.00    +0.105 C 
ATOM      8  C   UNL     1     -32.873  28.724   2.870  0.00  0.00    +0.086 C 
ATOM      9  C   UNL     1     -33.191  27.339   5.027  0.00  0.00    +0.151 C 
ATOM     10  C   UNL     1     -31.350  28.451   6.287  0.00  0.00    +0.114 C 
ENDBRANCH   3   6
ENDBRANCH   1   3
BRANCH   1  11
ATOM     11  C   UNL     1     -35.239  23.262   5.547  0.00  0.00    +0.097 C 
BRANCH  11  13
ATOM     12  O   UNL     1     -35.388  21.746   3.678  0.00  0.00    -0.273 OA
ATOM     13  C   UNL     1     -35.910  22.652   4.325  0.00  0.00    +0.248 C 
BRANCH  13  16
ATOM     14  S   UNL     1     -35.807  24.158   1.951  0.00  0.00    -0.081 S 
ATOM     15  N   UNL     1     -38.291  24.674   2.493  0.00  0.00    -0.288 N 
ATOM     16  N   UNL     1     -37.125  23.250   4.061  0.00  0.00    -0.159 NA
ATOM     17  C   UNL     1     -37.998  25.544   1.360  0.00  0.00    +0.105 C 
ATOM     18  C   UNL     1     -36.801  24.935   0.637  0.00  0.00    +0.086 C 
ATOM     19  C   UNL     1     -37.218  23.972   2.996  0.00  0.00    +0.151 C 
ATOM     20  C   UNL     1     -39.550  24.835   3.189  0.00  0.00    +0.114 C 
ENDBRANCH  13  16
ENDBRANCH  11  13
ENDBRANCH   1  11
TORSDOF 5
ENDMDL
