MODEL 1
REMARK VINA RESULT:      -6.8      0.000      0.000
REMARK  Name = 53307030
REMARK  4 active torsions:
REMARK  status: ('A' for Active; 'I' for Inactive)
REMARK    1  A    between atoms: C_8  and  O_22
REMARK    2  A    between atoms: C_15  and  O_24
REMARK    3  A    between atoms: C_20  and  C_26
REMARK    4  A    between atoms: C_26  and  O_28
REMARK                            x       y       z     vdW  Elec       q    Type
REMARK                         _______ _______ _______ _____ _____    ______ ____
ROOT
ATOM      1  O   UNL     1     -35.342  23.299   2.915  0.00  0.00    -0.327 OA
ATOM      2  O   UNL     1     -36.998  24.430   4.237  0.00  0.00    -0.459 OA
ATOM      3  O   UNL     1     -41.458  26.680   1.124  0.00  0.00    -0.442 OA
ATOM      4  O   UNL     1     -40.072  27.902  -0.269  0.00  0.00    -0.245 OA
ATOM      5  C   UNL     1     -35.588  24.236   3.983  0.00  0.00    +0.231 C 
ATOM      6  C   UNL     1     -34.941  25.597   3.606  0.00  0.00    +0.069 C 
ATOM      7  C   UNL     1     -34.990  23.675   5.288  0.00  0.00    +0.099 C 
ATOM      8  C   UNL     1     -35.537  22.281   5.597  0.00  0.00    +0.119 C 
ATOM      9  C   UNL     1     -35.583  26.118   2.311  0.00  0.00    +0.039 C 
ATOM     10  C   UNL     1     -35.898  21.999   3.131  0.00  0.00    +0.121 C 
ATOM     11  C   UNL     1     -35.324  21.366   4.396  0.00  0.00    +0.059 C 
ATOM     12  C   UNL     1     -37.077  25.982   2.352  0.00  0.00    +0.046 C 
ATOM     13  C   UNL     1     -37.696  25.144   3.300  0.00  0.00    +0.140 C 
ATOM     14  C   UNL     1     -33.422  25.548   3.419  0.00  0.00    +0.007 C 
ATOM     15  C   UNL     1     -37.863  26.674   1.421  0.00  0.00    +0.139 C 
ATOM     16  C   UNL     1     -39.849  25.726   2.435  0.00  0.00    +0.032 C 
ATOM     17  C   UNL     1     -39.090  25.024   3.354  0.00  0.00    +0.036 C 
ATOM     18  C   UNL     1     -35.577  21.155   1.904  0.00  0.00    +0.032 C 
ATOM     19  C   UNL     1     -39.235  26.523   1.493  0.00  0.00    +0.109 C 
ATOM     20  C   UNL     1     -41.316  25.773   2.250  0.00  0.00    +0.218 C 
ATOM     21  C   UNL     1     -40.254  27.137   0.656  0.00  0.00    +0.344 C 
ENDROOT
BRANCH   8  22
ATOM     22  O   UNL     1     -34.859  21.758   6.732  0.00  0.00    -0.384 OA
ATOM     23  H   UNL     1     -34.174  21.136   6.441  0.00  0.00    +0.210 HD
ENDBRANCH   8  22
BRANCH  15  24
ATOM     24  O   UNL     1     -37.298  27.471   0.476  0.00  0.00    -0.506 OA
ATOM     25  H   UNL     1     -36.563  28.010   0.695  0.00  0.00    +0.292 HD
ENDBRANCH  15  24
BRANCH  20  26
ATOM     26  C   UNL     1     -42.073  26.336   3.438  0.00  0.00    +0.155 C 
ATOM     27  C   UNL     1     -43.418  26.922   3.033  0.00  0.00    +0.036 C 
BRANCH  26  28
ATOM     28  O   UNL     1     -41.290  27.355   4.057  0.00  0.00    -0.380 OA
ATOM     29  H   UNL     1     -40.381  27.038   4.172  0.00  0.00    +0.211 HD
ENDBRANCH  26  28
ENDBRANCH  20  26
TORSDOF 4
ENDMDL
MODEL 2
REMARK VINA RESULT:      -6.6      3.454      5.711
REMARK  Name = 53307030
REMARK  4 active torsions:
REMARK  status: ('A' for Active; 'I' for Inactive)
REMARK    1  A    between atoms: C_8  and  O_22
REMARK    2  A    between atoms: C_15  and  O_24
REMARK    3  A    between atoms: C_20  and  C_26
REMARK    4  A    between atoms: C_26  and  O_28
REMARK                            x       y       z     vdW  Elec       q    Type
REMARK                         _______ _______ _______ _____ _____    ______ ____
ROOT
ATOM      1  O   UNL     1     -35.021  23.322   2.834  0.00  0.00    -0.327 OA
ATOM      2  O   UNL     1     -36.296  25.340   3.101  0.00  0.00    -0.459 OA
ATOM      3  O   UNL     1     -33.103  30.277   2.808  0.00  0.00    -0.442 OA
ATOM      4  O   UNL     1     -31.642  29.614   4.476  0.00  0.00    -0.245 OA
ATOM      5  C   UNL     1     -36.043  24.004   3.589  0.00  0.00    +0.231 C 
ATOM      6  C   UNL     1     -35.595  24.075   5.075  0.00  0.00    +0.069 C 
ATOM      7  C   UNL     1     -37.370  23.234   3.443  0.00  0.00    +0.099 C 
ATOM      8  C   UNL     1     -37.751  23.059   1.972  0.00  0.00    +0.119 C 
ATOM      9  C   UNL     1     -34.279  24.864   5.167  0.00  0.00    +0.039 C 
ATOM     10  C   UNL     1     -35.304  23.197   1.437  0.00  0.00    +0.121 C 
ATOM     11  C   UNL     1     -36.597  22.413   1.214  0.00  0.00    +0.059 C 
ATOM     12  C   UNL     1     -34.336  26.114   4.338  0.00  0.00    +0.046 C 
ATOM     13  C   UNL     1     -35.329  26.277   3.352  0.00  0.00    +0.140 C 
ATOM     14  C   UNL     1     -35.401  22.713   5.746  0.00  0.00    +0.007 C 
ATOM     15  C   UNL     1     -33.377  27.117   4.529  0.00  0.00    +0.139 C 
ATOM     16  C   UNL     1     -34.450  28.431   2.798  0.00  0.00    +0.032 C 
ATOM     17  C   UNL     1     -35.398  27.447   2.585  0.00  0.00    +0.036 C 
ATOM     18  C   UNL     1     -34.119  22.491   0.792  0.00  0.00    +0.032 C 
ATOM     19  C   UNL     1     -33.465  28.253   3.746  0.00  0.00    +0.109 C 
ATOM     20  C   UNL     1     -34.271  29.740   2.132  0.00  0.00    +0.218 C 
ATOM     21  C   UNL     1     -32.605  29.427   3.761  0.00  0.00    +0.344 C 
ENDROOT
BRANCH   8  22
ATOM     22  O   UNL     1     -38.907  22.233   1.889  0.00  0.00    -0.384 OA
ATOM     23  H   UNL     1     -39.672  22.712   2.242  0.00  0.00    +0.210 HD
ENDBRANCH   8  22
BRANCH  15  24
ATOM     24  O   UNL     1     -32.390  26.982   5.453  0.00  0.00    -0.506 OA
ATOM     25  H   UNL     1     -32.607  26.807   6.348  0.00  0.00    +0.292 HD
ENDBRANCH  15  24
BRANCH  20  26
ATOM     26  C   UNL     1     -35.435  30.696   2.322  0.00  0.00    +0.155 C 
ATOM     27  C   UNL     1     -35.149  32.069   1.730  0.00  0.00    +0.036 C 
BRANCH  26  28
ATOM     28  O   UNL     1     -35.708  30.837   3.714  0.00  0.00    -0.380 OA
ATOM     29  H   UNL     1     -36.152  31.684   3.871  0.00  0.00    +0.211 HD
ENDBRANCH  26  28
ENDBRANCH  20  26
TORSDOF 4
ENDMDL
MODEL 3
REMARK VINA RESULT:      -6.5      3.947      6.814
REMARK  Name = 53307030
REMARK  4 active torsions:
REMARK  status: ('A' for Active; 'I' for Inactive)
REMARK    1  A    between atoms: C_8  and  O_22
REMARK    2  A    between atoms: C_15  and  O_24
REMARK    3  A    between atoms: C_20  and  C_26
REMARK    4  A    between atoms: C_26  and  O_28
REMARK                            x       y       z     vdW  Elec       q    Type
REMARK                         _______ _______ _______ _____ _____    ______ ____
ROOT
ATOM      1  O   UNL     1     -33.536  20.523  -0.140  0.00  0.00    -0.327 OA
ATOM      2  O   UNL     1     -34.992  22.412   0.142  0.00  0.00    -0.459 OA
ATOM      3  O   UNL     1     -34.830  24.813   5.514  0.00  0.00    -0.442 OA
ATOM      4  O   UNL     1     -35.315  22.821   6.587  0.00  0.00    -0.245 OA
ATOM      5  C   UNL     1     -34.852  21.066  -0.365  0.00  0.00    +0.231 C 
ATOM      6  C   UNL     1     -35.893  20.144   0.329  0.00  0.00    +0.069 C 
ATOM      7  C   UNL     1     -35.106  21.150  -1.883  0.00  0.00    +0.099 C 
ATOM      8  C   UNL     1     -34.014  21.958  -2.585  0.00  0.00    +0.119 C 
ATOM      9  C   UNL     1     -35.605  20.108   1.838  0.00  0.00    +0.039 C 
ATOM     10  C   UNL     1     -32.475  21.288  -0.721  0.00  0.00    +0.121 C 
ATOM     11  C   UNL     1     -32.644  21.387  -2.236  0.00  0.00    +0.059 C 
ATOM     12  C   UNL     1     -35.345  21.486   2.375  0.00  0.00    +0.046 C 
ATOM     13  C   UNL     1     -35.046  22.551   1.503  0.00  0.00    +0.140 C 
ATOM     14  C   UNL     1     -35.923  18.708  -0.201  0.00  0.00    +0.007 C 
ATOM     15  C   UNL     1     -35.374  21.708   3.758  0.00  0.00    +0.139 C 
ATOM     16  C   UNL     1     -34.863  24.044   3.363  0.00  0.00    +0.032 C 
ATOM     17  C   UNL     1     -34.817  23.842   1.995  0.00  0.00    +0.036 C 
ATOM     18  C   UNL     1     -31.165  20.599  -0.362  0.00  0.00    +0.032 C 
ATOM     19  C   UNL     1     -35.130  22.991   4.212  0.00  0.00    +0.109 C 
ATOM     20  C   UNL     1     -34.647  25.278   4.150  0.00  0.00    +0.218 C 
ATOM     21  C   UNL     1     -35.115  23.474   5.584  0.00  0.00    +0.344 C 
ENDROOT
BRANCH   8  22
ATOM     22  O   UNL     1     -34.222  21.894  -3.991  0.00  0.00    -0.384 OA
ATOM     23  H   UNL     1     -33.373  21.998  -4.448  0.00  0.00    +0.210 HD
ENDBRANCH   8  22
BRANCH  15  24
ATOM     24  O   UNL     1     -35.634  20.699   4.629  0.00  0.00    -0.506 OA
ATOM     25  H   UNL     1     -35.423  19.815   4.398  0.00  0.00    +0.292 HD
ENDBRANCH  15  24
BRANCH  20  26
ATOM     26  C   UNL     1     -35.650  26.380   3.864  0.00  0.00    +0.155 C 
ATOM     27  C   UNL     1     -34.990  27.611   3.258  0.00  0.00    +0.036 C 
BRANCH  26  28
ATOM     28  O   UNL     1     -36.302  26.752   5.076  0.00  0.00    -0.380 OA
ATOM     29  H   UNL     1     -37.118  26.238   5.174  0.00  0.00    +0.211 HD
ENDBRANCH  26  28
ENDBRANCH  20  26
TORSDOF 4
ENDMDL
MODEL 4
REMARK VINA RESULT:      -6.4      4.588      6.764
REMARK  Name = 53307030
REMARK  4 active torsions:
REMARK  status: ('A' for Active; 'I' for Inactive)
REMARK    1  A    between atoms: C_8  and  O_22
REMARK    2  A    between atoms: C_15  and  O_24
REMARK    3  A    between atoms: C_20  and  C_26
REMARK    4  A    between atoms: C_26  and  O_28
REMARK                            x       y       z     vdW  Elec       q    Type
REMARK                         _______ _______ _______ _____ _____    ______ ____
ROOT
ATOM      1  O   UNL     1     -29.847  28.851   4.112  0.00  0.00    -0.327 OA
ATOM      2  O   UNL     1     -31.614  28.044   5.525  0.00  0.00    -0.459 OA
ATOM      3  O   UNL     1     -36.279  25.947   2.611  0.00  0.00    -0.442 OA
ATOM      4  O   UNL     1     -36.583  27.890   1.390  0.00  0.00    -0.245 OA
ATOM      5  C   UNL     1     -30.661  29.102   5.275  0.00  0.00    +0.231 C 
ATOM      6  C   UNL     1     -31.422  30.441   5.067  0.00  0.00    +0.069 C 
ATOM      7  C   UNL     1     -29.752  29.164   6.518  0.00  0.00    +0.099 C 
ATOM      8  C   UNL     1     -28.913  27.894   6.656  0.00  0.00    +0.119 C 
ATOM      9  C   UNL     1     -32.324  30.320   3.828  0.00  0.00    +0.039 C 
ATOM     10  C   UNL     1     -29.097  27.634   4.168  0.00  0.00    +0.121 C 
ATOM     11  C   UNL     1     -28.146  27.638   5.364  0.00  0.00    +0.059 C 
ATOM     12  C   UNL     1     -33.075  29.021   3.827  0.00  0.00    +0.046 C 
ATOM     13  C   UNL     1     -32.675  27.960   4.663  0.00  0.00    +0.140 C 
ATOM     14  C   UNL     1     -30.518  31.666   4.901  0.00  0.00    +0.007 C 
ATOM     15  C   UNL     1     -34.168  28.852   2.968  0.00  0.00    +0.139 C 
ATOM     16  C   UNL     1     -34.465  26.607   3.833  0.00  0.00    +0.032 C 
ATOM     17  C   UNL     1     -33.380  26.749   4.680  0.00  0.00    +0.036 C 
ATOM     18  C   UNL     1     -28.328  27.510   2.859  0.00  0.00    +0.032 C 
ATOM     19  C   UNL     1     -34.834  27.640   2.998  0.00  0.00    +0.109 C 
ATOM     20  C   UNL     1     -35.367  25.453   3.629  0.00  0.00    +0.218 C 
ATOM     21  C   UNL     1     -35.991  27.229   2.220  0.00  0.00    +0.344 C 
ENDROOT
BRANCH   8  22
ATOM     22  O   UNL     1     -28.001  28.056   7.737  0.00  0.00    -0.384 OA
ATOM     23  H   UNL     1     -28.447  27.841   8.570  0.00  0.00    +0.210 HD
ENDBRANCH   8  22
BRANCH  15  24
ATOM     24  O   UNL     1     -34.565  29.845   2.130  0.00  0.00    -0.506 OA
ATOM     25  H   UNL     1     -35.041  29.637   1.349  0.00  0.00    +0.292 HD
ENDBRANCH  15  24
BRANCH  20  26
ATOM     26  C   UNL     1     -36.164  25.064   4.861  0.00  0.00    +0.155 C 
ATOM     27  C   UNL     1     -35.633  23.792   5.507  0.00  0.00    +0.036 C 
BRANCH  26  28
ATOM     28  O   UNL     1     -37.528  24.865   4.497  0.00  0.00    -0.380 OA
ATOM     29  H   UNL     1     -37.611  24.887   3.531  0.00  0.00    +0.211 HD
ENDBRANCH  26  28
ENDBRANCH  20  26
TORSDOF 4
ENDMDL
MODEL 5
REMARK VINA RESULT:      -6.3      1.815      6.599
REMARK  Name = 53307030
REMARK  4 active torsions:
REMARK  status: ('A' for Active; 'I' for Inactive)
REMARK    1  A    between atoms: C_8  and  O_22
REMARK    2  A    between atoms: C_15  and  O_24
REMARK    3  A    between atoms: C_20  and  C_26
REMARK    4  A    between atoms: C_26  and  O_28
REMARK                            x       y       z     vdW  Elec       q    Type
REMARK                         _______ _______ _______ _____ _____    ______ ____
ROOT
ATOM      1  O   UNL     1     -40.014  26.646   1.955  0.00  0.00    -0.327 OA
ATOM      2  O   UNL     1     -38.589  24.729   1.700  0.00  0.00    -0.459 OA
ATOM      3  O   UNL     1     -34.708  23.998   6.064  0.00  0.00    -0.442 OA
ATOM      4  O   UNL     1     -33.821  26.124   5.839  0.00  0.00    -0.245 OA
ATOM      5  C   UNL     1     -39.181  25.882   1.060  0.00  0.00    +0.231 C 
ATOM      6  C   UNL     1     -38.055  26.807   0.522  0.00  0.00    +0.069 C 
ATOM      7  C   UNL     1     -40.052  25.336  -0.089  0.00  0.00    +0.099 C 
ATOM      8  C   UNL     1     -41.232  24.524   0.446  0.00  0.00    +0.119 C 
ATOM      9  C   UNL     1     -37.209  27.309   1.703  0.00  0.00    +0.039 C 
ATOM     10  C   UNL     1     -41.092  25.905   2.535  0.00  0.00    +0.121 C 
ATOM     11  C   UNL     1     -42.019  25.358   1.451  0.00  0.00    +0.059 C 
ATOM     12  C   UNL     1     -36.877  26.192   2.648  0.00  0.00    +0.046 C 
ATOM     13  C   UNL     1     -37.587  24.976   2.599  0.00  0.00    +0.140 C 
ATOM     14  C   UNL     1     -38.552  28.015  -0.278  0.00  0.00    +0.007 C 
ATOM     15  C   UNL     1     -35.868  26.368   3.604  0.00  0.00    +0.139 C 
ATOM     16  C   UNL     1     -36.265  24.112   4.396  0.00  0.00    +0.032 C 
ATOM     17  C   UNL     1     -37.273  23.923   3.468  0.00  0.00    +0.036 C 
ATOM     18  C   UNL     1     -41.841  26.845   3.471  0.00  0.00    +0.032 C 
ATOM     19  C   UNL     1     -35.592  25.314   4.455  0.00  0.00    +0.109 C 
ATOM     20  C   UNL     1     -35.741  23.196   5.432  0.00  0.00    +0.218 C 
ATOM     21  C   UNL     1     -34.596  25.247   5.513  0.00  0.00    +0.344 C 
ENDROOT
BRANCH   8  22
ATOM     22  O   UNL     1     -42.072  24.157  -0.642  0.00  0.00    -0.384 OA
ATOM     23  H   UNL     1     -41.608  23.522  -1.209  0.00  0.00    +0.210 HD
ENDBRANCH   8  22
BRANCH  15  24
ATOM     24  O   UNL     1     -35.181  27.537   3.696  0.00  0.00    -0.506 OA
ATOM     25  H   UNL     1     -34.735  27.757   4.490  0.00  0.00    +0.292 HD
ENDBRANCH  15  24
BRANCH  20  26
ATOM     26  C   UNL     1     -35.116  21.928   4.880  0.00  0.00    +0.155 C 
ATOM     27  C   UNL     1     -35.600  21.619   3.470  0.00  0.00    +0.036 C 
BRANCH  26  28
ATOM     28  O   UNL     1     -35.439  20.832   5.733  0.00  0.00    -0.380 OA
ATOM     29  H   UNL     1     -34.634  20.517   6.172  0.00  0.00    +0.211 HD
ENDBRANCH  26  28
ENDBRANCH  20  26
TORSDOF 4
ENDMDL
MODEL 6
REMARK VINA RESULT:      -6.2      2.360      3.398
REMARK  Name = 53307030
REMARK  4 active torsions:
REMARK  status: ('A' for Active; 'I' for Inactive)
REMARK    1  A    between atoms: C_8  and  O_22
REMARK    2  A    between atoms: C_15  and  O_24
REMARK    3  A    between atoms: C_20  and  C_26
REMARK    4  A    between atoms: C_26  and  O_28
REMARK                            x       y       z     vdW  Elec       q    Type
REMARK                         _______ _______ _______ _____ _____    ______ ____
ROOT
ATOM      1  O   UNL     1     -34.900  23.029   2.023  0.00  0.00    -0.327 OA
ATOM      2  O   UNL     1     -37.090  22.053   1.899  0.00  0.00    -0.459 OA
ATOM      3  O   UNL     1     -41.316  25.791   0.220  0.00  0.00    -0.442 OA
ATOM      4  O   UNL     1     -40.836  27.324   1.886  0.00  0.00    -0.245 OA
ATOM      5  C   UNL     1     -35.874  22.186   2.669  0.00  0.00    +0.231 C 
ATOM      6  C   UNL     1     -36.209  22.793   4.059  0.00  0.00    +0.069 C 
ATOM      7  C   UNL     1     -35.294  20.765   2.805  0.00  0.00    +0.099 C 
ATOM      8  C   UNL     1     -34.852  20.213   1.449  0.00  0.00    +0.119 C 
ATOM      9  C   UNL     1     -36.797  24.200   3.866  0.00  0.00    +0.039 C 
ATOM     10  C   UNL     1     -34.508  22.588   0.719  0.00  0.00    +0.121 C 
ATOM     11  C   UNL     1     -33.892  21.192   0.781  0.00  0.00    +0.059 C 
ATOM     12  C   UNL     1     -37.825  24.213   2.772  0.00  0.00    +0.046 C 
ATOM     13  C   UNL     1     -37.908  23.151   1.852  0.00  0.00    +0.140 C 
ATOM     14  C   UNL     1     -35.017  22.884   5.016  0.00  0.00    +0.007 C 
ATOM     15  C   UNL     1     -38.695  25.305   2.651  0.00  0.00    +0.139 C 
ATOM     16  C   UNL     1     -39.732  24.230   0.743  0.00  0.00    +0.032 C 
ATOM     17  C   UNL     1     -38.874  23.149   0.837  0.00  0.00    +0.036 C 
ATOM     18  C   UNL     1     -33.511  23.601   0.173  0.00  0.00    +0.032 C 
ATOM     19  C   UNL     1     -39.628  25.279   1.631  0.00  0.00    +0.109 C 
ATOM     20  C   UNL     1     -40.819  24.500  -0.224  0.00  0.00    +0.218 C 
ATOM     21  C   UNL     1     -40.637  26.275   1.307  0.00  0.00    +0.344 C 
ENDROOT
BRANCH   8  22
ATOM     22  O   UNL     1     -34.207  18.960   1.647  0.00  0.00    -0.384 OA
ATOM     23  H   UNL     1     -34.749  18.406   2.229  0.00  0.00    +0.210 HD
ENDBRANCH   8  22
BRANCH  15  24
ATOM     24  O   UNL     1     -38.627  26.358   3.506  0.00  0.00    -0.506 OA
ATOM     25  H   UNL     1     -39.014  27.179   3.272  0.00  0.00    +0.292 HD
ENDBRANCH  15  24
BRANCH  20  26
ATOM     26  C   UNL     1     -41.952  23.492  -0.180  0.00  0.00    +0.155 C 
ATOM     27  C   UNL     1     -42.345  23.012  -1.570  0.00  0.00    +0.036 C 
BRANCH  26  28
ATOM     28  O   UNL     1     -43.088  24.085   0.445  0.00  0.00    -0.380 OA
ATOM     29  H   UNL     1     -43.571  23.409   0.945  0.00  0.00    +0.211 HD
ENDBRANCH  26  28
ENDBRANCH  20  26
TORSDOF 4
ENDMDL
MODEL 7
REMARK VINA RESULT:      -6.1      3.966      6.444
REMARK  Name = 53307030
REMARK  4 active torsions:
REMARK  status: ('A' for Active; 'I' for Inactive)
REMARK    1  A    between atoms: C_8  and  O_22
REMARK    2  A    between atoms: C_15  and  O_24
REMARK    3  A    between atoms: C_20  and  C_26
REMARK    4  A    between atoms: C_26  and  O_28
REMARK                            x       y       z     vdW  Elec       q    Type
REMARK                         _______ _______ _______ _____ _____    ______ ____
ROOT
ATOM      1  O   UNL     1     -31.111  28.890   3.597  0.00  0.00    -0.327 OA
ATOM      2  O   UNL     1     -32.797  27.841   4.947  0.00  0.00    -0.459 OA
ATOM      3  O   UNL     1     -35.843  23.632   2.179  0.00  0.00    -0.442 OA
ATOM      4  O   UNL     1     -36.470  25.019   0.435  0.00  0.00    -0.245 OA
ATOM      5  C   UNL     1     -32.191  29.085   4.532  0.00  0.00    +0.231 C 
ATOM      6  C   UNL     1     -33.267  29.984   3.864  0.00  0.00    +0.069 C 
ATOM      7  C   UNL     1     -31.632  29.739   5.811  0.00  0.00    +0.099 C 
ATOM      8  C   UNL     1     -30.490  28.915   6.404  0.00  0.00    +0.119 C 
ATOM      9  C   UNL     1     -33.801  29.280   2.606  0.00  0.00    +0.039 C 
ATOM     10  C   UNL     1     -30.049  28.065   4.085  0.00  0.00    +0.121 C 
ATOM     11  C   UNL     1     -29.424  28.671   5.341  0.00  0.00    +0.059 C 
ATOM     12  C   UNL     1     -34.092  27.832   2.875  0.00  0.00    +0.046 C 
ATOM     13  C   UNL     1     -33.570  27.196   4.018  0.00  0.00    +0.140 C 
ATOM     14  C   UNL     1     -32.777  31.381   3.476  0.00  0.00    +0.007 C 
ATOM     15  C   UNL     1     -34.869  27.100   1.968  0.00  0.00    +0.139 C 
ATOM     16  C   UNL     1     -34.629  25.147   3.384  0.00  0.00    +0.032 C 
ATOM     17  C   UNL     1     -33.849  25.849   4.285  0.00  0.00    +0.036 C 
ATOM     18  C   UNL     1     -29.020  27.937   2.970  0.00  0.00    +0.032 C 
ATOM     19  C   UNL     1     -35.115  25.770   2.253  0.00  0.00    +0.109 C 
ATOM     20  C   UNL     1     -35.062  23.733   3.400  0.00  0.00    +0.218 C 
ATOM     21  C   UNL     1     -35.892  24.812   1.483  0.00  0.00    +0.344 C 
ENDROOT
BRANCH   8  22
ATOM     22  O   UNL     1     -29.926  29.625   7.500  0.00  0.00    -0.384 OA
ATOM     23  H   UNL     1     -29.581  30.476   7.190  0.00  0.00    +0.210 HD
ENDBRANCH   8  22
BRANCH  15  24
ATOM     24  O   UNL     1     -35.367  27.675   0.843  0.00  0.00    -0.506 OA
ATOM     25  H   UNL     1     -35.705  28.549   0.873  0.00  0.00    +0.292 HD
ENDBRANCH  15  24
BRANCH  20  26
ATOM     26  C   UNL     1     -35.942  23.368   4.582  0.00  0.00    +0.155 C 
ATOM     27  C   UNL     1     -35.183  22.573   5.635  0.00  0.00    +0.036 C 
BRANCH  26  28
ATOM     28  O   UNL     1     -37.049  22.595   4.125  0.00  0.00    -0.380 OA
ATOM     29  H   UNL     1     -37.148  21.810   4.685  0.00  0.00    +0.211 HD
ENDBRANCH  26  28
ENDBRANCH  20  26
TORSDOF 4
ENDMDL
MODEL 8
REMARK VINA RESULT:      -6.0      3.135      7.168
REMARK  Name = 53307030
REMARK  4 active torsions:
REMARK  status: ('A' for Active; 'I' for Inactive)
REMARK    1  A    between atoms: C_8  and  O_22
REMARK    2  A    between atoms: C_15  and  O_24
REMARK    3  A    between atoms: C_20  and  C_26
REMARK    4  A    between atoms: C_26  and  O_28
REMARK                            x       y       z     vdW  Elec       q    Type
REMARK                         _______ _______ _______ _____ _____    ______ ____
ROOT
ATOM      1  O   UNL     1     -36.361  24.811   3.428  0.00  0.00    -0.327 OA
ATOM      2  O   UNL     1     -34.398  23.976   2.326  0.00  0.00    -0.459 OA
ATOM      3  O   UNL     1     -35.446  19.686  -1.567  0.00  0.00    -0.442 OA
ATOM      4  O   UNL     1     -36.554  18.354  -0.032  0.00  0.00    -0.245 OA
ATOM      5  C   UNL     1     -34.999  24.367   3.581  0.00  0.00    +0.231 C 
ATOM      6  C   UNL     1     -34.978  23.160   4.559  0.00  0.00    +0.069 C 
ATOM      7  C   UNL     1     -34.149  25.535   4.118  0.00  0.00    +0.099 C 
ATOM      8  C   UNL     1     -34.264  26.766   3.218  0.00  0.00    +0.119 C 
ATOM      9  C   UNL     1     -35.824  22.020   3.970  0.00  0.00    +0.039 C 
ATOM     10  C   UNL     1     -36.525  25.918   2.538  0.00  0.00    +0.121 C 
ATOM     11  C   UNL     1     -35.732  27.129   3.027  0.00  0.00    +0.059 C 
ATOM     12  C   UNL     1     -35.520  21.814   2.515  0.00  0.00    +0.046 C 
ATOM     13  C   UNL     1     -34.837  22.800   1.778  0.00  0.00    +0.140 C 
ATOM     14  C   UNL     1     -35.488  23.475   5.968  0.00  0.00    +0.007 C 
ATOM     15  C   UNL     1     -35.942  20.639   1.878  0.00  0.00    +0.139 C 
ATOM     16  C   UNL     1     -34.950  21.436  -0.185  0.00  0.00    +0.032 C 
ATOM     17  C   UNL     1     -34.536  22.608   0.423  0.00  0.00    +0.036 C 
ATOM     18  C   UNL     1     -38.014  26.232   2.467  0.00  0.00    +0.032 C 
ATOM     19  C   UNL     1     -35.642  20.487   0.537  0.00  0.00    +0.109 C 
ATOM     20  C   UNL     1     -34.789  20.982  -1.583  0.00  0.00    +0.218 C 
ATOM     21  C   UNL     1     -35.958  19.367  -0.336  0.00  0.00    +0.344 C 
ENDROOT
BRANCH   8  22
ATOM     22  O   UNL     1     -33.571  27.850   3.825  0.00  0.00    -0.384 OA
ATOM     23  H   UNL     1     -34.149  28.278   4.476  0.00  0.00    +0.210 HD
ENDBRANCH   8  22
BRANCH  15  24
ATOM     24  O   UNL     1     -36.626  19.679   2.552  0.00  0.00    -0.506 OA
ATOM     25  H   UNL     1     -36.974  18.939   2.092  0.00  0.00    +0.292 HD
ENDBRANCH  15  24
BRANCH  20  26
ATOM     26  C   UNL     1     -33.346  20.799  -2.014  0.00  0.00    +0.155 C 
ATOM     27  C   UNL     1     -33.077  21.402  -3.386  0.00  0.00    +0.036 C 
BRANCH  26  28
ATOM     28  O   UNL     1     -33.036  19.408  -2.049  0.00  0.00    -0.380 OA
ATOM     29  H   UNL     1     -32.252  19.238  -1.504  0.00  0.00    +0.211 HD
ENDBRANCH  26  28
ENDBRANCH  20  26
TORSDOF 4
ENDMDL
MODEL 9
REMARK VINA RESULT:      -6.0      3.496      7.175
REMARK  Name = 53307030
REMARK  4 active torsions:
REMARK  status: ('A' for Active; 'I' for Inactive)
REMARK    1  A    between atoms: C_8  and  O_22
REMARK    2  A    between atoms: C_15  and  O_24
REMARK    3  A    between atoms: C_20  and  C_26
REMARK    4  A    between atoms: C_26  and  O_28
REMARK                            x       y       z     vdW  Elec       q    Type
REMARK                         _______ _______ _______ _____ _____    ______ ____
ROOT
ATOM      1  O   UNL     1     -36.556  25.684   1.356  0.00  0.00    -0.327 OA
ATOM      2  O   UNL     1     -35.604  25.624   3.560  0.00  0.00    -0.459 OA
ATOM      3  O   UNL     1     -30.637  28.730   4.137  0.00  0.00    -0.442 OA
ATOM      4  O   UNL     1     -29.570  27.639   2.397  0.00  0.00    -0.245 OA
ATOM      5  C   UNL     1     -36.197  24.862   2.485  0.00  0.00    +0.231 C 
ATOM      6  C   UNL     1     -35.192  23.778   2.007  0.00  0.00    +0.069 C 
ATOM      7  C   UNL     1     -37.474  24.223   3.064  0.00  0.00    +0.099 C 
ATOM      8  C   UNL     1     -38.513  25.285   3.424  0.00  0.00    +0.119 C 
ATOM      9  C   UNL     1     -33.934  24.466   1.455  0.00  0.00    +0.039 C 
ATOM     10  C   UNL     1     -37.475  26.737   1.662  0.00  0.00    +0.121 C 
ATOM     11  C   UNL     1     -38.782  26.174   2.214  0.00  0.00    +0.059 C 
ATOM     12  C   UNL     1     -33.474  25.568   2.363  0.00  0.00    +0.046 C 
ATOM     13  C   UNL     1     -34.332  26.088   3.352  0.00  0.00    +0.140 C 
ATOM     14  C   UNL     1     -35.743  22.827   0.940  0.00  0.00    +0.007 C 
ATOM     15  C   UNL     1     -32.189  26.104   2.210  0.00  0.00    +0.139 C 
ATOM     16  C   UNL     1     -32.628  27.613   4.055  0.00  0.00    +0.032 C 
ATOM     17  C   UNL     1     -33.906  27.107   4.214  0.00  0.00    +0.036 C 
ATOM     18  C   UNL     1     -37.716  27.520   0.378  0.00  0.00    +0.032 C 
ATOM     19  C   UNL     1     -31.803  27.117   3.067  0.00  0.00    +0.109 C 
ATOM     20  C   UNL     1     -31.930  28.685   4.797  0.00  0.00    +0.218 C 
ATOM     21  C   UNL     1     -30.531  27.822   3.116  0.00  0.00    +0.344 C 
ENDROOT
BRANCH   8  22
ATOM     22  O   UNL     1     -39.715  24.640   3.828  0.00  0.00    -0.384 OA
ATOM     23  H   UNL     1     -39.572  23.682   3.858  0.00  0.00    +0.210 HD
ENDBRANCH   8  22
BRANCH  15  24
ATOM     24  O   UNL     1     -31.344  25.644   1.250  0.00  0.00    -0.506 OA
ATOM     25  H   UNL     1     -30.647  26.188   0.939  0.00  0.00    +0.292 HD
ENDBRANCH  15  24
BRANCH  20  26
ATOM     26  C   UNL     1     -31.723  28.385   6.271  0.00  0.00    +0.155 C 
ATOM     27  C   UNL     1     -31.622  29.655   7.104  0.00  0.00    +0.036 C 
BRANCH  26  28
ATOM     28  O   UNL     1     -30.528  27.625   6.435  0.00  0.00    -0.380 OA
ATOM     29  H   UNL     1     -30.752  26.686   6.521  0.00  0.00    +0.211 HD
ENDBRANCH  26  28
ENDBRANCH  20  26
TORSDOF 4
ENDMDL
