MODEL 1
REMARK VINA RESULT:      -6.4      0.000      0.000
REMARK  Name = 20055039
REMARK  10 active torsions:
REMARK  status: ('A' for Active; 'I' for Inactive)
REMARK    1  A    between atoms: N_1  and  C_23
REMARK    2  A    between atoms: C_8  and  O_10
REMARK    3  A    between atoms: O_10  and  C_12
REMARK    4  A    between atoms: C_12  and  C_13
REMARK    5  A    between atoms: C_13  and  C_14
REMARK    6  A    between atoms: C_13  and  C_20
REMARK    7  A    between atoms: C_20  and  O_21
REMARK    8  A    between atoms: C_23  and  C_24
REMARK    9  A    between atoms: C_24  and  C_25
REMARK   10  A    between atoms: C_25  and  S_26
REMARK                            x       y       z     vdW  Elec       q    Type
REMARK                         _______ _______ _______ _____ _____    ______ ____
ROOT
ATOM      1  N   UNL     1     -40.219  25.756   2.315  0.00  0.00    +0.391 N 
ATOM      2  C   UNL     1     -38.778  26.247   2.066  0.00  0.00    -0.051 C 
ATOM      3  C   UNL     1     -40.164  24.391   1.601  0.00  0.00    -0.051 C 
ATOM      4  C   UNL     1     -38.565  25.933   0.576  0.00  0.00    -0.022 C 
ATOM      5  C   UNL     1     -39.465  24.728   0.274  0.00  0.00    -0.022 C 
ATOM      6  C   UNL     1     -37.799  25.434   2.930  0.00  0.00    +0.023 C 
ATOM      7  C   UNL     1     -39.308  23.411   2.424  0.00  0.00    +0.023 C 
ATOM      8  C   UNL     1     -37.881  23.921   2.673  0.00  0.00    +0.165 C 
ATOM      9  C   UNL     1     -40.630  25.694   3.786  0.00  0.00    -0.096 C 
ENDROOT
BRANCH   8  10
ATOM     10  O   UNL     1     -37.301  23.229   3.775  0.00  0.00    -0.452 OA
BRANCH  10  12
ATOM     11  O   UNL     1     -36.239  21.597   2.546  0.00  0.00    -0.250 OA
ATOM     12  C   UNL     1     -36.258  22.394   3.475  0.00  0.00    +0.323 C 
BRANCH  12  13
ATOM     13  C   UNL     1     -35.125  22.602   4.477  0.00  0.00    +0.150 C 
BRANCH  13  14
ATOM     14  C   UNL     1     -34.680  24.056   4.504  0.00  0.00    -0.010 C 
ATOM     15  C   UNL     1     -34.188  24.656   3.345  0.00  0.00    -0.004 C 
ATOM     16  C   UNL     1     -34.763  24.789   5.687  0.00  0.00    -0.004 C 
ATOM     17  C   UNL     1     -33.779  25.989   3.370  0.00  0.00    -0.000 C 
ATOM     18  C   UNL     1     -34.354  26.122   5.712  0.00  0.00    -0.000 C 
ATOM     19  C   UNL     1     -33.863  26.722   4.553  0.00  0.00    -0.000 C 
ENDBRANCH  13  14
BRANCH  13  20
ATOM     20  C   UNL     1     -35.541  22.093   5.865  0.00  0.00    +0.153 C 
BRANCH  20  21
ATOM     21  O   UNL     1     -35.431  20.673   5.904  0.00  0.00    -0.381 OA
ATOM     22  H   UNL     1     -35.741  20.302   5.063  0.00  0.00    +0.210 HD
ENDBRANCH  20  21
ENDBRANCH  13  20
ENDBRANCH  12  13
ENDBRANCH  10  12
ENDBRANCH   8  10
BRANCH   1  23
ATOM     23  C   UNL     1     -41.250  26.692   1.654  0.00  0.00    -0.071 C 
BRANCH  23  24
ATOM     24  C   UNL     1     -42.506  26.796   2.509  0.00  0.00    +0.004 C 
BRANCH  24  25
ATOM     25  C   UNL     1     -43.141  28.181   2.482  0.00  0.00    +0.156 C 
BRANCH  25  26
ATOM     26  S   UNL     1     -43.346  28.821   4.115  0.00  0.00    +0.022 S 
ATOM     27  O   UNL     1     -44.253  27.859   4.738  0.00  0.00    -0.069 OA
ATOM     28  O   UNL     1     -41.984  28.819   4.646  0.00  0.00    -0.069 OA
ATOM     29  O   UNL     1     -43.916  30.147   3.883  0.00  0.00    -0.069 OA
ENDBRANCH  25  26
ENDBRANCH  24  25
ENDBRANCH  23  24
ENDBRANCH   1  23
TORSDOF 10
ENDMDL
MODEL 2
REMARK VINA RESULT:      -6.2      4.895      7.015
REMARK  Name = 20055039
REMARK  10 active torsions:
REMARK  status: ('A' for Active; 'I' for Inactive)
REMARK    1  A    between atoms: N_1  and  C_23
REMARK    2  A    between atoms: C_8  and  O_10
REMARK    3  A    between atoms: O_10  and  C_12
REMARK    4  A    between atoms: C_12  and  C_13
REMARK    5  A    between atoms: C_13  and  C_14
REMARK    6  A    between atoms: C_13  and  C_20
REMARK    7  A    between atoms: C_20  and  O_21
REMARK    8  A    between atoms: C_23  and  C_24
REMARK    9  A    between atoms: C_24  and  C_25
REMARK   10  A    between atoms: C_25  and  S_26
REMARK                            x       y       z     vdW  Elec       q    Type
REMARK                         _______ _______ _______ _____ _____    ______ ____
ROOT
ATOM      1  N   UNL     1     -35.682  25.885   2.978  0.00  0.00    +0.391 N 
ATOM      2  C   UNL     1     -36.814  25.323   3.861  0.00  0.00    -0.051 C 
ATOM      3  C   UNL     1     -34.519  24.973   3.420  0.00  0.00    -0.051 C 
ATOM      4  C   UNL     1     -36.141  25.199   5.238  0.00  0.00    -0.022 C 
ATOM      5  C   UNL     1     -34.651  24.971   4.952  0.00  0.00    -0.022 C 
ATOM      6  C   UNL     1     -37.234  23.936   3.343  0.00  0.00    +0.023 C 
ATOM      7  C   UNL     1     -34.735  23.554   2.861  0.00  0.00    +0.023 C 
ATOM      8  C   UNL     1     -36.071  22.933   3.294  0.00  0.00    +0.165 C 
ATOM      9  C   UNL     1     -35.972  25.871   1.478  0.00  0.00    -0.096 C 
ENDROOT
BRANCH   8  10
ATOM     10  O   UNL     1     -36.417  21.862   2.420  0.00  0.00    -0.452 OA
BRANCH  10  12
ATOM     11  O   UNL     1     -35.052  20.248   3.333  0.00  0.00    -0.250 OA
ATOM     12  C   UNL     1     -35.524  20.826   2.362  0.00  0.00    +0.323 C 
BRANCH  12  13
ATOM     13  C   UNL     1     -35.199  20.505   0.906  0.00  0.00    +0.150 C 
BRANCH  13  14
ATOM     14  C   UNL     1     -33.792  19.944   0.771  0.00  0.00    -0.010 C 
ATOM     15  C   UNL     1     -32.799  20.697   0.143  0.00  0.00    -0.004 C 
ATOM     16  C   UNL     1     -33.494  18.678   1.274  0.00  0.00    -0.004 C 
ATOM     17  C   UNL     1     -31.508  20.183   0.019  0.00  0.00    -0.000 C 
ATOM     18  C   UNL     1     -32.203  18.164   1.150  0.00  0.00    -0.000 C 
ATOM     19  C   UNL     1     -31.211  18.917   0.523  0.00  0.00    -0.000 C 
ENDBRANCH  13  14
BRANCH  13  20
ATOM     20  C   UNL     1     -36.261  19.563   0.318  0.00  0.00    +0.153 C 
BRANCH  20  21
ATOM     21  O   UNL     1     -37.021  18.984   1.375  0.00  0.00    -0.381 OA
ATOM     22  H   UNL     1     -37.928  19.328   1.346  0.00  0.00    +0.210 HD
ENDBRANCH  20  21
ENDBRANCH  13  20
ENDBRANCH  12  13
ENDBRANCH  10  12
ENDBRANCH   8  10
BRANCH   1  23
ATOM     23  C   UNL     1     -35.392  27.361   3.312  0.00  0.00    -0.071 C 
BRANCH  23  24
ATOM     24  C   UNL     1     -34.183  27.860   2.534  0.00  0.00    +0.004 C 
BRANCH  24  25
ATOM     25  C   UNL     1     -33.395  28.938   3.268  0.00  0.00    +0.156 C 
BRANCH  25  26
ATOM     26  S   UNL     1     -32.113  28.231   4.256  0.00  0.00    +0.022 S 
ATOM     27  O   UNL     1     -31.121  29.301   4.331  0.00  0.00    -0.069 OA
ATOM     28  O   UNL     1     -32.793  27.930   5.515  0.00  0.00    -0.069 OA
ATOM     29  O   UNL     1     -31.703  27.060   3.482  0.00  0.00    -0.069 OA
ENDBRANCH  25  26
ENDBRANCH  24  25
ENDBRANCH  23  24
ENDBRANCH   1  23
TORSDOF 10
ENDMDL
MODEL 3
REMARK VINA RESULT:      -6.1      4.858      6.965
REMARK  Name = 20055039
REMARK  10 active torsions:
REMARK  status: ('A' for Active; 'I' for Inactive)
REMARK    1  A    between atoms: N_1  and  C_23
REMARK    2  A    between atoms: C_8  and  O_10
REMARK    3  A    between atoms: O_10  and  C_12
REMARK    4  A    between atoms: C_12  and  C_13
REMARK    5  A    between atoms: C_13  and  C_14
REMARK    6  A    between atoms: C_13  and  C_20
REMARK    7  A    between atoms: C_20  and  O_21
REMARK    8  A    between atoms: C_23  and  C_24
REMARK    9  A    between atoms: C_24  and  C_25
REMARK   10  A    between atoms: C_25  and  S_26
REMARK                            x       y       z     vdW  Elec       q    Type
REMARK                         _______ _______ _______ _____ _____    ______ ____
ROOT
ATOM      1  N   UNL     1     -35.674  24.741   4.176  0.00  0.00    +0.391 N 
ATOM      2  C   UNL     1     -34.836  24.477   2.910  0.00  0.00    -0.051 C 
ATOM      3  C   UNL     1     -37.082  24.827   3.553  0.00  0.00    -0.051 C 
ATOM      4  C   UNL     1     -35.399  25.500   1.909  0.00  0.00    -0.022 C 
ATOM      5  C   UNL     1     -36.858  25.727   2.327  0.00  0.00    -0.022 C 
ATOM      6  C   UNL     1     -35.090  23.044   2.411  0.00  0.00    +0.023 C 
ATOM      7  C   UNL     1     -37.538  23.424   3.112  0.00  0.00    +0.023 C 
ATOM      8  C   UNL     1     -36.572  22.762   2.118  0.00  0.00    +0.165 C 
ATOM      9  C   UNL     1     -35.523  23.691   5.276  0.00  0.00    -0.096 C 
ENDROOT
BRANCH   8  10
ATOM     10  O   UNL     1     -36.783  21.353   2.097  0.00  0.00    -0.452 OA
BRANCH  10  12
ATOM     11  O   UNL     1     -35.044  20.248   3.126  0.00  0.00    -0.250 OA
ATOM     12  C   UNL     1     -35.653  20.580   2.117  0.00  0.00    +0.323 C 
BRANCH  12  13
ATOM     13  C   UNL     1     -35.263  20.198   0.691  0.00  0.00    +0.150 C 
BRANCH  13  14
ATOM     14  C   UNL     1     -33.805  19.769   0.620  0.00  0.00    -0.010 C 
ATOM     15  C   UNL     1     -32.852  20.632   0.078  0.00  0.00    -0.004 C 
ATOM     16  C   UNL     1     -33.423  18.516   1.095  0.00  0.00    -0.004 C 
ATOM     17  C   UNL     1     -31.515  20.239   0.012  0.00  0.00    -0.000 C 
ATOM     18  C   UNL     1     -32.086  18.123   1.029  0.00  0.00    -0.000 C 
ATOM     19  C   UNL     1     -31.132  18.985   0.488  0.00  0.00    -0.000 C 
ENDBRANCH  13  14
BRANCH  13  20
ATOM     20  C   UNL     1     -36.215  19.122   0.148  0.00  0.00    +0.153 C 
BRANCH  20  21
ATOM     21  O   UNL     1     -37.032  18.630   1.206  0.00  0.00    -0.381 OA
ATOM     22  H   UNL     1     -37.316  17.726   1.001  0.00  0.00    +0.210 HD
ENDBRANCH  20  21
ENDBRANCH  13  20
ENDBRANCH  12  13
ENDBRANCH  10  12
ENDBRANCH   8  10
BRANCH   1  23
ATOM     23  C   UNL     1     -35.277  26.074   4.842  0.00  0.00    -0.071 C 
BRANCH  23  24
ATOM     24  C   UNL     1     -33.778  26.116   5.104  0.00  0.00    +0.004 C 
BRANCH  24  25
ATOM     25  C   UNL     1     -33.086  27.311   4.460  0.00  0.00    +0.156 C 
BRANCH  25  26
ATOM     26  S   UNL     1     -32.107  28.193   5.635  0.00  0.00    +0.022 S 
ATOM     27  O   UNL     1     -32.588  27.685   6.918  0.00  0.00    -0.069 OA
ATOM     28  O   UNL     1     -30.741  27.801   5.290  0.00  0.00    -0.069 OA
ATOM     29  O   UNL     1     -32.436  29.591   5.361  0.00  0.00    -0.069 OA
ENDBRANCH  25  26
ENDBRANCH  24  25
ENDBRANCH  23  24
ENDBRANCH   1  23
TORSDOF 10
ENDMDL
MODEL 4
REMARK VINA RESULT:      -6.1      5.666      8.831
REMARK  Name = 20055039
REMARK  10 active torsions:
REMARK  status: ('A' for Active; 'I' for Inactive)
REMARK    1  A    between atoms: N_1  and  C_23
REMARK    2  A    between atoms: C_8  and  O_10
REMARK    3  A    between atoms: O_10  and  C_12
REMARK    4  A    between atoms: C_12  and  C_13
REMARK    5  A    between atoms: C_13  and  C_14
REMARK    6  A    between atoms: C_13  and  C_20
REMARK    7  A    between atoms: C_20  and  O_21
REMARK    8  A    between atoms: C_23  and  C_24
REMARK    9  A    between atoms: C_24  and  C_25
REMARK   10  A    between atoms: C_25  and  S_26
REMARK                            x       y       z     vdW  Elec       q    Type
REMARK                         _______ _______ _______ _____ _____    ______ ____
ROOT
ATOM      1  N   UNL     1     -34.872  19.787  -0.568  0.00  0.00    +0.391 N 
ATOM      2  C   UNL     1     -34.985  21.324  -0.608  0.00  0.00    -0.051 C 
ATOM      3  C   UNL     1     -33.949  19.618   0.656  0.00  0.00    -0.051 C 
ATOM      4  C   UNL     1     -33.528  21.777  -0.414  0.00  0.00    -0.022 C 
ATOM      5  C   UNL     1     -32.855  20.670   0.406  0.00  0.00    -0.022 C 
ATOM      6  C   UNL     1     -35.857  21.809   0.563  0.00  0.00    +0.023 C 
ATOM      7  C   UNL     1     -34.729  19.950   1.941  0.00  0.00    +0.023 C 
ATOM      8  C   UNL     1     -35.324  21.366   1.935  0.00  0.00    +0.165 C 
ATOM      9  C   UNL     1     -36.206  19.049  -0.471  0.00  0.00    -0.096 C 
ENDROOT
BRANCH   8  10
ATOM     10  O   UNL     1     -36.374  21.458   2.894  0.00  0.00    -0.452 OA
BRANCH  10  12
ATOM     11  O   UNL     1     -37.312  23.390   3.724  0.00  0.00    -0.250 OA
ATOM     12  C   UNL     1     -36.385  22.592   3.661  0.00  0.00    +0.323 C 
BRANCH  12  13
ATOM     13  C   UNL     1     -35.067  22.716   4.420  0.00  0.00    +0.150 C 
BRANCH  13  14
ATOM     14  C   UNL     1     -34.589  24.159   4.452  0.00  0.00    -0.010 C 
ATOM     15  C   UNL     1     -34.100  24.757   3.290  0.00  0.00    -0.004 C 
ATOM     16  C   UNL     1     -34.639  24.884   5.642  0.00  0.00    -0.004 C 
ATOM     17  C   UNL     1     -33.661  26.081   3.320  0.00  0.00    -0.000 C 
ATOM     18  C   UNL     1     -34.200  26.208   5.671  0.00  0.00    -0.000 C 
ATOM     19  C   UNL     1     -33.711  26.806   4.509  0.00  0.00    -0.000 C 
ENDBRANCH  13  14
BRANCH  13  20
ATOM     20  C   UNL     1     -35.203  22.115   5.827  0.00  0.00    +0.153 C 
BRANCH  20  21
ATOM     21  O   UNL     1     -35.373  20.704   5.728  0.00  0.00    -0.381 OA
ATOM     22  H   UNL     1     -36.176  20.441   6.203  0.00  0.00    +0.210 HD
ENDBRANCH  20  21
ENDBRANCH  13  20
ENDBRANCH  12  13
ENDBRANCH  10  12
ENDBRANCH   8  10
BRANCH   1  23
ATOM     23  C   UNL     1     -34.208  19.241  -1.848  0.00  0.00    -0.071 C 
BRANCH  23  24
ATOM     24  C   UNL     1     -34.300  17.723  -1.894  0.00  0.00    +0.004 C 
BRANCH  24  25
ATOM     25  C   UNL     1     -32.955  17.030  -1.714  0.00  0.00    +0.156 C 
BRANCH  25  26
ATOM     26  S   UNL     1     -32.968  15.966  -0.305  0.00  0.00    +0.022 S 
ATOM     27  O   UNL     1     -32.527  14.684  -0.851  0.00  0.00    -0.069 OA
ATOM     28  O   UNL     1     -32.020  16.609   0.605  0.00  0.00    -0.069 OA
ATOM     29  O   UNL     1     -34.363  16.006   0.130  0.00  0.00    -0.069 OA
ENDBRANCH  25  26
ENDBRANCH  24  25
ENDBRANCH  23  24
ENDBRANCH   1  23
TORSDOF 10
ENDMDL
MODEL 5
REMARK VINA RESULT:      -5.9      4.872      7.632
REMARK  Name = 20055039
REMARK  10 active torsions:
REMARK  status: ('A' for Active; 'I' for Inactive)
REMARK    1  A    between atoms: N_1  and  C_23
REMARK    2  A    between atoms: C_8  and  O_10
REMARK    3  A    between atoms: O_10  and  C_12
REMARK    4  A    between atoms: C_12  and  C_13
REMARK    5  A    between atoms: C_13  and  C_14
REMARK    6  A    between atoms: C_13  and  C_20
REMARK    7  A    between atoms: C_20  and  O_21
REMARK    8  A    between atoms: C_23  and  C_24
REMARK    9  A    between atoms: C_24  and  C_25
REMARK   10  A    between atoms: C_25  and  S_26
REMARK                            x       y       z     vdW  Elec       q    Type
REMARK                         _______ _______ _______ _____ _____    ______ ____
ROOT
ATOM      1  N   UNL     1     -36.205  24.711   3.514  0.00  0.00    +0.391 N 
ATOM      2  C   UNL     1     -34.740  24.233   3.465  0.00  0.00    -0.051 C 
ATOM      3  C   UNL     1     -36.352  24.969   5.028  0.00  0.00    -0.051 C 
ATOM      4  C   UNL     1     -34.667  23.239   4.636  0.00  0.00    -0.022 C 
ATOM      5  C   UNL     1     -35.713  23.717   5.651  0.00  0.00    -0.022 C 
ATOM      6  C   UNL     1     -33.798  25.425   3.714  0.00  0.00    +0.023 C 
ATOM      7  C   UNL     1     -35.555  26.228   5.416  0.00  0.00    +0.023 C 
ATOM      8  C   UNL     1     -34.066  26.135   5.051  0.00  0.00    +0.165 C 
ATOM      9  C   UNL     1     -36.517  25.914   2.625  0.00  0.00    -0.096 C 
ENDROOT
BRANCH   8  10
ATOM     10  O   UNL     1     -33.491  27.438   5.009  0.00  0.00    -0.452 OA
BRANCH  10  12
ATOM     11  O   UNL     1     -32.197  26.940   6.847  0.00  0.00    -0.250 OA
ATOM     12  C   UNL     1     -32.507  27.687   5.927  0.00  0.00    +0.323 C 
BRANCH  12  13
ATOM     13  C   UNL     1     -31.860  29.039   5.638  0.00  0.00    +0.150 C 
BRANCH  13  14
ATOM     14  C   UNL     1     -30.353  28.978   5.841  0.00  0.00    -0.010 C 
ATOM     15  C   UNL     1     -29.541  28.410   4.859  0.00  0.00    -0.004 C 
ATOM     16  C   UNL     1     -29.786  29.488   7.007  0.00  0.00    -0.004 C 
ATOM     17  C   UNL     1     -28.159  28.354   5.046  0.00  0.00    -0.000 C 
ATOM     18  C   UNL     1     -28.404  29.432   7.193  0.00  0.00    -0.000 C 
ATOM     19  C   UNL     1     -27.592  28.865   6.212  0.00  0.00    -0.000 C 
ENDBRANCH  13  14
BRANCH  13  20
ATOM     20  C   UNL     1     -32.240  29.522   4.230  0.00  0.00    +0.153 C 
BRANCH  20  21
ATOM     21  O   UNL     1     -33.411  30.328   4.304  0.00  0.00    -0.381 OA
ATOM     22  H   UNL     1     -33.157  31.260   4.396  0.00  0.00    +0.210 HD
ENDBRANCH  20  21
ENDBRANCH  13  20
ENDBRANCH  12  13
ENDBRANCH  10  12
ENDBRANCH   8  10
BRANCH   1  23
ATOM     23  C   UNL     1     -37.170  23.606   3.040  0.00  0.00    -0.071 C 
BRANCH  23  24
ATOM     24  C   UNL     1     -36.666  22.970   1.752  0.00  0.00    +0.004 C 
BRANCH  24  25
ATOM     25  C   UNL     1     -36.898  21.466   1.691  0.00  0.00    +0.156 C 
BRANCH  25  26
ATOM     26  S   UNL     1     -35.370  20.581   1.734  0.00  0.00    +0.022 S 
ATOM     27  O   UNL     1     -35.630  19.426   0.878  0.00  0.00    -0.069 OA
ATOM     28  O   UNL     1     -34.412  21.546   1.196  0.00  0.00    -0.069 OA
ATOM     29  O   UNL     1     -35.204  20.273   3.154  0.00  0.00    -0.069 OA
ENDBRANCH  25  26
ENDBRANCH  24  25
ENDBRANCH  23  24
ENDBRANCH   1  23
TORSDOF 10
ENDMDL
MODEL 6
REMARK VINA RESULT:      -5.9      4.662      7.046
REMARK  Name = 20055039
REMARK  10 active torsions:
REMARK  status: ('A' for Active; 'I' for Inactive)
REMARK    1  A    between atoms: N_1  and  C_23
REMARK    2  A    between atoms: C_8  and  O_10
REMARK    3  A    between atoms: O_10  and  C_12
REMARK    4  A    between atoms: C_12  and  C_13
REMARK    5  A    between atoms: C_13  and  C_14
REMARK    6  A    between atoms: C_13  and  C_20
REMARK    7  A    between atoms: C_20  and  O_21
REMARK    8  A    between atoms: C_23  and  C_24
REMARK    9  A    between atoms: C_24  and  C_25
REMARK   10  A    between atoms: C_25  and  S_26
REMARK                            x       y       z     vdW  Elec       q    Type
REMARK                         _______ _______ _______ _____ _____    ______ ____
ROOT
ATOM      1  N   UNL     1     -36.037  23.154   3.616  0.00  0.00    +0.391 N 
ATOM      2  C   UNL     1     -35.156  23.367   2.368  0.00  0.00    -0.051 C 
ATOM      3  C   UNL     1     -37.414  22.977   2.944  0.00  0.00    -0.051 C 
ATOM      4  C   UNL     1     -35.975  24.373   1.542  0.00  0.00    -0.022 C 
ATOM      5  C   UNL     1     -37.441  24.119   1.916  0.00  0.00    -0.022 C 
ATOM      6  C   UNL     1     -35.010  22.039   1.605  0.00  0.00    +0.023 C 
ATOM      7  C   UNL     1     -37.470  21.613   2.233  0.00  0.00    +0.023 C 
ATOM      8  C   UNL     1     -36.359  21.433   1.187  0.00  0.00    +0.165 C 
ATOM      9  C   UNL     1     -35.607  21.994   4.513  0.00  0.00    -0.096 C 
ENDROOT
BRANCH   8  10
ATOM     10  O   UNL     1     -36.178  20.049   0.901  0.00  0.00    -0.452 OA
BRANCH  10  12
ATOM     11  O   UNL     1     -37.395  20.128  -1.052  0.00  0.00    -0.250 OA
ATOM     12  C   UNL     1     -36.493  19.656  -0.372  0.00  0.00    +0.323 C 
BRANCH  12  13
ATOM     13  C   UNL     1     -35.553  18.538  -0.815  0.00  0.00    +0.150 C 
BRANCH  13  14
ATOM     14  C   UNL     1     -34.134  18.791  -0.329  0.00  0.00    -0.010 C 
ATOM     15  C   UNL     1     -33.602  18.016   0.701  0.00  0.00    -0.004 C 
ATOM     16  C   UNL     1     -33.367  19.798  -0.913  0.00  0.00    -0.004 C 
ATOM     17  C   UNL     1     -32.300  18.248   1.147  0.00  0.00    -0.000 C 
ATOM     18  C   UNL     1     -32.066  20.030  -0.467  0.00  0.00    -0.000 C 
ATOM     19  C   UNL     1     -31.533  19.255   0.563  0.00  0.00    -0.000 C 
ENDBRANCH  13  14
BRANCH  13  20
ATOM     20  C   UNL     1     -36.093  17.175  -0.356  0.00  0.00    +0.153 C 
BRANCH  20  21
ATOM     21  O   UNL     1     -37.284  17.365   0.402  0.00  0.00    -0.381 OA
ATOM     22  H   UNL     1     -37.126  17.105   1.323  0.00  0.00    +0.210 HD
ENDBRANCH  20  21
ENDBRANCH  13  20
ENDBRANCH  12  13
ENDBRANCH  10  12
ENDBRANCH   8  10
BRANCH   1  23
ATOM     23  C   UNL     1     -36.017  24.393   4.533  0.00  0.00    -0.071 C 
BRANCH  23  24
ATOM     24  C   UNL     1     -34.687  24.498   5.265  0.00  0.00    +0.004 C 
BRANCH  24  25
ATOM     25  C   UNL     1     -34.400  25.896   5.797  0.00  0.00    +0.156 C 
BRANCH  25  26
ATOM     26  S   UNL     1     -33.608  26.895   4.576  0.00  0.00    +0.022 S 
ATOM     27  O   UNL     1     -32.878  25.919   3.769  0.00  0.00    -0.069 OA
ATOM     28  O   UNL     1     -34.730  27.543   3.897  0.00  0.00    -0.069 OA
ATOM     29  O   UNL     1     -32.768  27.791   5.371  0.00  0.00    -0.069 OA
ENDBRANCH  25  26
ENDBRANCH  24  25
ENDBRANCH  23  24
ENDBRANCH   1  23
TORSDOF 10
ENDMDL
MODEL 7
REMARK VINA RESULT:      -5.8      5.247      8.126
REMARK  Name = 20055039
REMARK  10 active torsions:
REMARK  status: ('A' for Active; 'I' for Inactive)
REMARK    1  A    between atoms: N_1  and  C_23
REMARK    2  A    between atoms: C_8  and  O_10
REMARK    3  A    between atoms: O_10  and  C_12
REMARK    4  A    between atoms: C_12  and  C_13
REMARK    5  A    between atoms: C_13  and  C_14
REMARK    6  A    between atoms: C_13  and  C_20
REMARK    7  A    between atoms: C_20  and  O_21
REMARK    8  A    between atoms: C_23  and  C_24
REMARK    9  A    between atoms: C_24  and  C_25
REMARK   10  A    between atoms: C_25  and  S_26
REMARK                            x       y       z     vdW  Elec       q    Type
REMARK                         _______ _______ _______ _____ _____    ______ ____
ROOT
ATOM      1  N   UNL     1     -35.665  20.171  -0.209  0.00  0.00    +0.391 N 
ATOM      2  C   UNL     1     -35.234  21.652  -0.207  0.00  0.00    -0.051 C 
ATOM      3  C   UNL     1     -34.976  19.689   1.083  0.00  0.00    -0.051 C 
ATOM      4  C   UNL     1     -33.735  21.569   0.128  0.00  0.00    -0.022 C 
ATOM      5  C   UNL     1     -33.568  20.295   0.965  0.00  0.00    -0.022 C 
ATOM      6  C   UNL     1     -35.989  22.408   0.901  0.00  0.00    +0.023 C 
ATOM      7  C   UNL     1     -35.709  20.269   2.306  0.00  0.00    +0.023 C 
ATOM      8  C   UNL     1     -35.773  21.804   2.298  0.00  0.00    +0.165 C 
ATOM      9  C   UNL     1     -37.176  19.943  -0.254  0.00  0.00    -0.096 C 
ENDROOT
BRANCH   8  10
ATOM     10  O   UNL     1     -36.811  22.254   3.164  0.00  0.00    -0.452 OA
BRANCH  10  12
ATOM     11  O   UNL     1     -37.282  24.236   4.236  0.00  0.00    -0.250 OA
ATOM     12  C   UNL     1     -36.507  23.332   3.951  0.00  0.00    +0.323 C 
BRANCH  12  13
ATOM     13  C   UNL     1     -35.055  23.243   4.413  0.00  0.00    +0.150 C 
BRANCH  13  14
ATOM     14  C   UNL     1     -34.400  24.616   4.424  0.00  0.00    -0.010 C 
ATOM     15  C   UNL     1     -34.269  25.316   5.624  0.00  0.00    -0.004 C 
ATOM     16  C   UNL     1     -33.929  25.173   3.236  0.00  0.00    -0.004 C 
ATOM     17  C   UNL     1     -33.668  26.575   5.634  0.00  0.00    -0.000 C 
ATOM     18  C   UNL     1     -33.328  26.432   3.246  0.00  0.00    -0.000 C 
ATOM     19  C   UNL     1     -33.198  27.132   4.446  0.00  0.00    -0.000 C 
ENDBRANCH  13  14
BRANCH  13  20
ATOM     20  C   UNL     1     -34.972  22.546   5.779  0.00  0.00    +0.153 C 
BRANCH  20  21
ATOM     21  O   UNL     1     -36.262  22.069   6.149  0.00  0.00    -0.381 OA
ATOM     22  H   UNL     1     -36.736  21.771   5.357  0.00  0.00    +0.210 HD
ENDBRANCH  20  21
ENDBRANCH  13  20
ENDBRANCH  12  13
ENDBRANCH  10  12
ENDBRANCH   8  10
BRANCH   1  23
ATOM     23  C   UNL     1     -35.116  19.431  -1.445  0.00  0.00    -0.071 C 
BRANCH  23  24
ATOM     24  C   UNL     1     -34.937  17.949  -1.148  0.00  0.00    +0.004 C 
BRANCH  24  25
ATOM     25  C   UNL     1     -36.027  17.076  -1.755  0.00  0.00    +0.156 C 
BRANCH  25  26
ATOM     26  S   UNL     1     -36.458  15.747  -0.675  0.00  0.00    +0.022 S 
ATOM     27  O   UNL     1     -37.564  16.296   0.105  0.00  0.00    -0.069 OA
ATOM     28  O   UNL     1     -36.826  14.675  -1.599  0.00  0.00    -0.069 OA
ATOM     29  O   UNL     1     -35.225  15.516   0.077  0.00  0.00    -0.069 OA
ENDBRANCH  25  26
ENDBRANCH  24  25
ENDBRANCH  23  24
ENDBRANCH   1  23
TORSDOF 10
ENDMDL
MODEL 8
REMARK VINA RESULT:      -5.6      4.899      7.446
REMARK  Name = 20055039
REMARK  10 active torsions:
REMARK  status: ('A' for Active; 'I' for Inactive)
REMARK    1  A    between atoms: N_1  and  C_23
REMARK    2  A    between atoms: C_8  and  O_10
REMARK    3  A    between atoms: O_10  and  C_12
REMARK    4  A    between atoms: C_12  and  C_13
REMARK    5  A    between atoms: C_13  and  C_14
REMARK    6  A    between atoms: C_13  and  C_20
REMARK    7  A    between atoms: C_20  and  O_21
REMARK    8  A    between atoms: C_23  and  C_24
REMARK    9  A    between atoms: C_24  and  C_25
REMARK   10  A    between atoms: C_25  and  S_26
REMARK                            x       y       z     vdW  Elec       q    Type
REMARK                         _______ _______ _______ _____ _____    ______ ____
ROOT
ATOM      1  N   UNL     1     -36.218  24.646   3.509  0.00  0.00    +0.391 N 
ATOM      2  C   UNL     1     -34.747  24.186   3.451  0.00  0.00    -0.051 C 
ATOM      3  C   UNL     1     -36.359  24.905   5.023  0.00  0.00    -0.051 C 
ATOM      4  C   UNL     1     -34.654  23.195   4.623  0.00  0.00    -0.022 C 
ATOM      5  C   UNL     1     -35.700  23.661   5.643  0.00  0.00    -0.022 C 
ATOM      6  C   UNL     1     -33.819  25.390   3.693  0.00  0.00    +0.023 C 
ATOM      7  C   UNL     1     -35.575  26.173   5.405  0.00  0.00    +0.023 C 
ATOM      8  C   UNL     1     -34.087  26.098   5.031  0.00  0.00    +0.165 C 
ATOM      9  C   UNL     1     -36.550  25.844   2.620  0.00  0.00    -0.096 C 
ENDROOT
BRANCH   8  10
ATOM     10  O   UNL     1     -33.529  27.408   4.983  0.00  0.00    -0.452 OA
BRANCH  10  12
ATOM     11  O   UNL     1     -32.331  27.038   6.915  0.00  0.00    -0.250 OA
ATOM     12  C   UNL     1     -32.527  27.664   5.880  0.00  0.00    +0.323 C 
BRANCH  12  13
ATOM     13  C   UNL     1     -31.693  28.849   5.400  0.00  0.00    +0.150 C 
BRANCH  13  14
ATOM     14  C   UNL     1     -32.261  29.431   4.114  0.00  0.00    -0.010 C 
ATOM     15  C   UNL     1     -31.995  28.813   2.892  0.00  0.00    -0.004 C 
ATOM     16  C   UNL     1     -33.047  30.581   4.158  0.00  0.00    -0.004 C 
ATOM     17  C   UNL     1     -32.515  29.347   1.713  0.00  0.00    -0.000 C 
ATOM     18  C   UNL     1     -33.568  31.115   2.978  0.00  0.00    -0.000 C 
ATOM     19  C   UNL     1     -33.301  30.497   1.757  0.00  0.00    -0.000 C 
ENDBRANCH  13  14
BRANCH  13  20
ATOM     20  C   UNL     1     -31.570  29.900   6.512  0.00  0.00    +0.153 C 
BRANCH  20  21
ATOM     21  O   UNL     1     -30.732  29.401   7.550  0.00  0.00    -0.381 OA
ATOM     22  H   UNL     1     -30.368  30.143   8.057  0.00  0.00    +0.210 HD
ENDBRANCH  20  21
ENDBRANCH  13  20
ENDBRANCH  12  13
ENDBRANCH  10  12
ENDBRANCH   8  10
BRANCH   1  23
ATOM     23  C   UNL     1     -37.171  23.529   3.042  0.00  0.00    -0.071 C 
BRANCH  23  24
ATOM     24  C   UNL     1     -36.673  22.904   1.747  0.00  0.00    +0.004 C 
BRANCH  24  25
ATOM     25  C   UNL     1     -36.889  21.397   1.681  0.00  0.00    +0.156 C 
BRANCH  25  26
ATOM     26  S   UNL     1     -35.350  20.531   1.662  0.00  0.00    +0.022 S 
ATOM     27  O   UNL     1     -34.425  21.508   1.091  0.00  0.00    -0.069 OA
ATOM     28  O   UNL     1     -35.126  20.220   3.073  0.00  0.00    -0.069 OA
ATOM     29  O   UNL     1     -35.629  19.375   0.812  0.00  0.00    -0.069 OA
ENDBRANCH  25  26
ENDBRANCH  24  25
ENDBRANCH  23  24
ENDBRANCH   1  23
TORSDOF 10
ENDMDL
MODEL 9
REMARK VINA RESULT:      -5.5      1.413      1.908
REMARK  Name = 20055039
REMARK  10 active torsions:
REMARK  status: ('A' for Active; 'I' for Inactive)
REMARK    1  A    between atoms: N_1  and  C_23
REMARK    2  A    between atoms: C_8  and  O_10
REMARK    3  A    between atoms: O_10  and  C_12
REMARK    4  A    between atoms: C_12  and  C_13
REMARK    5  A    between atoms: C_13  and  C_14
REMARK    6  A    between atoms: C_13  and  C_20
REMARK    7  A    between atoms: C_20  and  O_21
REMARK    8  A    between atoms: C_23  and  C_24
REMARK    9  A    between atoms: C_24  and  C_25
REMARK   10  A    between atoms: C_25  and  S_26
REMARK                            x       y       z     vdW  Elec       q    Type
REMARK                         _______ _______ _______ _____ _____    ______ ____
ROOT
ATOM      1  N   UNL     1     -40.521  25.516   1.577  0.00  0.00    +0.391 N 
ATOM      2  C   UNL     1     -39.267  25.850   0.745  0.00  0.00    -0.051 C 
ATOM      3  C   UNL     1     -40.914  24.167   0.941  0.00  0.00    -0.051 C 
ATOM      4  C   UNL     1     -39.721  25.544  -0.692  0.00  0.00    -0.022 C 
ATOM      5  C   UNL     1     -40.790  24.452  -0.565  0.00  0.00    -0.022 C 
ATOM      6  C   UNL     1     -38.113  24.917   1.152  0.00  0.00    +0.023 C 
ATOM      7  C   UNL     1     -39.907  23.083   1.366  0.00  0.00    +0.023 C 
ATOM      8  C   UNL     1     -38.457  23.427   0.993  0.00  0.00    +0.165 C 
ATOM      9  C   UNL     1     -40.295  25.470   3.088  0.00  0.00    -0.096 C 
ENDROOT
BRANCH   8  10
ATOM     10  O   UNL     1     -37.555  22.654   1.778  0.00  0.00    -0.452 OA
BRANCH  10  12
ATOM     11  O   UNL     1     -36.269  22.190  -0.074  0.00  0.00    -0.250 OA
ATOM     12  C   UNL     1     -36.420  22.230   1.140  0.00  0.00    +0.323 C 
BRANCH  12  13
ATOM     13  C   UNL     1     -35.375  21.808   2.169  0.00  0.00    +0.150 C 
BRANCH  13  14
ATOM     14  C   UNL     1     -35.266  22.832   3.289  0.00  0.00    -0.010 C 
ATOM     15  C   UNL     1     -34.847  24.132   3.005  0.00  0.00    -0.004 C 
ATOM     16  C   UNL     1     -35.586  22.472   4.597  0.00  0.00    -0.004 C 
ATOM     17  C   UNL     1     -34.747  25.072   4.031  0.00  0.00    -0.000 C 
ATOM     18  C   UNL     1     -35.486  23.412   5.623  0.00  0.00    -0.000 C 
ATOM     19  C   UNL     1     -35.066  24.712   5.339  0.00  0.00    -0.000 C 
ENDBRANCH  13  14
BRANCH  13  20
ATOM     20  C   UNL     1     -35.684  20.399   2.696  0.00  0.00    +0.153 C 
BRANCH  20  21
ATOM     21  O   UNL     1     -36.692  19.799   1.889  0.00  0.00    -0.381 OA
ATOM     22  H   UNL     1     -37.084  20.470   1.309  0.00  0.00    +0.210 HD
ENDBRANCH  20  21
ENDBRANCH  13  20
ENDBRANCH  12  13
ENDBRANCH  10  12
ENDBRANCH   8  10
BRANCH   1  23
ATOM     23  C   UNL     1     -41.625  26.573   1.373  0.00  0.00    -0.071 C 
BRANCH  23  24
ATOM     24  C   UNL     1     -42.282  26.926   2.700  0.00  0.00    +0.004 C 
BRANCH  24  25
ATOM     25  C   UNL     1     -43.149  28.176   2.630  0.00  0.00    +0.156 C 
BRANCH  25  26
ATOM     26  S   UNL     1     -43.366  28.893   4.229  0.00  0.00    +0.022 S 
ATOM     27  O   UNL     1     -44.298  27.977   4.882  0.00  0.00    -0.069 OA
ATOM     28  O   UNL     1     -42.012  28.893   4.780  0.00  0.00    -0.069 OA
ATOM     29  O   UNL     1     -43.909  30.218   3.930  0.00  0.00    -0.069 OA
ENDBRANCH  25  26
ENDBRANCH  24  25
ENDBRANCH  23  24
ENDBRANCH   1  23
TORSDOF 10
ENDMDL
