MODEL 1
REMARK VINA RESULT:      -5.4      0.000      0.000
REMARK  Name = 54677885
REMARK  6 active torsions:
REMARK  status: ('A' for Active; 'I' for Inactive)
REMARK    1  A    between atoms: C3*_2  and  O3*_15
REMARK    2  A    between atoms: C2*_3  and  O2*_17
REMARK    3  A    between atoms: C4*_4  and  C5*_19
REMARK    4  A    between atoms: C1*_5  and  N_7
REMARK    5  A    between atoms: C_12  and  O_13
REMARK    6  A    between atoms: C5*_19  and  O5*_20
REMARK                            x       y       z     vdW  Elec       q    Type
REMARK                         _______ _______ _______ _____ _____    ______ ____
ROOT
ATOM      1  O4* UNL     1     -35.264  23.563   3.743  0.00  0.00    -0.332 OA
ATOM      2  C3* UNL     1     -34.928  24.776   5.750  0.00  0.00    +0.171 C 
ATOM      3  C2* UNL     1     -36.224  25.238   5.118  0.00  0.00    +0.188 C 
ATOM      4  C4* UNL     1     -34.700  23.434   5.066  0.00  0.00    +0.176 C 
ATOM      5  C1* UNL     1     -36.067  24.753   3.686  0.00  0.00    +0.245 C 
ENDROOT
BRANCH   5   7
ATOM      6  O   UNL     1     -37.816  26.632   2.487  0.00  0.00    -0.268 OA
ATOM      7  N   UNL     1     -37.325  24.439   3.073  0.00  0.00    -0.149 N 
ATOM      8  N   UNL     1     -37.695  23.114   3.074  0.00  0.00    -0.169 NA
ATOM      9  C   UNL     1     -38.119  25.439   2.505  0.00  0.00    +0.273 C 
ATOM     10  C   UNL     1     -39.402  25.020   1.892  0.00  0.00    +0.098 C 
ATOM     11  C   UNL     1     -38.821  22.805   2.527  0.00  0.00    +0.155 C 
ATOM     12  C   UNL     1     -39.759  23.736   1.895  0.00  0.00    +0.159 C 
BRANCH  12  13
ATOM     13  O   UNL     1     -40.930  23.283   1.343  0.00  0.00    -0.504 OA
ATOM     14  H   UNL     1     -41.751  23.512   1.732  0.00  0.00    +0.292 HD
ENDBRANCH  12  13
ENDBRANCH   5   7
BRANCH   2  15
ATOM     15  O3* UNL     1     -33.859  25.646   5.378  0.00  0.00    -0.379 OA
ATOM     16  H3* UNL     1     -33.084  25.118   5.130  0.00  0.00    +0.211 HD
ENDBRANCH   2  15
BRANCH   3  17
ATOM     17  O2* UNL     1     -36.393  26.638   5.202  0.00  0.00    -0.378 OA
ATOM     18  H2* UNL     1     -35.950  27.063   4.451  0.00  0.00    +0.211 HD
ENDBRANCH   3  17
BRANCH   4  19
ATOM     19  C5* UNL     1     -35.395  22.276   5.768  0.00  0.00    +0.169 C 
BRANCH  19  20
ATOM     20  O5* UNL     1     -35.736  21.299   4.801  0.00  0.00    -0.379 OA
ATOM     21  H5* UNL     1     -36.368  21.676   4.168  0.00  0.00    +0.211 HD
ENDBRANCH  19  20
ENDBRANCH   4  19
TORSDOF 6
ENDMDL
MODEL 2
REMARK VINA RESULT:      -5.3      1.361      2.168
REMARK  Name = 54677885
REMARK  6 active torsions:
REMARK  status: ('A' for Active; 'I' for Inactive)
REMARK    1  A    between atoms: C3*_2  and  O3*_15
REMARK    2  A    between atoms: C2*_3  and  O2*_17
REMARK    3  A    between atoms: C4*_4  and  C5*_19
REMARK    4  A    between atoms: C1*_5  and  N_7
REMARK    5  A    between atoms: C_12  and  O_13
REMARK    6  A    between atoms: C5*_19  and  O5*_20
REMARK                            x       y       z     vdW  Elec       q    Type
REMARK                         _______ _______ _______ _____ _____    ______ ____
ROOT
ATOM      1  O4* UNL     1     -35.219  22.870   4.000  0.00  0.00    -0.332 OA
ATOM      2  C3* UNL     1     -35.433  24.647   5.552  0.00  0.00    +0.171 C 
ATOM      3  C2* UNL     1     -36.660  24.630   4.665  0.00  0.00    +0.188 C 
ATOM      4  C4* UNL     1     -34.875  23.244   5.353  0.00  0.00    +0.176 C 
ATOM      5  C1* UNL     1     -36.184  23.801   3.484  0.00  0.00    +0.245 C 
ENDROOT
BRANCH   5   7
ATOM      6  O   UNL     1     -35.873  21.439   1.951  0.00  0.00    -0.268 OA
ATOM      7  N   UNL     1     -37.251  23.071   2.862  0.00  0.00    -0.149 N 
ATOM      8  N   UNL     1     -38.520  23.572   3.036  0.00  0.00    -0.169 NA
ATOM      9  C   UNL     1     -36.996  21.912   2.124  0.00  0.00    +0.273 C 
ATOM     10  C   UNL     1     -38.161  21.223   1.519  0.00  0.00    +0.098 C 
ATOM     11  C   UNL     1     -39.498  22.933   2.489  0.00  0.00    +0.155 C 
ATOM     12  C   UNL     1     -39.389  21.711   1.689  0.00  0.00    +0.159 C 
BRANCH  12  13
ATOM     13  O   UNL     1     -40.508  21.120   1.158  0.00  0.00    -0.504 OA
ATOM     14  H   UNL     1     -41.161  21.645   0.737  0.00  0.00    +0.292 HD
ENDBRANCH  12  13
ENDBRANCH   5   7
BRANCH   2  15
ATOM     15  O3* UNL     1     -34.473  25.577   5.050  0.00  0.00    -0.379 OA
ATOM     16  H3* UNL     1     -33.755  25.679   5.694  0.00  0.00    +0.211 HD
ENDBRANCH   2  15
BRANCH   3  17
ATOM     17  O2* UNL     1     -37.067  25.930   4.288  0.00  0.00    -0.378 OA
ATOM     18  H2* UNL     1     -36.369  26.565   4.514  0.00  0.00    +0.211 HD
ENDBRANCH   3  17
BRANCH   4  19
ATOM     19  C5* UNL     1     -35.481  22.217   6.298  0.00  0.00    +0.169 C 
BRANCH  19  20
ATOM     20  O5* UNL     1     -35.343  20.931   5.719  0.00  0.00    -0.379 OA
ATOM     21  H5* UNL     1     -35.336  21.010   4.752  0.00  0.00    +0.211 HD
ENDBRANCH  19  20
ENDBRANCH   4  19
TORSDOF 6
ENDMDL
MODEL 3
REMARK VINA RESULT:      -5.1      2.667      5.126
REMARK  Name = 54677885
REMARK  6 active torsions:
REMARK  status: ('A' for Active; 'I' for Inactive)
REMARK    1  A    between atoms: C3*_2  and  O3*_15
REMARK    2  A    between atoms: C2*_3  and  O2*_17
REMARK    3  A    between atoms: C4*_4  and  C5*_19
REMARK    4  A    between atoms: C1*_5  and  N_7
REMARK    5  A    between atoms: C_12  and  O_13
REMARK    6  A    between atoms: C5*_19  and  O5*_20
REMARK                            x       y       z     vdW  Elec       q    Type
REMARK                         _______ _______ _______ _____ _____    ______ ____
ROOT
ATOM      1  O4* UNL     1     -34.992  21.310   2.355  0.00  0.00    -0.332 OA
ATOM      2  C3* UNL     1     -36.658  20.453   0.905  0.00  0.00    +0.171 C 
ATOM      3  C2* UNL     1     -37.311  21.413   1.878  0.00  0.00    +0.188 C 
ATOM      4  C4* UNL     1     -35.191  20.852   1.000  0.00  0.00    +0.176 C 
ATOM      5  C1* UNL     1     -36.271  21.499   2.982  0.00  0.00    +0.245 C 
ENDROOT
BRANCH   5   7
ATOM      6  O   UNL     1     -35.084  22.039   5.497  0.00  0.00    -0.268 OA
ATOM      7  N   UNL     1     -36.282  22.770   3.647  0.00  0.00    -0.149 N 
ATOM      8  N   UNL     1     -36.922  23.798   2.995  0.00  0.00    -0.169 NA
ATOM      9  C   UNL     1     -35.665  22.938   4.890  0.00  0.00    +0.273 C 
ATOM     10  C   UNL     1     -35.726  24.288   5.500  0.00  0.00    +0.098 C 
ATOM     11  C   UNL     1     -36.944  24.952   3.570  0.00  0.00    +0.155 C 
ATOM     12  C   UNL     1     -36.347  25.282   4.867  0.00  0.00    +0.159 C 
BRANCH  12  13
ATOM     13  O   UNL     1     -36.436  26.553   5.375  0.00  0.00    -0.504 OA
ATOM     14  H   UNL     1     -36.131  27.282   4.872  0.00  0.00    +0.292 HD
ENDBRANCH  12  13
ENDBRANCH   5   7
BRANCH   2  15
ATOM     15  O3* UNL     1     -36.780  19.111   1.378  0.00  0.00    -0.379 OA
ATOM     16  H3* UNL     1     -37.574  19.034   1.930  0.00  0.00    +0.211 HD
ENDBRANCH   2  15
BRANCH   3  17
ATOM     17  O2* UNL     1     -38.559  20.939   2.342  0.00  0.00    -0.378 OA
ATOM     18  H2* UNL     1     -38.416  20.201   2.955  0.00  0.00    +0.211 HD
ENDBRANCH   3  17
BRANCH   4  19
ATOM     19  C5* UNL     1     -34.815  21.984   0.055  0.00  0.00    +0.169 C 
BRANCH  19  20
ATOM     20  O5* UNL     1     -34.403  23.100   0.826  0.00  0.00    -0.379 OA
ATOM     21  H5* UNL     1     -35.159  23.443   1.328  0.00  0.00    +0.211 HD
ENDBRANCH  19  20
ENDBRANCH   4  19
TORSDOF 6
ENDMDL
MODEL 4
REMARK VINA RESULT:      -5.1      1.033      1.164
REMARK  Name = 54677885
REMARK  6 active torsions:
REMARK  status: ('A' for Active; 'I' for Inactive)
REMARK    1  A    between atoms: C3*_2  and  O3*_15
REMARK    2  A    between atoms: C2*_3  and  O2*_17
REMARK    3  A    between atoms: C4*_4  and  C5*_19
REMARK    4  A    between atoms: C1*_5  and  N_7
REMARK    5  A    between atoms: C_12  and  O_13
REMARK    6  A    between atoms: C5*_19  and  O5*_20
REMARK                            x       y       z     vdW  Elec       q    Type
REMARK                         _______ _______ _______ _____ _____    ______ ____
ROOT
ATOM      1  O4* UNL     1     -35.278  23.254   3.630  0.00  0.00    -0.332 OA
ATOM      2  C3* UNL     1     -35.374  24.793   5.429  0.00  0.00    +0.171 C 
ATOM      3  C2* UNL     1     -36.702  24.816   4.703  0.00  0.00    +0.188 C 
ATOM      4  C4* UNL     1     -34.782  23.467   4.970  0.00  0.00    +0.176 C 
ATOM      5  C1* UNL     1     -36.344  24.183   3.369  0.00  0.00    +0.245 C 
ENDROOT
BRANCH   5   7
ATOM      6  O   UNL     1     -38.719  25.378   2.393  0.00  0.00    -0.268 OA
ATOM      7  N   UNL     1     -37.446  23.476   2.784  0.00  0.00    -0.149 N 
ATOM      8  N   UNL     1     -37.321  22.109   2.696  0.00  0.00    -0.169 NA
ATOM      9  C   UNL     1     -38.578  24.156   2.329  0.00  0.00    +0.273 C 
ATOM     10  C   UNL     1     -39.667  23.343   1.736  0.00  0.00    +0.098 C 
ATOM     11  C   UNL     1     -38.297  21.449   2.171  0.00  0.00    +0.155 C 
ATOM     12  C   UNL     1     -39.544  22.019   1.653  0.00  0.00    +0.159 C 
BRANCH  12  13
ATOM     13  O   UNL     1     -40.513  21.210   1.114  0.00  0.00    -0.504 OA
ATOM     14  H   UNL     1     -41.395  21.267   1.422  0.00  0.00    +0.292 HD
ENDBRANCH  12  13
ENDBRANCH   5   7
BRANCH   2  15
ATOM     15  O3* UNL     1     -34.530  25.840   4.950  0.00  0.00    -0.379 OA
ATOM     16  H3* UNL     1     -35.029  26.400   4.335  0.00  0.00    +0.211 HD
ENDBRANCH   2  15
BRANCH   3  17
ATOM     17  O2* UNL     1     -37.214  26.125   4.562  0.00  0.00    -0.378 OA
ATOM     18  H2* UNL     1     -36.898  26.676   5.296  0.00  0.00    +0.211 HD
ENDBRANCH   3  17
BRANCH   4  19
ATOM     19  C5* UNL     1     -35.213  22.286   5.829  0.00  0.00    +0.169 C 
BRANCH  19  20
ATOM     20  O5* UNL     1     -35.432  21.168   4.986  0.00  0.00    -0.379 OA
ATOM     21  H5* UNL     1     -34.641  21.010   4.447  0.00  0.00    +0.211 HD
ENDBRANCH  19  20
ENDBRANCH   4  19
TORSDOF 6
ENDMDL
MODEL 5
REMARK VINA RESULT:      -5.1      2.265      4.485
REMARK  Name = 54677885
REMARK  6 active torsions:
REMARK  status: ('A' for Active; 'I' for Inactive)
REMARK    1  A    between atoms: C3*_2  and  O3*_15
REMARK    2  A    between atoms: C2*_3  and  O2*_17
REMARK    3  A    between atoms: C4*_4  and  C5*_19
REMARK    4  A    between atoms: C1*_5  and  N_7
REMARK    5  A    between atoms: C_12  and  O_13
REMARK    6  A    between atoms: C5*_19  and  O5*_20
REMARK                            x       y       z     vdW  Elec       q    Type
REMARK                         _______ _______ _______ _____ _____    ______ ____
ROOT
ATOM      1  O4* UNL     1     -37.069  25.288   1.808  0.00  0.00    -0.332 OA
ATOM      2  C3* UNL     1     -35.803  27.279   1.593  0.00  0.00    +0.171 C 
ATOM      3  C2* UNL     1     -35.408  26.592   2.884  0.00  0.00    +0.188 C 
ATOM      4  C4* UNL     1     -36.461  26.146   0.817  0.00  0.00    +0.176 C 
ATOM      5  C1* UNL     1     -36.577  25.648   3.109  0.00  0.00    +0.245 C 
ENDROOT
BRANCH   5   7
ATOM      6  O   UNL     1     -35.986  25.495   5.876  0.00  0.00    -0.268 OA
ATOM      7  N   UNL     1     -36.192  24.456   3.809  0.00  0.00    -0.149 N 
ATOM      8  N   UNL     1     -36.111  23.305   3.061  0.00  0.00    -0.169 NA
ATOM      9  C   UNL     1     -35.921  24.481   5.180  0.00  0.00    +0.273 C 
ATOM     10  C   UNL     1     -35.533  23.201   5.818  0.00  0.00    +0.098 C 
ATOM     11  C   UNL     1     -35.770  22.218   3.667  0.00  0.00    +0.155 C 
ATOM     12  C   UNL     1     -35.454  22.087   5.091  0.00  0.00    +0.159 C 
BRANCH  12  13
ATOM     13  O   UNL     1     -35.103  20.871   5.621  0.00  0.00    -0.504 OA
ATOM     14  H   UNL     1     -35.332  20.661   6.505  0.00  0.00    +0.292 HD
ENDBRANCH  12  13
ENDBRANCH   5   7
BRANCH   2  15
ATOM     15  O3* UNL     1     -36.796  28.273   1.846  0.00  0.00    -0.379 OA
ATOM     16  H3* UNL     1     -36.561  28.767   2.647  0.00  0.00    +0.211 HD
ENDBRANCH   2  15
BRANCH   3  17
ATOM     17  O2* UNL     1     -35.235  27.506   3.947  0.00  0.00    -0.378 OA
ATOM     18  H2* UNL     1     -35.984  27.434   4.560  0.00  0.00    +0.211 HD
ENDBRANCH   3  17
BRANCH   4  19
ATOM     19  C5* UNL     1     -35.472  25.315   0.012  0.00  0.00    +0.169 C 
BRANCH  19  20
ATOM     20  O5* UNL     1     -35.816  23.946   0.145  0.00  0.00    -0.379 OA
ATOM     21  H5* UNL     1     -36.770  23.838   0.010  0.00  0.00    +0.211 HD
ENDBRANCH  19  20
ENDBRANCH   4  19
TORSDOF 6
ENDMDL
MODEL 6
REMARK VINA RESULT:      -4.9      3.571      6.338
REMARK  Name = 54677885
REMARK  6 active torsions:
REMARK  status: ('A' for Active; 'I' for Inactive)
REMARK    1  A    between atoms: C3*_2  and  O3*_15
REMARK    2  A    between atoms: C2*_3  and  O2*_17
REMARK    3  A    between atoms: C4*_4  and  C5*_19
REMARK    4  A    between atoms: C1*_5  and  N_7
REMARK    5  A    between atoms: C_12  and  O_13
REMARK    6  A    between atoms: C5*_19  and  O5*_20
REMARK                            x       y       z     vdW  Elec       q    Type
REMARK                         _______ _______ _______ _____ _____    ______ ____
ROOT
ATOM      1  O4* UNL     1     -33.572  24.902   4.472  0.00  0.00    -0.332 OA
ATOM      2  C3* UNL     1     -35.905  24.765   4.085  0.00  0.00    +0.171 C 
ATOM      3  C2* UNL     1     -35.586  26.143   4.625  0.00  0.00    +0.188 C 
ATOM      4  C4* UNL     1     -34.544  24.290   3.596  0.00  0.00    +0.176 C 
ATOM      5  C1* UNL     1     -34.215  25.928   5.246  0.00  0.00    +0.245 C 
ENDROOT
BRANCH   5   7
ATOM      6  O   UNL     1     -32.613  26.875   7.382  0.00  0.00    -0.268 OA
ATOM      7  N   UNL     1     -33.407  27.113   5.213  0.00  0.00    -0.149 N 
ATOM      8  N   UNL     1     -33.422  27.833   4.041  0.00  0.00    -0.169 NA
ATOM      9  C   UNL     1     -32.648  27.498   6.321  0.00  0.00    +0.273 C 
ATOM     10  C   UNL     1     -31.842  28.736   6.193  0.00  0.00    +0.098 C 
ATOM     11  C   UNL     1     -32.701  28.901   3.984  0.00  0.00    +0.155 C 
ATOM     12  C   UNL     1     -31.858  29.432   5.058  0.00  0.00    +0.159 C 
BRANCH  12  13
ATOM     13  O   UNL     1     -31.134  30.583   4.875  0.00  0.00    -0.504 OA
ATOM     14  H   UNL     1     -30.744  30.765   4.043  0.00  0.00    +0.292 HD
ENDBRANCH  12  13
ENDBRANCH   5   7
BRANCH   2  15
ATOM     15  O3* UNL     1     -36.317  23.901   5.146  0.00  0.00    -0.379 OA
ATOM     16  H3* UNL     1     -36.784  23.136   4.776  0.00  0.00    +0.211 HD
ENDBRANCH   2  15
BRANCH   3  17
ATOM     17  O2* UNL     1     -36.543  26.586   5.565  0.00  0.00    -0.378 OA
ATOM     18  H2* UNL     1     -36.129  27.215   6.177  0.00  0.00    +0.211 HD
ENDBRANCH   3  17
BRANCH   4  19
ATOM     19  C5* UNL     1     -34.235  24.720   2.169  0.00  0.00    +0.169 C 
BRANCH  19  20
ATOM     20  O5* UNL     1     -33.019  25.449   2.169  0.00  0.00    -0.379 OA
ATOM     21  H5* UNL     1     -32.568  25.325   1.318  0.00  0.00    +0.211 HD
ENDBRANCH  19  20
ENDBRANCH   4  19
TORSDOF 6
ENDMDL
MODEL 7
REMARK VINA RESULT:      -4.8      2.231      5.082
REMARK  Name = 54677885
REMARK  6 active torsions:
REMARK  status: ('A' for Active; 'I' for Inactive)
REMARK    1  A    between atoms: C3*_2  and  O3*_15
REMARK    2  A    between atoms: C2*_3  and  O2*_17
REMARK    3  A    between atoms: C4*_4  and  C5*_19
REMARK    4  A    between atoms: C1*_5  and  N_7
REMARK    5  A    between atoms: C_12  and  O_13
REMARK    6  A    between atoms: C5*_19  and  O5*_20
REMARK                            x       y       z     vdW  Elec       q    Type
REMARK                         _______ _______ _______ _____ _____    ______ ____
ROOT
ATOM      1  O4* UNL     1     -36.788  24.729   1.635  0.00  0.00    -0.332 OA
ATOM      2  C3* UNL     1     -38.490  26.266   2.229  0.00  0.00    +0.171 C 
ATOM      3  C2* UNL     1     -38.354  25.245   3.339  0.00  0.00    +0.188 C 
ATOM      4  C4* UNL     1     -37.166  26.116   1.492  0.00  0.00    +0.176 C 
ATOM      5  C1* UNL     1     -37.614  24.116   2.639  0.00  0.00    +0.245 C 
ENDROOT
BRANCH   5   7
ATOM      6  O   UNL     1     -36.455  21.594   2.074  0.00  0.00    -0.268 OA
ATOM      7  N   UNL     1     -36.782  23.368   3.536  0.00  0.00    -0.149 N 
ATOM      8  N   UNL     1     -36.536  23.938   4.764  0.00  0.00    -0.169 NA
ATOM      9  C   UNL     1     -36.253  22.129   3.164  0.00  0.00    +0.273 C 
ATOM     10  C   UNL     1     -35.402  21.430   4.156  0.00  0.00    +0.098 C 
ATOM     11  C   UNL     1     -35.787  23.287   5.588  0.00  0.00    +0.155 C 
ATOM     12  C   UNL     1     -35.166  21.983   5.345  0.00  0.00    +0.159 C 
BRANCH  12  13
ATOM     13  O   UNL     1     -34.385  21.389   6.304  0.00  0.00    -0.504 OA
ATOM     14  H   UNL     1     -33.453  21.459   6.260  0.00  0.00    +0.292 HD
ENDBRANCH  12  13
ENDBRANCH   5   7
BRANCH   2  15
ATOM     15  O3* UNL     1     -39.537  25.888   1.335  0.00  0.00    -0.379 OA
ATOM     16  H3* UNL     1     -39.925  25.048   1.628  0.00  0.00    +0.211 HD
ENDBRANCH   2  15
BRANCH   3  17
ATOM     17  O2* UNL     1     -39.606  24.838   3.851  0.00  0.00    -0.378 OA
ATOM     18  H2* UNL     1     -40.302  25.049   3.208  0.00  0.00    +0.211 HD
ENDBRANCH   3  17
BRANCH   4  19
ATOM     19  C5* UNL     1     -36.053  26.974   2.075  0.00  0.00    +0.169 C 
BRANCH  19  20
ATOM     20  O5* UNL     1     -36.496  28.320   2.123  0.00  0.00    -0.379 OA
ATOM     21  H5* UNL     1     -36.022  28.791   2.827  0.00  0.00    +0.211 HD
ENDBRANCH  19  20
ENDBRANCH   4  19
TORSDOF 6
ENDMDL
MODEL 8
REMARK VINA RESULT:      -4.8      3.252      5.947
REMARK  Name = 54677885
REMARK  6 active torsions:
REMARK  status: ('A' for Active; 'I' for Inactive)
REMARK    1  A    between atoms: C3*_2  and  O3*_15
REMARK    2  A    between atoms: C2*_3  and  O2*_17
REMARK    3  A    between atoms: C4*_4  and  C5*_19
REMARK    4  A    between atoms: C1*_5  and  N_7
REMARK    5  A    between atoms: C_12  and  O_13
REMARK    6  A    between atoms: C5*_19  and  O5*_20
REMARK                            x       y       z     vdW  Elec       q    Type
REMARK                         _______ _______ _______ _____ _____    ______ ____
ROOT
ATOM      1  O4* UNL     1     -35.759  25.610   5.014  0.00  0.00    -0.332 OA
ATOM      2  C3* UNL     1     -35.382  23.944   3.372  0.00  0.00    +0.171 C 
ATOM      3  C2* UNL     1     -34.200  24.890   3.381  0.00  0.00    +0.188 C 
ATOM      4  C4* UNL     1     -36.021  24.219   4.727  0.00  0.00    +0.176 C 
ATOM      5  C1* UNL     1     -34.771  26.104   4.094  0.00  0.00    +0.245 C 
ENDROOT
BRANCH   5   7
ATOM      6  O   UNL     1     -33.058  28.078   3.002  0.00  0.00    -0.268 OA
ATOM      7  N   UNL     1     -33.773  26.830   4.825  0.00  0.00    -0.149 N 
ATOM      8  N   UNL     1     -33.655  26.532   6.162  0.00  0.00    -0.169 NA
ATOM      9  C   UNL     1     -32.975  27.789   4.196  0.00  0.00    +0.273 C 
ATOM     10  C   UNL     1     -31.972  28.491   5.032  0.00  0.00    +0.098 C 
ATOM     11  C   UNL     1     -32.767  27.174   6.843  0.00  0.00    +0.155 C 
ATOM     12  C   UNL     1     -31.859  28.200   6.327  0.00  0.00    +0.159 C 
BRANCH  12  13
ATOM     13  O   UNL     1     -30.953  28.815   7.155  0.00  0.00    -0.504 OA
ATOM     14  H   UNL     1     -30.042  28.809   6.940  0.00  0.00    +0.292 HD
ENDBRANCH  12  13
ENDBRANCH   5   7
BRANCH   2  15
ATOM     15  O3* UNL     1     -36.315  24.329   2.361  0.00  0.00    -0.379 OA
ATOM     16  H3* UNL     1     -35.848  24.799   1.653  0.00  0.00    +0.211 HD
ENDBRANCH   2  15
BRANCH   3  17
ATOM     17  O2* UNL     1     -33.743  25.190   2.078  0.00  0.00    -0.378 OA
ATOM     18  H2* UNL     1     -34.499  25.422   1.516  0.00  0.00    +0.211 HD
ENDBRANCH   3  17
BRANCH   4  19
ATOM     19  C5* UNL     1     -35.427  23.383   5.852  0.00  0.00    +0.169 C 
BRANCH  19  20
ATOM     20  O5* UNL     1     -36.090  22.131   5.885  0.00  0.00    -0.379 OA
ATOM     21  H5* UNL     1     -35.677  21.529   5.246  0.00  0.00    +0.211 HD
ENDBRANCH  19  20
ENDBRANCH   4  19
TORSDOF 6
ENDMDL
MODEL 9
REMARK VINA RESULT:      -4.8      2.281      3.654
REMARK  Name = 54677885
REMARK  6 active torsions:
REMARK  status: ('A' for Active; 'I' for Inactive)
REMARK    1  A    between atoms: C3*_2  and  O3*_15
REMARK    2  A    between atoms: C2*_3  and  O2*_17
REMARK    3  A    between atoms: C4*_4  and  C5*_19
REMARK    4  A    between atoms: C1*_5  and  N_7
REMARK    5  A    between atoms: C_12  and  O_13
REMARK    6  A    between atoms: C5*_19  and  O5*_20
REMARK                            x       y       z     vdW  Elec       q    Type
REMARK                         _______ _______ _______ _____ _____    ______ ____
ROOT
ATOM      1  O4* UNL     1     -36.698  24.136   4.519  0.00  0.00    -0.332 OA
ATOM      2  C3* UNL     1     -35.229  22.579   5.534  0.00  0.00    +0.171 C 
ATOM      3  C2* UNL     1     -35.459  22.160   4.098  0.00  0.00    +0.188 C 
ATOM      4  C4* UNL     1     -35.653  24.042   5.512  0.00  0.00    +0.176 C 
ATOM      5  C1* UNL     1     -36.723  22.926   3.744  0.00  0.00    +0.245 C 
ENDROOT
BRANCH   5   7
ATOM      6  O   UNL     1     -37.745  21.253   1.699  0.00  0.00    -0.268 OA
ATOM      7  N   UNL     1     -36.787  23.265   2.352  0.00  0.00    -0.149 N 
ATOM      8  N   UNL     1     -36.311  24.507   2.000  0.00  0.00    -0.169 NA
ATOM      9  C   UNL     1     -37.312  22.370   1.416  0.00  0.00    +0.273 C 
ATOM     10  C   UNL     1     -37.339  22.807  -0.000  0.00  0.00    +0.098 C 
ATOM     11  C   UNL     1     -36.360  24.837   0.754  0.00  0.00    +0.155 C 
ATOM     12  C   UNL     1     -36.878  24.010  -0.339  0.00  0.00    +0.159 C 
BRANCH  12  13
ATOM     13  O   UNL     1     -36.877  24.476  -1.629  0.00  0.00    -0.504 OA
ATOM     14  H   UNL     1     -36.362  24.046  -2.283  0.00  0.00    +0.292 HD
ENDBRANCH  12  13
ENDBRANCH   5   7
BRANCH   2  15
ATOM     15  O3* UNL     1     -36.118  21.877   6.403  0.00  0.00    -0.379 OA
ATOM     16  H3* UNL     1     -37.035  22.084   6.163  0.00  0.00    +0.211 HD
ENDBRANCH   2  15
BRANCH   3  17
ATOM     17  O2* UNL     1     -35.616  20.762   3.965  0.00  0.00    -0.378 OA
ATOM     18  H2* UNL     1     -35.598  20.350   4.844  0.00  0.00    +0.211 HD
ENDBRANCH   3  17
BRANCH   4  19
ATOM     19  C5* UNL     1     -34.530  24.987   5.111  0.00  0.00    +0.169 C 
BRANCH  19  20
ATOM     20  O5* UNL     1     -35.072  26.018   4.303  0.00  0.00    -0.379 OA
ATOM     21  H5* UNL     1     -35.484  25.628   3.515  0.00  0.00    +0.211 HD
ENDBRANCH  19  20
ENDBRANCH   4  19
TORSDOF 6
ENDMDL
