MODEL 1
REMARK VINA RESULT:      -5.9      0.000      0.000
REMARK  Name = 5487331
REMARK  7 active torsions:
REMARK  status: ('A' for Active; 'I' for Inactive)
REMARK    1  A    between atoms: C_2  and  N_8
REMARK    2  A    between atoms: C_4  and  N_18
REMARK    3  A    between atoms: N_8  and  N_10
REMARK    4  A    between atoms: N_10  and  C_13
REMARK    5  A    between atoms: N_18  and  N_19
REMARK    6  A    between atoms: N_19  and  C_21
REMARK    7  A    between atoms: C_21  and  N_22
REMARK                            x       y       z     vdW  Elec       q    Type
REMARK                         _______ _______ _______ _____ _____    ______ ____
ROOT
ATOM      1  C   UNL     1     -35.329  24.058   5.183  0.00  0.00    -0.004 C 
ATOM      2  C   UNL     1     -34.474  26.284   4.791  0.00  0.00    +0.065 C 
ATOM      3  C   UNL     1     -34.421  25.074   5.484  0.00  0.00    +0.013 C 
ATOM      4  C   UNL     1     -36.289  24.252   4.190  0.00  0.00    +0.085 C 
ATOM      5  C   UNL     1     -35.434  26.477   3.798  0.00  0.00    +0.017 C 
ATOM      6  C   UNL     1     -36.342  25.462   3.497  0.00  0.00    +0.019 C 
ATOM      7  C   UNL     1     -35.253  22.771   5.937  0.00  0.00    +0.032 C 
ENDROOT
BRANCH   2   8
ATOM      8  N   UNL     1     -33.556  27.311   5.094  0.00  0.00    -0.233 N 
ATOM      9  H   UNL     1     -33.467  28.083   4.490  0.00  0.00    +0.175 HD
BRANCH   8  10
ATOM     10  N   UNL     1     -32.801  27.242   6.203  0.00  0.00    -0.147 NA
BRANCH  10  13
ATOM     11  N   UNL     1     -30.601  28.044   6.784  0.00  0.00    -0.369 N 
ATOM     12  N   UNL     1     -32.197  29.481   6.017  0.00  0.00    -0.369 N 
ATOM     13  C   UNL     1     -31.898  28.177   6.338  0.00  0.00    +0.208 C 
ATOM     14  H   UNL     1     -30.260  27.159   7.047  0.00  0.00    +0.159 HD
ATOM     15  H   UNL     1     -30.016  28.834   6.840  0.00  0.00    +0.159 HD
ATOM     16  H   UNL     1     -33.095  29.712   5.684  0.00  0.00    +0.159 HD
ATOM     17  H   UNL     1     -31.514  30.182   6.119  0.00  0.00    +0.159 HD
ENDBRANCH  10  13
ENDBRANCH   8  10
ENDBRANCH   2   8
BRANCH   4  18
ATOM     18  N   UNL     1     -37.208  23.244   3.874  0.00  0.00    -0.127 NA
BRANCH  18  19
ATOM     19  N   UNL     1     -37.146  22.979   2.651  0.00  0.00    -0.106 NA
BRANCH  19  21
ATOM     20  S   UNL     1     -35.561  20.791   2.476  0.00  0.00    -0.016 S 
ATOM     21  C   UNL     1     -37.022  21.624   2.442  0.00  0.00    +0.170 C 
BRANCH  21  22
ATOM     22  N   UNL     1     -38.183  20.947   2.141  0.00  0.00    -0.338 N 
ATOM     23  H   UNL     1     -39.042  21.250   2.518  0.00  0.00    +0.144 HD
ATOM     24  H   UNL     1     -38.156  20.160   1.550  0.00  0.00    +0.144 HD
ENDBRANCH  21  22
ENDBRANCH  19  21
ENDBRANCH  18  19
ENDBRANCH   4  18
TORSDOF 7
ENDMDL
MODEL 2
REMARK VINA RESULT:      -5.8      1.562      1.731
REMARK  Name = 5487331
REMARK  7 active torsions:
REMARK  status: ('A' for Active; 'I' for Inactive)
REMARK    1  A    between atoms: C_2  and  N_8
REMARK    2  A    between atoms: C_4  and  N_18
REMARK    3  A    between atoms: N_8  and  N_10
REMARK    4  A    between atoms: N_10  and  C_13
REMARK    5  A    between atoms: N_18  and  N_19
REMARK    6  A    between atoms: N_19  and  C_21
REMARK    7  A    between atoms: C_21  and  N_22
REMARK                            x       y       z     vdW  Elec       q    Type
REMARK                         _______ _______ _______ _____ _____    ______ ____
ROOT
ATOM      1  C   UNL     1     -35.174  23.131   5.286  0.00  0.00    -0.004 C 
ATOM      2  C   UNL     1     -34.525  25.371   4.653  0.00  0.00    +0.065 C 
ATOM      3  C   UNL     1     -34.796  24.426   5.643  0.00  0.00    +0.013 C 
ATOM      4  C   UNL     1     -35.281  22.782   3.940  0.00  0.00    +0.085 C 
ATOM      5  C   UNL     1     -34.632  25.021   3.307  0.00  0.00    +0.017 C 
ATOM      6  C   UNL     1     -35.010  23.728   2.950  0.00  0.00    +0.019 C 
ATOM      7  C   UNL     1     -35.458  22.136   6.363  0.00  0.00    +0.032 C 
ENDROOT
BRANCH   2   8
ATOM      8  N   UNL     1     -34.143  26.680   5.014  0.00  0.00    -0.233 N 
ATOM      9  H   UNL     1     -34.831  27.352   5.222  0.00  0.00    +0.175 HD
BRANCH   8  10
ATOM     10  N   UNL     1     -32.843  27.017   5.074  0.00  0.00    -0.147 NA
BRANCH  10  13
ATOM     11  N   UNL     1     -32.116  29.082   6.086  0.00  0.00    -0.369 N 
ATOM     12  N   UNL     1     -32.465  27.223   7.360  0.00  0.00    -0.369 N 
ATOM     13  C   UNL     1     -32.492  27.756   6.092  0.00  0.00    +0.208 C 
ATOM     14  H   UNL     1     -32.093  29.583   5.239  0.00  0.00    +0.159 HD
ATOM     15  H   UNL     1     -31.872  29.528   6.930  0.00  0.00    +0.159 HD
ATOM     16  H   UNL     1     -32.712  26.280   7.502  0.00  0.00    +0.159 HD
ATOM     17  H   UNL     1     -32.200  27.783   8.124  0.00  0.00    +0.159 HD
ENDBRANCH  10  13
ENDBRANCH   8  10
ENDBRANCH   2   8
BRANCH   4  18
ATOM     18  N   UNL     1     -35.658  21.487   3.563  0.00  0.00    -0.127 NA
BRANCH  18  19
ATOM     19  N   UNL     1     -35.892  21.452   2.332  0.00  0.00    -0.106 NA
BRANCH  19  21
ATOM     20  S   UNL     1     -34.134  19.626   1.382  0.00  0.00    -0.016 S 
ATOM     21  C   UNL     1     -35.654  20.198   1.817  0.00  0.00    +0.170 C 
BRANCH  21  22
ATOM     22  N   UNL     1     -36.763  19.405   1.614  0.00  0.00    -0.338 N 
ATOM     23  H   UNL     1     -36.745  18.457   1.880  0.00  0.00    +0.144 HD
ATOM     24  H   UNL     1     -37.572  19.786   1.203  0.00  0.00    +0.144 HD
ENDBRANCH  21  22
ENDBRANCH  19  21
ENDBRANCH  18  19
ENDBRANCH   4  18
TORSDOF 7
ENDMDL
MODEL 3
REMARK VINA RESULT:      -5.8      1.285      1.504
REMARK  Name = 5487331
REMARK  7 active torsions:
REMARK  status: ('A' for Active; 'I' for Inactive)
REMARK    1  A    between atoms: C_2  and  N_8
REMARK    2  A    between atoms: C_4  and  N_18
REMARK    3  A    between atoms: N_8  and  N_10
REMARK    4  A    between atoms: N_10  and  C_13
REMARK    5  A    between atoms: N_18  and  N_19
REMARK    6  A    between atoms: N_19  and  C_21
REMARK    7  A    between atoms: C_21  and  N_22
REMARK                            x       y       z     vdW  Elec       q    Type
REMARK                         _______ _______ _______ _____ _____    ______ ____
ROOT
ATOM      1  C   UNL     1     -35.295  23.992   5.244  0.00  0.00    -0.004 C 
ATOM      2  C   UNL     1     -34.547  26.249   4.814  0.00  0.00    +0.065 C 
ATOM      3  C   UNL     1     -34.457  25.066   5.547  0.00  0.00    +0.013 C 
ATOM      4  C   UNL     1     -36.223  24.103   4.208  0.00  0.00    +0.085 C 
ATOM      5  C   UNL     1     -35.474  26.359   3.778  0.00  0.00    +0.017 C 
ATOM      6  C   UNL     1     -36.313  25.287   3.476  0.00  0.00    +0.019 C 
ATOM      7  C   UNL     1     -35.179  22.734   6.041  0.00  0.00    +0.032 C 
ENDROOT
BRANCH   2   8
ATOM      8  N   UNL     1     -33.699  27.334   5.120  0.00  0.00    -0.233 N 
ATOM      9  H   UNL     1     -33.786  28.179   4.622  0.00  0.00    +0.175 HD
BRANCH   8  10
ATOM     10  N   UNL     1     -32.773  27.222   6.087  0.00  0.00    -0.147 NA
BRANCH  10  13
ATOM     11  N   UNL     1     -32.218  29.564   5.923  0.00  0.00    -0.369 N 
ATOM     12  N   UNL     1     -30.707  28.066   6.742  0.00  0.00    -0.369 N 
ATOM     13  C   UNL     1     -31.971  28.244   6.230  0.00  0.00    +0.208 C 
ATOM     14  H   UNL     1     -33.089  29.827   5.547  0.00  0.00    +0.159 HD
ATOM     15  H   UNL     1     -31.523  30.244   6.080  0.00  0.00    +0.159 HD
ATOM     16  H   UNL     1     -30.403  27.165   7.003  0.00  0.00    +0.159 HD
ATOM     17  H   UNL     1     -30.106  28.838   6.849  0.00  0.00    +0.159 HD
ENDBRANCH  10  13
ENDBRANCH   8  10
ENDBRANCH   2   8
BRANCH   4  18
ATOM     18  N   UNL     1     -37.071  23.035   3.889  0.00  0.00    -0.127 NA
BRANCH  18  19
ATOM     19  N   UNL     1     -37.205  22.954   2.646  0.00  0.00    -0.106 NA
BRANCH  19  21
ATOM     20  S   UNL     1     -39.807  23.385   2.036  0.00  0.00    -0.016 S 
ATOM     21  C   UNL     1     -38.440  22.445   2.312  0.00  0.00    +0.170 C 
BRANCH  21  22
ATOM     22  N   UNL     1     -38.535  21.072   2.254  0.00  0.00    -0.338 N 
ATOM     23  H   UNL     1     -38.995  20.580   2.973  0.00  0.00    +0.144 HD
ATOM     24  H   UNL     1     -38.143  20.583   1.495  0.00  0.00    +0.144 HD
ENDBRANCH  21  22
ENDBRANCH  19  21
ENDBRANCH  18  19
ENDBRANCH   4  18
TORSDOF 7
ENDMDL
MODEL 4
REMARK VINA RESULT:      -5.7      2.597      7.086
REMARK  Name = 5487331
REMARK  7 active torsions:
REMARK  status: ('A' for Active; 'I' for Inactive)
REMARK    1  A    between atoms: C_2  and  N_8
REMARK    2  A    between atoms: C_4  and  N_18
REMARK    3  A    between atoms: N_8  and  N_10
REMARK    4  A    between atoms: N_10  and  C_13
REMARK    5  A    between atoms: N_18  and  N_19
REMARK    6  A    between atoms: N_19  and  C_21
REMARK    7  A    between atoms: C_21  and  N_22
REMARK                            x       y       z     vdW  Elec       q    Type
REMARK                         _______ _______ _______ _____ _____    ______ ____
ROOT
ATOM      1  C   UNL     1     -34.572  24.833   3.507  0.00  0.00    -0.004 C 
ATOM      2  C   UNL     1     -35.446  22.736   4.330  0.00  0.00    +0.065 C 
ATOM      3  C   UNL     1     -34.986  23.521   3.274  0.00  0.00    +0.013 C 
ATOM      4  C   UNL     1     -34.621  25.359   4.799  0.00  0.00    +0.085 C 
ATOM      5  C   UNL     1     -35.494  23.262   5.621  0.00  0.00    +0.017 C 
ATOM      6  C   UNL     1     -35.082  24.573   5.855  0.00  0.00    +0.019 C 
ATOM      7  C   UNL     1     -34.082  25.654   2.361  0.00  0.00    +0.032 C 
ENDROOT
BRANCH   2   8
ATOM      8  N   UNL     1     -35.863  21.409   4.094  0.00  0.00    -0.233 N 
ATOM      9  H   UNL     1     -36.413  20.941   4.763  0.00  0.00    +0.175 HD
BRANCH   8  10
ATOM     10  N   UNL     1     -35.514  20.778   2.960  0.00  0.00    -0.147 NA
BRANCH  10  13
ATOM     11  N   UNL     1     -36.479  19.248   1.365  0.00  0.00    -0.369 N 
ATOM     12  N   UNL     1     -37.742  20.899   2.301  0.00  0.00    -0.369 N 
ATOM     13  C   UNL     1     -36.499  20.312   2.239  0.00  0.00    +0.208 C 
ATOM     14  H   UNL     1     -35.647  18.739   1.228  0.00  0.00    +0.159 HD
ATOM     15  H   UNL     1     -37.297  18.995   0.878  0.00  0.00    +0.159 HD
ATOM     16  H   UNL     1     -37.892  21.674   2.891  0.00  0.00    +0.159 HD
ATOM     17  H   UNL     1     -38.481  20.544   1.757  0.00  0.00    +0.159 HD
ENDBRANCH  10  13
ENDBRANCH   8  10
ENDBRANCH   2   8
BRANCH   4  18
ATOM     18  N   UNL     1     -34.210  26.673   5.053  0.00  0.00    -0.127 NA
BRANCH  18  19
ATOM     19  N   UNL     1     -33.349  26.682   5.963  0.00  0.00    -0.106 NA
BRANCH  19  21
ATOM     20  S   UNL     1     -31.945  28.329   4.336  0.00  0.00    -0.016 S 
ATOM     21  C   UNL     1     -32.483  27.743   5.818  0.00  0.00    +0.170 C 
BRANCH  21  22
ATOM     22  N   UNL     1     -32.012  28.305   6.984  0.00  0.00    -0.338 N 
ATOM     23  H   UNL     1     -32.221  27.888   7.851  0.00  0.00    +0.144 HD
ATOM     24  H   UNL     1     -31.468  29.124   6.951  0.00  0.00    +0.144 HD
ENDBRANCH  21  22
ENDBRANCH  19  21
ENDBRANCH  18  19
ENDBRANCH   4  18
TORSDOF 7
ENDMDL
MODEL 5
REMARK VINA RESULT:      -5.5      2.553      7.174
REMARK  Name = 5487331
REMARK  7 active torsions:
REMARK  status: ('A' for Active; 'I' for Inactive)
REMARK    1  A    between atoms: C_2  and  N_8
REMARK    2  A    between atoms: C_4  and  N_18
REMARK    3  A    between atoms: N_8  and  N_10
REMARK    4  A    between atoms: N_10  and  C_13
REMARK    5  A    between atoms: N_18  and  N_19
REMARK    6  A    between atoms: N_19  and  C_21
REMARK    7  A    between atoms: C_21  and  N_22
REMARK                            x       y       z     vdW  Elec       q    Type
REMARK                         _______ _______ _______ _____ _____    ______ ____
ROOT
ATOM      1  C   UNL     1     -34.081  25.403   3.603  0.00  0.00    -0.004 C 
ATOM      2  C   UNL     1     -35.887  23.921   4.219  0.00  0.00    +0.065 C 
ATOM      3  C   UNL     1     -34.839  24.257   3.362  0.00  0.00    +0.013 C 
ATOM      4  C   UNL     1     -34.372  26.213   4.701  0.00  0.00    +0.085 C 
ATOM      5  C   UNL     1     -36.177  24.730   5.317  0.00  0.00    +0.017 C 
ATOM      6  C   UNL     1     -35.420  25.875   5.558  0.00  0.00    +0.019 C 
ATOM      7  C   UNL     1     -32.963  25.743   2.672  0.00  0.00    +0.032 C 
ENDROOT
BRANCH   2   8
ATOM      8  N   UNL     1     -36.653  22.762   3.975  0.00  0.00    -0.233 N 
ATOM      9  H   UNL     1     -36.473  21.939   4.485  0.00  0.00    +0.175 HD
BRANCH   8  10
ATOM     10  N   UNL     1     -37.628  22.772   3.050  0.00  0.00    -0.147 NA
BRANCH  10  13
ATOM     11  N   UNL     1     -39.160  21.194   2.062  0.00  0.00    -0.369 N 
ATOM     12  N   UNL     1     -36.976  20.636   2.401  0.00  0.00    -0.369 N 
ATOM     13  C   UNL     1     -37.935  21.613   2.531  0.00  0.00    +0.208 C 
ATOM     14  H   UNL     1     -39.935  21.801   2.097  0.00  0.00    +0.159 HD
ATOM     15  H   UNL     1     -39.261  20.287   1.691  0.00  0.00    +0.159 HD
ATOM     16  H   UNL     1     -36.053  20.808   2.700  0.00  0.00    +0.159 HD
ATOM     17  H   UNL     1     -37.211  19.765   2.009  0.00  0.00    +0.159 HD
ENDBRANCH  10  13
ENDBRANCH   8  10
ENDBRANCH   2   8
BRANCH   4  18
ATOM     18  N   UNL     1     -33.621  27.366   4.960  0.00  0.00    -0.127 NA
BRANCH  18  19
ATOM     19  N   UNL     1     -32.918  27.196   5.983  0.00  0.00    -0.106 NA
BRANCH  19  21
ATOM     20  S   UNL     1     -30.938  28.642   4.835  0.00  0.00    -0.016 S 
ATOM     21  C   UNL     1     -31.953  28.173   6.090  0.00  0.00    +0.170 C 
BRANCH  21  22
ATOM     22  N   UNL     1     -31.807  28.747   7.334  0.00  0.00    -0.338 N 
ATOM     23  H   UNL     1     -31.058  28.481   7.915  0.00  0.00    +0.144 HD
ATOM     24  H   UNL     1     -32.452  29.424   7.643  0.00  0.00    +0.144 HD
ENDBRANCH  21  22
ENDBRANCH  19  21
ENDBRANCH  18  19
ENDBRANCH   4  18
TORSDOF 7
ENDMDL
MODEL 6
REMARK VINA RESULT:      -5.5      3.459      6.931
REMARK  Name = 5487331
REMARK  7 active torsions:
REMARK  status: ('A' for Active; 'I' for Inactive)
REMARK    1  A    between atoms: C_2  and  N_8
REMARK    2  A    between atoms: C_4  and  N_18
REMARK    3  A    between atoms: N_8  and  N_10
REMARK    4  A    between atoms: N_10  and  C_13
REMARK    5  A    between atoms: N_18  and  N_19
REMARK    6  A    between atoms: N_19  and  C_21
REMARK    7  A    between atoms: C_21  and  N_22
REMARK                            x       y       z     vdW  Elec       q    Type
REMARK                         _______ _______ _______ _____ _____    ______ ____
ROOT
ATOM      1  C   UNL     1     -35.696  22.152   4.288  0.00  0.00    -0.004 C 
ATOM      2  C   UNL     1     -35.578  20.733   2.335  0.00  0.00    +0.065 C 
ATOM      3  C   UNL     1     -35.180  21.030   3.638  0.00  0.00    +0.013 C 
ATOM      4  C   UNL     1     -36.611  22.977   3.632  0.00  0.00    +0.085 C 
ATOM      5  C   UNL     1     -36.493  21.558   1.681  0.00  0.00    +0.017 C 
ATOM      6  C   UNL     1     -37.009  22.679   2.328  0.00  0.00    +0.019 C 
ATOM      7  C   UNL     1     -35.256  22.449   5.684  0.00  0.00    +0.032 C 
ENDROOT
BRANCH   2   8
ATOM      8  N   UNL     1     -35.057  19.598   1.679  0.00  0.00    -0.233 N 
ATOM      9  H   UNL     1     -35.666  18.898   1.352  0.00  0.00    +0.175 HD
BRANCH   8  10
ATOM     10  N   UNL     1     -33.732  19.466   1.499  0.00  0.00    -0.147 NA
BRANCH  10  13
ATOM     11  N   UNL     1     -33.991  17.283   0.506  0.00  0.00    -0.369 N 
ATOM     12  N   UNL     1     -32.057  17.854   1.569  0.00  0.00    -0.369 N 
ATOM     13  C   UNL     1     -33.314  18.266   1.194  0.00  0.00    +0.208 C 
ATOM     14  H   UNL     1     -34.905  17.451   0.180  0.00  0.00    +0.159 HD
ATOM     15  H   UNL     1     -33.561  16.414   0.339  0.00  0.00    +0.159 HD
ATOM     16  H   UNL     1     -31.467  18.464   2.069  0.00  0.00    +0.159 HD
ATOM     17  H   UNL     1     -31.746  16.949   1.336  0.00  0.00    +0.159 HD
ENDBRANCH  10  13
ENDBRANCH   8  10
ENDBRANCH   2   8
BRANCH   4  18
ATOM     18  N   UNL     1     -37.140  24.106   4.268  0.00  0.00    -0.127 NA
BRANCH  18  19
ATOM     19  N   UNL     1     -36.797  25.142   3.653  0.00  0.00    -0.106 NA
BRANCH  19  21
ATOM     20  S   UNL     1     -34.260  25.976   4.094  0.00  0.00    -0.016 S 
ATOM     21  C   UNL     1     -35.912  25.890   4.396  0.00  0.00    +0.170 C 
BRANCH  21  22
ATOM     22  N   UNL     1     -36.442  26.561   5.476  0.00  0.00    -0.338 N 
ATOM     23  H   UNL     1     -36.115  26.367   6.385  0.00  0.00    +0.144 HD
ATOM     24  H   UNL     1     -37.147  27.234   5.340  0.00  0.00    +0.144 HD
ENDBRANCH  21  22
ENDBRANCH  19  21
ENDBRANCH  18  19
ENDBRANCH   4  18
TORSDOF 7
ENDMDL
MODEL 7
REMARK VINA RESULT:      -5.4      3.060      6.841
REMARK  Name = 5487331
REMARK  7 active torsions:
REMARK  status: ('A' for Active; 'I' for Inactive)
REMARK    1  A    between atoms: C_2  and  N_8
REMARK    2  A    between atoms: C_4  and  N_18
REMARK    3  A    between atoms: N_8  and  N_10
REMARK    4  A    between atoms: N_10  and  C_13
REMARK    5  A    between atoms: N_18  and  N_19
REMARK    6  A    between atoms: N_19  and  C_21
REMARK    7  A    between atoms: C_21  and  N_22
REMARK                            x       y       z     vdW  Elec       q    Type
REMARK                         _______ _______ _______ _____ _____    ______ ____
ROOT
ATOM      1  C   UNL     1     -33.847  25.629   3.555  0.00  0.00    -0.004 C 
ATOM      2  C   UNL     1     -35.833  24.577   4.441  0.00  0.00    +0.065 C 
ATOM      3  C   UNL     1     -34.930  24.765   3.395  0.00  0.00    +0.013 C 
ATOM      4  C   UNL     1     -33.668  26.307   4.761  0.00  0.00    +0.085 C 
ATOM      5  C   UNL     1     -35.653  25.253   5.647  0.00  0.00    +0.017 C 
ATOM      6  C   UNL     1     -34.571  26.118   5.808  0.00  0.00    +0.019 C 
ATOM      7  C   UNL     1     -32.893  25.814   2.420  0.00  0.00    +0.032 C 
ENDROOT
BRANCH   2   8
ATOM      8  N   UNL     1     -36.927  23.702   4.280  0.00  0.00    -0.233 N 
ATOM      9  H   UNL     1     -37.036  22.935   4.888  0.00  0.00    +0.175 HD
BRANCH   8  10
ATOM     10  N   UNL     1     -37.823  23.906   3.300  0.00  0.00    -0.147 NA
BRANCH  10  13
ATOM     11  N   UNL     1     -38.283  26.271   3.173  0.00  0.00    -0.369 N 
ATOM     12  N   UNL     1     -39.879  24.814   3.899  0.00  0.00    -0.369 N 
ATOM     13  C   UNL     1     -38.591  24.955   3.438  0.00  0.00    +0.208 C 
ATOM     14  H   UNL     1     -37.389  26.509   2.836  0.00  0.00    +0.159 HD
ATOM     15  H   UNL     1     -38.957  26.973   3.320  0.00  0.00    +0.159 HD
ATOM     16  H   UNL     1     -40.226  23.920   4.127  0.00  0.00    +0.159 HD
ATOM     17  H   UNL     1     -40.455  25.606   4.001  0.00  0.00    +0.159 HD
ENDBRANCH  10  13
ENDBRANCH   8  10
ENDBRANCH   2   8
BRANCH   4  18
ATOM     18  N   UNL     1     -32.586  27.177   4.940  0.00  0.00    -0.127 NA
BRANCH  18  19
ATOM     19  N   UNL     1     -32.540  27.561   6.132  0.00  0.00    -0.106 NA
BRANCH  19  21
ATOM     20  S   UNL     1     -31.827  30.156   5.841  0.00  0.00    -0.016 S 
ATOM     21  C   UNL     1     -31.601  28.554   6.299  0.00  0.00    +0.170 C 
BRANCH  21  22
ATOM     22  N   UNL     1     -30.394  28.163   6.835  0.00  0.00    -0.338 N 
ATOM     23  H   UNL     1     -29.579  28.189   6.283  0.00  0.00    +0.144 HD
ATOM     24  H   UNL     1     -30.346  27.857   7.769  0.00  0.00    +0.144 HD
ENDBRANCH  21  22
ENDBRANCH  19  21
ENDBRANCH  18  19
ENDBRANCH   4  18
TORSDOF 7
ENDMDL
MODEL 8
REMARK VINA RESULT:      -5.4      3.379      7.305
REMARK  Name = 5487331
REMARK  7 active torsions:
REMARK  status: ('A' for Active; 'I' for Inactive)
REMARK    1  A    between atoms: C_2  and  N_8
REMARK    2  A    between atoms: C_4  and  N_18
REMARK    3  A    between atoms: N_8  and  N_10
REMARK    4  A    between atoms: N_10  and  C_13
REMARK    5  A    between atoms: N_18  and  N_19
REMARK    6  A    between atoms: N_19  and  C_21
REMARK    7  A    between atoms: C_21  and  N_22
REMARK                            x       y       z     vdW  Elec       q    Type
REMARK                         _______ _______ _______ _____ _____    ______ ____
ROOT
ATOM      1  C   UNL     1     -37.708  22.534   2.570  0.00  0.00    -0.004 C 
ATOM      2  C   UNL     1     -36.318  20.610   2.114  0.00  0.00    +0.065 C 
ATOM      3  C   UNL     1     -37.467  21.358   1.858  0.00  0.00    +0.013 C 
ATOM      4  C   UNL     1     -36.798  22.960   3.539  0.00  0.00    +0.085 C 
ATOM      5  C   UNL     1     -35.409  21.037   3.081  0.00  0.00    +0.017 C 
ATOM      6  C   UNL     1     -35.649  22.211   3.794  0.00  0.00    +0.019 C 
ATOM      7  C   UNL     1     -38.945  23.319   2.279  0.00  0.00    +0.032 C 
ENDROOT
BRANCH   2   8
ATOM      8  N   UNL     1     -36.075  19.422   1.393  0.00  0.00    -0.233 N 
ATOM      9  H   UNL     1     -36.649  18.635   1.538  0.00  0.00    +0.175 HD
BRANCH   8  10
ATOM     10  N   UNL     1     -35.065  19.357   0.510  0.00  0.00    -0.147 NA
BRANCH  10  13
ATOM     11  N   UNL     1     -34.224  17.102   0.346  0.00  0.00    -0.369 N 
ATOM     12  N   UNL     1     -33.021  18.716   1.417  0.00  0.00    -0.369 N 
ATOM     13  C   UNL     1     -34.175  18.425   0.728  0.00  0.00    +0.208 C 
ATOM     14  H   UNL     1     -35.000  16.763  -0.156  0.00  0.00    +0.159 HD
ATOM     15  H   UNL     1     -33.482  16.496   0.574  0.00  0.00    +0.159 HD
ATOM     16  H   UNL     1     -32.862  19.630   1.748  0.00  0.00    +0.159 HD
ATOM     17  H   UNL     1     -32.353  18.011   1.578  0.00  0.00    +0.159 HD
ENDBRANCH  10  13
ENDBRANCH   8  10
ENDBRANCH   2   8
BRANCH   4  18
ATOM     18  N   UNL     1     -37.022  24.137   4.263  0.00  0.00    -0.127 NA
BRANCH  18  19
ATOM     19  N   UNL     1     -36.202  24.221   5.206  0.00  0.00    -0.106 NA
BRANCH  19  21
ATOM     20  S   UNL     1     -34.139  25.918   5.642  0.00  0.00    -0.016 S 
ATOM     21  C   UNL     1     -35.745  25.510   5.355  0.00  0.00    +0.170 C 
BRANCH  21  22
ATOM     22  N   UNL     1     -36.700  26.502   5.306  0.00  0.00    -0.338 N 
ATOM     23  H   UNL     1     -37.509  26.435   5.864  0.00  0.00    +0.144 HD
ATOM     24  H   UNL     1     -36.575  27.277   4.712  0.00  0.00    +0.144 HD
ENDBRANCH  21  22
ENDBRANCH  19  21
ENDBRANCH  18  19
ENDBRANCH   4  18
TORSDOF 7
ENDMDL
MODEL 9
REMARK VINA RESULT:      -5.3      0.898      1.790
REMARK  Name = 5487331
REMARK  7 active torsions:
REMARK  status: ('A' for Active; 'I' for Inactive)
REMARK    1  A    between atoms: C_2  and  N_8
REMARK    2  A    between atoms: C_4  and  N_18
REMARK    3  A    between atoms: N_8  and  N_10
REMARK    4  A    between atoms: N_10  and  C_13
REMARK    5  A    between atoms: N_18  and  N_19
REMARK    6  A    between atoms: N_19  and  C_21
REMARK    7  A    between atoms: C_21  and  N_22
REMARK                            x       y       z     vdW  Elec       q    Type
REMARK                         _______ _______ _______ _____ _____    ______ ____
ROOT
ATOM      1  C   UNL     1     -36.705  25.177   4.099  0.00  0.00    -0.004 C 
ATOM      2  C   UNL     1     -34.736  25.579   5.440  0.00  0.00    +0.065 C 
ATOM      3  C   UNL     1     -35.868  26.060   4.783  0.00  0.00    +0.013 C 
ATOM      4  C   UNL     1     -36.409  23.814   4.073  0.00  0.00    +0.085 C 
ATOM      5  C   UNL     1     -34.440  24.216   5.414  0.00  0.00    +0.017 C 
ATOM      6  C   UNL     1     -35.276  23.334   4.731  0.00  0.00    +0.019 C 
ATOM      7  C   UNL     1     -37.913  25.715   3.404  0.00  0.00    +0.032 C 
ENDROOT
BRANCH   2   8
ATOM      8  N   UNL     1     -33.890  26.471   6.132  0.00  0.00    -0.233 N 
ATOM      9  H   UNL     1     -34.111  26.743   7.052  0.00  0.00    +0.175 HD
BRANCH   8  10
ATOM     10  N   UNL     1     -32.783  26.953   5.543  0.00  0.00    -0.147 NA
BRANCH  10  13
ATOM     11  N   UNL     1     -31.839  28.366   7.255  0.00  0.00    -0.369 N 
ATOM     12  N   UNL     1     -32.351  29.213   5.201  0.00  0.00    -0.369 N 
ATOM     13  C   UNL     1     -32.343  28.095   6.002  0.00  0.00    +0.208 C 
ATOM     14  H   UNL     1     -31.779  27.649   7.927  0.00  0.00    +0.159 HD
ATOM     15  H   UNL     1     -31.538  29.277   7.478  0.00  0.00    +0.159 HD
ATOM     16  H   UNL     1     -32.688  29.155   4.277  0.00  0.00    +0.159 HD
ATOM     17  H   UNL     1     -32.018  30.071   5.550  0.00  0.00    +0.159 HD
ENDBRANCH  10  13
ENDBRANCH   8  10
ENDBRANCH   2   8
BRANCH   4  18
ATOM     18  N   UNL     1     -37.238  22.914   3.393  0.00  0.00    -0.127 NA
BRANCH  18  19
ATOM     19  N   UNL     1     -36.710  22.585   2.305  0.00  0.00    -0.106 NA
BRANCH  19  21
ATOM     20  S   UNL     1     -35.421  20.250   1.844  0.00  0.00    -0.016 S 
ATOM     21  C   UNL     1     -36.766  21.223   2.118  0.00  0.00    +0.170 C 
BRANCH  21  22
ATOM     22  N   UNL     1     -38.024  20.662   2.113  0.00  0.00    -0.338 N 
ATOM     23  H   UNL     1     -38.464  20.446   1.259  0.00  0.00    +0.144 HD
ATOM     24  H   UNL     1     -38.484  20.477   2.964  0.00  0.00    +0.144 HD
ENDBRANCH  21  22
ENDBRANCH  19  21
ENDBRANCH  18  19
ENDBRANCH   4  18
TORSDOF 7
ENDMDL
