MODEL 1
REMARK VINA RESULT:      -7.1      0.000      0.000
REMARK  Name = 56973715
REMARK  7 active torsions:
REMARK  status: ('A' for Active; 'I' for Inactive)
REMARK    1  A    between atoms: C_5  and  C_17
REMARK    2  A    between atoms: C_8  and  C_32
REMARK    3  A    between atoms: C_15  and  O_21
REMARK    4  A    between atoms: O_21  and  C_22
REMARK    5  A    between atoms: C_22  and  C_23
REMARK    6  A    between atoms: C_23  and  N_24
REMARK    7  A    between atoms: N_31  and  C_34
REMARK                            x       y       z     vdW  Elec       q    Type
REMARK                         _______ _______ _______ _____ _____    ______ ____
ROOT
ATOM      1  S   UNL     1     -35.118  21.479   2.345  0.00  0.00    -0.096 S 
ATOM      2  N   UNL     1     -38.339  23.762   3.069  0.00  0.00    -0.332 NA
ATOM      3  N   UNL     1     -38.900  21.931   1.588  0.00  0.00    -0.332 NA
ATOM      4  N   UNL     1     -40.511  23.487   2.250  0.00  0.00    -0.283 N 
ATOM      5  C   UNL     1     -37.057  23.353   3.141  0.00  0.00    +0.140 C 
ATOM      6  C   UNL     1     -36.663  22.221   2.437  0.00  0.00    +0.158 C 
ATOM      7  C   UNL     1     -37.603  21.533   1.672  0.00  0.00    +0.140 C 
ATOM      8  C   UNL     1     -35.691  20.257   1.298  0.00  0.00    +0.082 C 
ATOM      9  C   UNL     1     -37.032  20.400   1.019  0.00  0.00    +0.041 C 
ATOM     10  C   UNL     1     -39.174  23.034   2.305  0.00  0.00    +0.196 C 
ATOM     11  H   UNL     1     -40.780  24.290   2.753  0.00  0.00    +0.156 HD
ATOM     12  H   UNL     1     -41.175  23.000   1.710  0.00  0.00    +0.156 HD
ENDROOT
BRANCH   5  17
ATOM     13 CL   UNL     1     -33.379  26.675   6.461  0.00  0.00    -0.079 Cl
ATOM     14 CL   UNL     1     -35.877  22.000   5.649  0.00  0.00    -0.082 Cl
ATOM     15  C   UNL     1     -35.028  26.242   4.342  0.00  0.00    +0.149 C 
ATOM     16  C   UNL     1     -35.886  25.451   3.577  0.00  0.00    +0.041 C 
ATOM     17  C   UNL     1     -36.160  24.140   3.965  0.00  0.00    +0.041 C 
ATOM     18  C   UNL     1     -34.443  25.720   5.497  0.00  0.00    +0.092 C 
ATOM     19  C   UNL     1     -35.575  23.618   5.120  0.00  0.00    +0.061 C 
ATOM     20  C   UNL     1     -34.716  24.409   5.885  0.00  0.00    +0.026 C 
BRANCH  15  21
ATOM     21  O   UNL     1     -34.778  27.526   3.937  0.00  0.00    -0.477 OA
BRANCH  21  22
ATOM     22  C   UNL     1     -33.931  27.688   2.807  0.00  0.00    +0.183 C 
BRANCH  22  23
ATOM     23  C   UNL     1     -33.253  29.046   2.894  0.00  0.00    -0.029 C 
BRANCH  23  24
ATOM     24  N   UNL     1     -32.742  29.280   4.236  0.00  0.00    +0.389 N 
ATOM     25  C   UNL     1     -31.389  28.754   4.418  0.00  0.00    -0.077 C 
ATOM     26  C   UNL     1     -32.642  30.703   4.556  0.00  0.00    -0.077 C 
ATOM     27  C   UNL     1     -30.927  29.433   5.699  0.00  0.00    -0.025 C 
ATOM     28  C   UNL     1     -31.753  30.712   5.792  0.00  0.00    -0.025 C 
ATOM     29  H   UNL     1     -33.412  28.806   4.842  0.00  0.00    -0.080 HD
ENDBRANCH  23  24
ENDBRANCH  22  23
ENDBRANCH  21  22
ENDBRANCH  15  21
ENDBRANCH   5  17
BRANCH   8  32
ATOM     30  O   UNL     1     -34.979  18.638  -0.240  0.00  0.00    -0.270 OA
ATOM     31  N   UNL     1     -33.638  18.990   1.619  0.00  0.00    -0.300 N 
ATOM     32  C   UNL     1     -34.785  19.256   0.838  0.00  0.00    +0.252 C 
ATOM     33  H   UNL     1     -33.527  19.498   2.455  0.00  0.00    +0.150 HD
BRANCH  31  34
ATOM     34  C   UNL     1     -32.619  18.025   1.277  0.00  0.00    +0.090 C 
ATOM     35  C   UNL     1     -31.417  18.691   0.640  0.00  0.00    +0.023 C 
ENDBRANCH  31  34
ENDBRANCH   8  32
TORSDOF 7
ENDMDL
MODEL 2
REMARK VINA RESULT:      -6.9      2.875      8.644
REMARK  Name = 56973715
REMARK  7 active torsions:
REMARK  status: ('A' for Active; 'I' for Inactive)
REMARK    1  A    between atoms: C_5  and  C_17
REMARK    2  A    between atoms: C_8  and  C_32
REMARK    3  A    between atoms: C_15  and  O_21
REMARK    4  A    between atoms: O_21  and  C_22
REMARK    5  A    between atoms: C_22  and  C_23
REMARK    6  A    between atoms: C_23  and  N_24
REMARK    7  A    between atoms: N_31  and  C_34
REMARK                            x       y       z     vdW  Elec       q    Type
REMARK                         _______ _______ _______ _____ _____    ______ ____
ROOT
ATOM      1  S   UNL     1     -36.038  26.149   2.343  0.00  0.00    -0.096 S 
ATOM      2  N   UNL     1     -36.447  22.762   4.459  0.00  0.00    -0.332 NA
ATOM      3  N   UNL     1     -34.942  24.294   5.575  0.00  0.00    -0.332 NA
ATOM      4  N   UNL     1     -35.441  22.205   6.493  0.00  0.00    -0.283 N 
ATOM      5  C   UNL     1     -36.637  23.634   3.449  0.00  0.00    +0.140 C 
ATOM      6  C   UNL     1     -35.984  24.861   3.476  0.00  0.00    +0.158 C 
ATOM      7  C   UNL     1     -35.145  25.162   4.548  0.00  0.00    +0.140 C 
ATOM      8  C   UNL     1     -34.957  27.097   3.267  0.00  0.00    +0.082 C 
ATOM      9  C   UNL     1     -34.558  26.456   4.418  0.00  0.00    +0.041 C 
ATOM     10  C   UNL     1     -35.619  23.141   5.449  0.00  0.00    +0.196 C 
ATOM     11  H   UNL     1     -35.909  21.340   6.464  0.00  0.00    +0.156 HD
ATOM     12  H   UNL     1     -34.849  22.419   7.251  0.00  0.00    +0.156 HD
ENDROOT
BRANCH   5  17
ATOM     13 CL   UNL     1     -40.225  21.883  -0.984  0.00  0.00    -0.079 Cl
ATOM     14 CL   UNL     1     -39.522  24.726   3.509  0.00  0.00    -0.082 Cl
ATOM     15  C   UNL     1     -37.860  21.947   0.357  0.00  0.00    +0.149 C 
ATOM     16  C   UNL     1     -37.034  22.365   1.401  0.00  0.00    +0.041 C 
ATOM     17  C   UNL     1     -37.530  23.224   2.382  0.00  0.00    +0.041 C 
ATOM     18  C   UNL     1     -39.183  22.385   0.295  0.00  0.00    +0.092 C 
ATOM     19  C   UNL     1     -38.853  23.662   2.320  0.00  0.00    +0.061 C 
ATOM     20  C   UNL     1     -39.679  23.243   1.276  0.00  0.00    +0.026 C 
BRANCH  15  21
ATOM     21  O   UNL     1     -37.345  21.104  -0.593  0.00  0.00    -0.477 OA
BRANCH  21  22
ATOM     22  C   UNL     1     -36.106  20.476  -0.289  0.00  0.00    +0.183 C 
BRANCH  22  23
ATOM     23  C   UNL     1     -36.360  19.005  -0.002  0.00  0.00    -0.029 C 
BRANCH  23  24
ATOM     24  N   UNL     1     -35.206  18.403   0.648  0.00  0.00    +0.389 N 
ATOM     25  C   UNL     1     -34.391  17.616  -0.277  0.00  0.00    -0.077 C 
ATOM     26  C   UNL     1     -34.293  19.401   1.203  0.00  0.00    -0.077 C 
ATOM     27  C   UNL     1     -33.090  17.426   0.489  0.00  0.00    -0.025 C 
ATOM     28  C   UNL     1     -33.028  18.597   1.465  0.00  0.00    -0.025 C 
ATOM     29  H   UNL     1     -35.611  17.818   1.379  0.00  0.00    -0.080 HD
ENDBRANCH  23  24
ENDBRANCH  22  23
ENDBRANCH  21  22
ENDBRANCH  15  21
ENDBRANCH   5  17
BRANCH   8  32
ATOM     30  O   UNL     1     -33.691  28.545   1.928  0.00  0.00    -0.270 OA
ATOM     31  N   UNL     1     -35.287  29.508   3.308  0.00  0.00    -0.300 N 
ATOM     32  C   UNL     1     -34.590  28.392   2.793  0.00  0.00    +0.252 C 
ATOM     33  H   UNL     1     -35.983  29.341   3.983  0.00  0.00    +0.150 HD
BRANCH  31  34
ATOM     34  C   UNL     1     -35.047  30.877   2.912  0.00  0.00    +0.090 C 
ATOM     35  C   UNL     1     -36.210  31.436   2.118  0.00  0.00    +0.023 C 
ENDBRANCH  31  34
ENDBRANCH   8  32
TORSDOF 7
ENDMDL
MODEL 3
REMARK VINA RESULT:      -6.8      2.728      5.161
REMARK  Name = 56973715
REMARK  7 active torsions:
REMARK  status: ('A' for Active; 'I' for Inactive)
REMARK    1  A    between atoms: C_5  and  C_17
REMARK    2  A    between atoms: C_8  and  C_32
REMARK    3  A    between atoms: C_15  and  O_21
REMARK    4  A    between atoms: O_21  and  C_22
REMARK    5  A    between atoms: C_22  and  C_23
REMARK    6  A    between atoms: C_23  and  N_24
REMARK    7  A    between atoms: N_31  and  C_34
REMARK                            x       y       z     vdW  Elec       q    Type
REMARK                         _______ _______ _______ _____ _____    ______ ____
ROOT
ATOM      1  S   UNL     1     -38.896  24.879   3.006  0.00  0.00    -0.096 S 
ATOM      2  N   UNL     1     -36.261  21.852   2.941  0.00  0.00    -0.332 NA
ATOM      3  N   UNL     1     -38.239  21.295   1.663  0.00  0.00    -0.332 NA
ATOM      4  N   UNL     1     -36.467  19.787   1.866  0.00  0.00    -0.283 N 
ATOM      5  C   UNL     1     -36.763  23.063   3.251  0.00  0.00    +0.140 C 
ATOM      6  C   UNL     1     -38.019  23.422   2.774  0.00  0.00    +0.158 C 
ATOM      7  C   UNL     1     -38.732  22.521   1.985  0.00  0.00    +0.140 C 
ATOM      8  C   UNL     1     -40.210  24.318   2.068  0.00  0.00    +0.082 C 
ATOM      9  C   UNL     1     -39.995  23.048   1.582  0.00  0.00    +0.041 C 
ATOM     10  C   UNL     1     -37.022  21.049   2.174  0.00  0.00    +0.196 C 
ATOM     11  H   UNL     1     -35.577  19.544   2.209  0.00  0.00    +0.156 HD
ATOM     12  H   UNL     1     -36.970  19.150   1.308  0.00  0.00    +0.156 HD
ENDROOT
BRANCH   5  17
ATOM     13 CL   UNL     1     -33.397  26.697   6.575  0.00  0.00    -0.079 Cl
ATOM     14 CL   UNL     1     -35.698  21.900   5.903  0.00  0.00    -0.082 Cl
ATOM     15  C   UNL     1     -34.899  26.084   4.393  0.00  0.00    +0.149 C 
ATOM     16  C   UNL     1     -35.685  25.221   3.628  0.00  0.00    +0.041 C 
ATOM     17  C   UNL     1     -35.942  23.926   4.078  0.00  0.00    +0.041 C 
ATOM     18  C   UNL     1     -34.370  25.652   5.609  0.00  0.00    +0.092 C 
ATOM     19  C   UNL     1     -35.413  23.494   5.295  0.00  0.00    +0.061 C 
ATOM     20  C   UNL     1     -34.627  24.357   6.060  0.00  0.00    +0.026 C 
BRANCH  15  21
ATOM     21  O   UNL     1     -34.664  27.350   3.925  0.00  0.00    -0.477 OA
BRANCH  21  22
ATOM     22  C   UNL     1     -33.709  27.481   2.880  0.00  0.00    +0.183 C 
BRANCH  22  23
ATOM     23  C   UNL     1     -33.113  28.878   2.933  0.00  0.00    -0.029 C 
BRANCH  23  24
ATOM     24  N   UNL     1     -32.681  29.201   4.284  0.00  0.00    +0.389 N 
ATOM     25  C   UNL     1     -31.319  28.743   4.560  0.00  0.00    -0.077 C 
ATOM     26  C   UNL     1     -32.653  30.642   4.533  0.00  0.00    -0.077 C 
ATOM     27  C   UNL     1     -30.951  29.505   5.824  0.00  0.00    -0.025 C 
ATOM     28  C   UNL     1     -31.830  30.752   5.808  0.00  0.00    -0.025 C 
ATOM     29  H   UNL     1     -33.362  28.731   4.881  0.00  0.00    -0.080 HD
ENDBRANCH  23  24
ENDBRANCH  22  23
ENDBRANCH  21  22
ENDBRANCH  15  21
ENDBRANCH   5  17
BRANCH   8  32
ATOM     30  O   UNL     1     -41.375  26.332   2.348  0.00  0.00    -0.270 OA
ATOM     31  N   UNL     1     -42.428  24.664   1.129  0.00  0.00    -0.300 N 
ATOM     32  C   UNL     1     -41.342  25.165   1.882  0.00  0.00    +0.252 C 
ATOM     33  H   UNL     1     -42.359  23.745   0.783  0.00  0.00    +0.150 HD
BRANCH  31  34
ATOM     34  C   UNL     1     -43.633  25.406   0.835  0.00  0.00    +0.090 C 
ATOM     35  C   UNL     1     -44.656  25.262   1.942  0.00  0.00    +0.023 C 
ENDBRANCH  31  34
ENDBRANCH   8  32
TORSDOF 7
ENDMDL
MODEL 4
REMARK VINA RESULT:      -6.7      1.351      2.140
REMARK  Name = 56973715
REMARK  7 active torsions:
REMARK  status: ('A' for Active; 'I' for Inactive)
REMARK    1  A    between atoms: C_5  and  C_17
REMARK    2  A    between atoms: C_8  and  C_32
REMARK    3  A    between atoms: C_15  and  O_21
REMARK    4  A    between atoms: O_21  and  C_22
REMARK    5  A    between atoms: C_22  and  C_23
REMARK    6  A    between atoms: C_23  and  N_24
REMARK    7  A    between atoms: N_31  and  C_34
REMARK                            x       y       z     vdW  Elec       q    Type
REMARK                         _______ _______ _______ _____ _____    ______ ____
ROOT
ATOM      1  S   UNL     1     -35.004  21.445   2.340  0.00  0.00    -0.096 S 
ATOM      2  N   UNL     1     -38.272  23.654   3.081  0.00  0.00    -0.332 NA
ATOM      3  N   UNL     1     -38.801  21.808   1.608  0.00  0.00    -0.332 NA
ATOM      4  N   UNL     1     -40.443  23.328   2.278  0.00  0.00    -0.283 N 
ATOM      5  C   UNL     1     -36.981  23.275   3.145  0.00  0.00    +0.140 C 
ATOM      6  C   UNL     1     -36.565  22.151   2.441  0.00  0.00    +0.158 C 
ATOM      7  C   UNL     1     -37.494  21.439   1.684  0.00  0.00    +0.140 C 
ATOM      8  C   UNL     1     -35.557  20.206   1.300  0.00  0.00    +0.082 C 
ATOM      9  C   UNL     1     -36.902  20.318   1.029  0.00  0.00    +0.041 C 
ATOM     10  C   UNL     1     -39.095  22.906   2.324  0.00  0.00    +0.196 C 
ATOM     11  H   UNL     1     -40.726  24.126   2.780  0.00  0.00    +0.156 HD
ATOM     12  H   UNL     1     -41.099  22.825   1.743  0.00  0.00    +0.156 HD
ENDROOT
BRANCH   5  17
ATOM     13 CL   UNL     1     -33.355  26.688   6.430  0.00  0.00    -0.079 Cl
ATOM     14 CL   UNL     1     -35.801  21.975   5.681  0.00  0.00    -0.082 Cl
ATOM     15  C   UNL     1     -34.988  26.203   4.310  0.00  0.00    +0.149 C 
ATOM     16  C   UNL     1     -35.834  25.392   3.553  0.00  0.00    +0.041 C 
ATOM     17  C   UNL     1     -36.096  24.084   3.961  0.00  0.00    +0.041 C 
ATOM     18  C   UNL     1     -34.404  25.707   5.476  0.00  0.00    +0.092 C 
ATOM     19  C   UNL     1     -35.512  23.588   5.127  0.00  0.00    +0.061 C 
ATOM     20  C   UNL     1     -34.666  24.399   5.884  0.00  0.00    +0.026 C 
BRANCH  15  21
ATOM     21  O   UNL     1     -34.749  27.484   3.885  0.00  0.00    -0.477 OA
BRANCH  21  22
ATOM     22  C   UNL     1     -33.608  27.683   3.060  0.00  0.00    +0.183 C 
BRANCH  22  23
ATOM     23  C   UNL     1     -33.562  29.141   2.631  0.00  0.00    -0.029 C 
BRANCH  23  24
ATOM     24  N   UNL     1     -34.907  29.664   2.450  0.00  0.00    +0.389 N 
ATOM     25  C   UNL     1     -35.012  31.075   2.822  0.00  0.00    -0.077 C 
ATOM     26  C   UNL     1     -35.348  29.606   1.057  0.00  0.00    -0.077 C 
ATOM     27  C   UNL     1     -36.336  31.496   2.201  0.00  0.00    -0.025 C 
ATOM     28  C   UNL     1     -36.558  30.528   1.043  0.00  0.00    -0.025 C 
ATOM     29  H   UNL     1     -35.485  29.076   3.050  0.00  0.00    -0.080 HD
ENDBRANCH  23  24
ENDBRANCH  22  23
ENDBRANCH  21  22
ENDBRANCH  15  21
ENDBRANCH   5  17
BRANCH   8  32
ATOM     30  O   UNL     1     -34.816  18.603  -0.242  0.00  0.00    -0.270 OA
ATOM     31  N   UNL     1     -33.476  18.985   1.612  0.00  0.00    -0.300 N 
ATOM     32  C   UNL     1     -34.631  19.225   0.835  0.00  0.00    +0.252 C 
ATOM     33  H   UNL     1     -33.371  19.494   2.448  0.00  0.00    +0.150 HD
BRANCH  31  34
ATOM     34  C   UNL     1     -32.437  18.042   1.265  0.00  0.00    +0.090 C 
ATOM     35  C   UNL     1     -31.288  18.722   0.550  0.00  0.00    +0.023 C 
ENDBRANCH  31  34
ENDBRANCH   8  32
TORSDOF 7
ENDMDL
MODEL 5
REMARK VINA RESULT:      -6.7      2.647      8.444
REMARK  Name = 56973715
REMARK  7 active torsions:
REMARK  status: ('A' for Active; 'I' for Inactive)
REMARK    1  A    between atoms: C_5  and  C_17
REMARK    2  A    between atoms: C_8  and  C_32
REMARK    3  A    between atoms: C_15  and  O_21
REMARK    4  A    between atoms: O_21  and  C_22
REMARK    5  A    between atoms: C_22  and  C_23
REMARK    6  A    between atoms: C_23  and  N_24
REMARK    7  A    between atoms: N_31  and  C_34
REMARK                            x       y       z     vdW  Elec       q    Type
REMARK                         _______ _______ _______ _____ _____    ______ ____
ROOT
ATOM      1  S   UNL     1     -35.129  26.075   2.775  0.00  0.00    -0.096 S 
ATOM      2  N   UNL     1     -36.373  22.607   4.368  0.00  0.00    -0.332 NA
ATOM      3  N   UNL     1     -34.980  23.819   5.933  0.00  0.00    -0.332 NA
ATOM      4  N   UNL     1     -35.903  21.747   6.490  0.00  0.00    -0.283 N 
ATOM      5  C   UNL     1     -36.238  23.579   3.445  0.00  0.00    +0.140 C 
ATOM      6  C   UNL     1     -35.470  24.699   3.743  0.00  0.00    +0.158 C 
ATOM      7  C   UNL     1     -34.855  24.791   4.991  0.00  0.00    +0.140 C 
ATOM      8  C   UNL     1     -34.173  26.785   4.001  0.00  0.00    +0.082 C 
ATOM      9  C   UNL     1     -34.109  25.999   5.129  0.00  0.00    +0.041 C 
ATOM     10  C   UNL     1     -35.742  22.783   5.543  0.00  0.00    +0.196 C 
ATOM     11  H   UNL     1     -36.450  20.958   6.268  0.00  0.00    +0.156 HD
ATOM     12  H   UNL     1     -35.469  21.812   7.371  0.00  0.00    +0.156 HD
ENDROOT
BRANCH   5  17
ATOM     13 CL   UNL     1     -38.948  22.730  -1.801  0.00  0.00    -0.079 Cl
ATOM     14 CL   UNL     1     -39.085  24.734   3.171  0.00  0.00    -0.082 Cl
ATOM     15  C   UNL     1     -36.869  22.488  -0.064  0.00  0.00    +0.149 C 
ATOM     16  C   UNL     1     -36.250  22.695   1.169  0.00  0.00    +0.041 C 
ATOM     17  C   UNL     1     -36.919  23.387   2.179  0.00  0.00    +0.041 C 
ATOM     18  C   UNL     1     -38.159  22.972  -0.287  0.00  0.00    +0.092 C 
ATOM     19  C   UNL     1     -38.208  23.871   1.956  0.00  0.00    +0.061 C 
ATOM     20  C   UNL     1     -38.828  23.664   0.723  0.00  0.00    +0.026 C 
BRANCH  15  21
ATOM     21  O   UNL     1     -36.188  21.805  -1.037  0.00  0.00    -0.477 OA
BRANCH  21  22
ATOM     22  C   UNL     1     -35.211  20.869  -0.599  0.00  0.00    +0.183 C 
BRANCH  22  23
ATOM     23  C   UNL     1     -35.917  19.602  -0.146  0.00  0.00    -0.029 C 
BRANCH  23  24
ATOM     24  N   UNL     1     -34.991  18.718   0.545  0.00  0.00    +0.389 N 
ATOM     25  C   UNL     1     -34.333  17.778  -0.362  0.00  0.00    -0.077 C 
ATOM     26  C   UNL     1     -33.900  19.447   1.192  0.00  0.00    -0.077 C 
ATOM     27  C   UNL     1     -33.171  17.255   0.470  0.00  0.00    -0.025 C 
ATOM     28  C   UNL     1     -32.889  18.350   1.494  0.00  0.00    -0.025 C 
ATOM     29  H   UNL     1     -35.573  18.233   1.228  0.00  0.00    -0.080 HD
ENDBRANCH  23  24
ENDBRANCH  22  23
ENDBRANCH  21  22
ENDBRANCH  15  21
ENDBRANCH   5  17
BRANCH   8  32
ATOM     30  O   UNL     1     -33.801  28.708   2.713  0.00  0.00    -0.270 OA
ATOM     31  N   UNL     1     -32.701  28.572   4.750  0.00  0.00    -0.300 N 
ATOM     32  C   UNL     1     -33.565  28.053   3.760  0.00  0.00    +0.252 C 
ATOM     33  H   UNL     1     -32.545  28.026   5.554  0.00  0.00    +0.150 HD
BRANCH  31  34
ATOM     34  C   UNL     1     -32.030  29.849   4.664  0.00  0.00    +0.090 C 
ATOM     35  C   UNL     1     -31.939  30.520   6.019  0.00  0.00    +0.023 C 
ENDBRANCH  31  34
ENDBRANCH   8  32
TORSDOF 7
ENDMDL
MODEL 6
REMARK VINA RESULT:      -6.6      3.599      8.154
REMARK  Name = 56973715
REMARK  7 active torsions:
REMARK  status: ('A' for Active; 'I' for Inactive)
REMARK    1  A    between atoms: C_5  and  C_17
REMARK    2  A    between atoms: C_8  and  C_32
REMARK    3  A    between atoms: C_15  and  O_21
REMARK    4  A    between atoms: O_21  and  C_22
REMARK    5  A    between atoms: C_22  and  C_23
REMARK    6  A    between atoms: C_23  and  N_24
REMARK    7  A    between atoms: N_31  and  C_34
REMARK                            x       y       z     vdW  Elec       q    Type
REMARK                         _______ _______ _______ _____ _____    ______ ____
ROOT
ATOM      1  S   UNL     1     -36.207  25.746   2.320  0.00  0.00    -0.096 S 
ATOM      2  N   UNL     1     -36.298  22.512   4.696  0.00  0.00    -0.332 NA
ATOM      3  N   UNL     1     -34.876  24.229   5.638  0.00  0.00    -0.332 NA
ATOM      4  N   UNL     1     -35.191  22.187   6.728  0.00  0.00    -0.283 N 
ATOM      5  C   UNL     1     -36.584  23.288   3.632  0.00  0.00    +0.140 C 
ATOM      6  C   UNL     1     -36.023  24.556   3.543  0.00  0.00    +0.158 C 
ATOM      7  C   UNL     1     -35.175  24.999   4.558  0.00  0.00    +0.140 C 
ATOM      8  C   UNL     1     -35.171  26.837   3.130  0.00  0.00    +0.082 C 
ATOM      9  C   UNL     1     -34.689  26.317   4.310  0.00  0.00    +0.041 C 
ATOM     10  C   UNL     1     -35.470  23.024   5.624  0.00  0.00    +0.196 C 
ATOM     11  H   UNL     1     -35.594  21.291   6.780  0.00  0.00    +0.156 HD
ATOM     12  H   UNL     1     -34.592  22.500   7.445  0.00  0.00    +0.156 HD
ENDROOT
BRANCH   5  17
ATOM     13 CL   UNL     1     -40.337  21.086  -0.450  0.00  0.00    -0.079 Cl
ATOM     14 CL   UNL     1     -35.534  20.937   1.932  0.00  0.00    -0.082 Cl
ATOM     15  C   UNL     1     -39.638  22.790   1.551  0.00  0.00    +0.149 C 
ATOM     16  C   UNL     1     -38.748  23.294   2.500  0.00  0.00    +0.041 C 
ATOM     17  C   UNL     1     -37.477  22.734   2.632  0.00  0.00    +0.041 C 
ATOM     18  C   UNL     1     -39.257  21.727   0.732  0.00  0.00    +0.092 C 
ATOM     19  C   UNL     1     -37.096  21.670   1.814  0.00  0.00    +0.061 C 
ATOM     20  C   UNL     1     -37.986  21.167   0.864  0.00  0.00    +0.026 C 
BRANCH  15  21
ATOM     21  O   UNL     1     -40.879  23.361   1.444  0.00  0.00    -0.477 OA
BRANCH  21  22
ATOM     22  C   UNL     1     -40.924  24.771   1.267  0.00  0.00    +0.183 C 
BRANCH  22  23
ATOM     23  C   UNL     1     -42.377  25.208   1.181  0.00  0.00    -0.029 C 
BRANCH  23  24
ATOM     24  N   UNL     1     -42.700  26.131   2.258  0.00  0.00    +0.389 N 
ATOM     25  C   UNL     1     -41.593  26.299   3.200  0.00  0.00    -0.077 C 
ATOM     26  C   UNL     1     -42.991  27.479   1.772  0.00  0.00    -0.077 C 
ATOM     27  C   UNL     1     -41.987  27.549   3.973  0.00  0.00    -0.025 C 
ATOM     28  C   UNL     1     -42.910  28.322   3.036  0.00  0.00    -0.025 C 
ATOM     29  H   UNL     1     -43.513  25.711   2.709  0.00  0.00    -0.080 HD
ENDBRANCH  23  24
ENDBRANCH  22  23
ENDBRANCH  21  22
ENDBRANCH  15  21
ENDBRANCH   5  17
BRANCH   8  32
ATOM     30  O   UNL     1     -34.466  28.226   1.378  0.00  0.00    -0.270 OA
ATOM     31  N   UNL     1     -35.206  29.263   3.316  0.00  0.00    -0.300 N 
ATOM     32  C   UNL     1     -34.915  28.114   2.547  0.00  0.00    +0.252 C 
ATOM     33  H   UNL     1     -35.557  29.129   4.226  0.00  0.00    +0.150 HD
BRANCH  31  34
ATOM     34  C   UNL     1     -35.024  30.623   2.859  0.00  0.00    +0.090 C 
ATOM     35  C   UNL     1     -33.683  31.178   3.293  0.00  0.00    +0.023 C 
ENDBRANCH  31  34
ENDBRANCH   8  32
TORSDOF 7
ENDMDL
MODEL 7
REMARK VINA RESULT:      -6.5      4.019      8.563
REMARK  Name = 56973715
REMARK  7 active torsions:
REMARK  status: ('A' for Active; 'I' for Inactive)
REMARK    1  A    between atoms: C_5  and  C_17
REMARK    2  A    between atoms: C_8  and  C_32
REMARK    3  A    between atoms: C_15  and  O_21
REMARK    4  A    between atoms: O_21  and  C_22
REMARK    5  A    between atoms: C_22  and  C_23
REMARK    6  A    between atoms: C_23  and  N_24
REMARK    7  A    between atoms: N_31  and  C_34
REMARK                            x       y       z     vdW  Elec       q    Type
REMARK                         _______ _______ _______ _____ _____    ______ ____
ROOT
ATOM      1  S   UNL     1     -35.383  26.437   2.929  0.00  0.00    -0.096 S 
ATOM      2  N   UNL     1     -36.688  22.980   4.497  0.00  0.00    -0.332 NA
ATOM      3  N   UNL     1     -34.832  23.856   5.779  0.00  0.00    -0.332 NA
ATOM      4  N   UNL     1     -35.873  21.852   6.375  0.00  0.00    -0.283 N 
ATOM      5  C   UNL     1     -36.636  24.024   3.646  0.00  0.00    +0.140 C 
ATOM      6  C   UNL     1     -35.679  25.013   3.841  0.00  0.00    +0.158 C 
ATOM      7  C   UNL     1     -34.793  24.903   4.912  0.00  0.00    +0.140 C 
ATOM      8  C   UNL     1     -34.091  26.902   3.947  0.00  0.00    +0.082 C 
ATOM      9  C   UNL     1     -33.881  25.999   4.964  0.00  0.00    +0.041 C 
ATOM     10  C   UNL     1     -35.792  22.959   5.500  0.00  0.00    +0.196 C 
ATOM     11  H   UNL     1     -36.556  21.158   6.227  0.00  0.00    +0.156 HD
ATOM     12  H   UNL     1     -35.248  21.775   7.131  0.00  0.00    +0.156 HD
ENDROOT
BRANCH   5  17
ATOM     13 CL   UNL     1     -40.684  24.168  -0.733  0.00  0.00    -0.079 Cl
ATOM     14 CL   UNL     1     -35.862  22.607   1.018  0.00  0.00    -0.082 Cl
ATOM     15  C   UNL     1     -39.774  24.742   1.765  0.00  0.00    +0.149 C 
ATOM     16  C   UNL     1     -38.816  24.699   2.778  0.00  0.00    +0.041 C 
ATOM     17  C   UNL     1     -37.603  24.044   2.566  0.00  0.00    +0.041 C 
ATOM     18  C   UNL     1     -39.518  24.130   0.537  0.00  0.00    +0.092 C 
ATOM     19  C   UNL     1     -37.347  23.433   1.338  0.00  0.00    +0.061 C 
ATOM     20  C   UNL     1     -38.305  23.475   0.324  0.00  0.00    +0.026 C 
BRANCH  15  21
ATOM     21  O   UNL     1     -40.956  25.392   2.002  0.00  0.00    -0.477 OA
BRANCH  21  22
ATOM     22  C   UNL     1     -41.023  26.192   3.176  0.00  0.00    +0.183 C 
BRANCH  22  23
ATOM     23  C   UNL     1     -42.196  27.152   3.048  0.00  0.00    -0.029 C 
BRANCH  23  24
ATOM     24  N   UNL     1     -43.366  26.626   3.733  0.00  0.00    +0.389 N 
ATOM     25  C   UNL     1     -44.062  27.647   4.515  0.00  0.00    -0.077 C 
ATOM     26  C   UNL     1     -44.371  26.108   2.805  0.00  0.00    -0.077 C 
ATOM     27  C   UNL     1     -45.410  27.001   4.800  0.00  0.00    -0.025 C 
ATOM     28  C   UNL     1     -45.611  25.987   3.679  0.00  0.00    -0.025 C 
ATOM     29  H   UNL     1     -42.993  25.888   4.330  0.00  0.00    -0.080 HD
ENDBRANCH  23  24
ENDBRANCH  22  23
ENDBRANCH  21  22
ENDBRANCH  15  21
ENDBRANCH   5  17
BRANCH   8  32
ATOM     30  O   UNL     1     -33.193  28.504   2.490  0.00  0.00    -0.270 OA
ATOM     31  N   UNL     1     -32.939  28.884   4.764  0.00  0.00    -0.300 N 
ATOM     32  C   UNL     1     -33.390  28.113   3.669  0.00  0.00    +0.252 C 
ATOM     33  H   UNL     1     -33.116  28.540   5.669  0.00  0.00    +0.150 HD
BRANCH  31  34
ATOM     34  C   UNL     1     -32.236  30.141   4.647  0.00  0.00    +0.090 C 
ATOM     35  C   UNL     1     -31.786  30.652   5.999  0.00  0.00    +0.023 C 
ENDBRANCH  31  34
ENDBRANCH   8  32
TORSDOF 7
ENDMDL
MODEL 8
REMARK VINA RESULT:      -6.5      3.563      7.947
REMARK  Name = 56973715
REMARK  7 active torsions:
REMARK  status: ('A' for Active; 'I' for Inactive)
REMARK    1  A    between atoms: C_5  and  C_17
REMARK    2  A    between atoms: C_8  and  C_32
REMARK    3  A    between atoms: C_15  and  O_21
REMARK    4  A    between atoms: O_21  and  C_22
REMARK    5  A    between atoms: C_22  and  C_23
REMARK    6  A    between atoms: C_23  and  N_24
REMARK    7  A    between atoms: N_31  and  C_34
REMARK                            x       y       z     vdW  Elec       q    Type
REMARK                         _______ _______ _______ _____ _____    ______ ____
ROOT
ATOM      1  S   UNL     1     -39.446  24.685   2.579  0.00  0.00    -0.096 S 
ATOM      2  N   UNL     1     -35.873  26.484   2.243  0.00  0.00    -0.332 NA
ATOM      3  N   UNL     1     -37.558  27.684   0.987  0.00  0.00    -0.332 NA
ATOM      4  N   UNL     1     -35.342  28.418   1.044  0.00  0.00    -0.283 N 
ATOM      5  C   UNL     1     -36.777  25.569   2.645  0.00  0.00    +0.140 C 
ATOM      6  C   UNL     1     -38.098  25.688   2.227  0.00  0.00    +0.158 C 
ATOM      7  C   UNL     1     -38.458  26.752   1.401  0.00  0.00    +0.140 C 
ATOM      8  C   UNL     1     -40.497  25.654   1.642  0.00  0.00    +0.082 C 
ATOM      9  C   UNL     1     -39.845  26.723   1.070  0.00  0.00    +0.041 C 
ATOM     10  C   UNL     1     -36.313  27.475   1.447  0.00  0.00    +0.196 C 
ATOM     11  H   UNL     1     -34.410  28.324   1.346  0.00  0.00    +0.156 HD
ATOM     12  H   UNL     1     -35.597  29.170   0.461  0.00  0.00    +0.156 HD
ENDROOT
BRANCH   5  17
ATOM     13 CL   UNL     1     -34.813  21.109   6.086  0.00  0.00    -0.079 Cl
ATOM     14 CL   UNL     1     -36.298  26.241   5.617  0.00  0.00    -0.082 Cl
ATOM     15  C   UNL     1     -35.629  22.191   3.728  0.00  0.00    +0.149 C 
ATOM     16  C   UNL     1     -36.087  23.245   2.937  0.00  0.00    +0.041 C 
ATOM     17  C   UNL     1     -36.300  24.502   3.504  0.00  0.00    +0.041 C 
ATOM     18  C   UNL     1     -35.381  22.394   5.086  0.00  0.00    +0.092 C 
ATOM     19  C   UNL     1     -36.053  24.705   4.861  0.00  0.00    +0.061 C 
ATOM     20  C   UNL     1     -35.594  23.651   5.652  0.00  0.00    +0.026 C 
BRANCH  15  21
ATOM     21  O   UNL     1     -35.429  20.968   3.144  0.00  0.00    -0.477 OA
BRANCH  21  22
ATOM     22  C   UNL     1     -36.242  20.653   2.021  0.00  0.00    +0.183 C 
BRANCH  22  23
ATOM     23  C   UNL     1     -35.376  20.666   0.771  0.00  0.00    -0.029 C 
BRANCH  23  24
ATOM     24  N   UNL     1     -34.022  20.232   1.080  0.00  0.00    +0.389 N 
ATOM     25  C   UNL     1     -33.888  18.775   1.076  0.00  0.00    -0.077 C 
ATOM     26  C   UNL     1     -33.046  20.705   0.099  0.00  0.00    -0.077 C 
ATOM     27  C   UNL     1     -32.382  18.570   1.025  0.00  0.00    -0.025 C 
ATOM     28  C   UNL     1     -31.827  19.840   0.387  0.00  0.00    -0.025 C 
ATOM     29  H   UNL     1     -33.842  20.621   2.005  0.00  0.00    -0.080 HD
ENDBRANCH  23  24
ENDBRANCH  22  23
ENDBRANCH  21  22
ENDBRANCH  15  21
ENDBRANCH   5  17
BRANCH   8  32
ATOM     30  O   UNL     1     -42.237  24.238   0.962  0.00  0.00    -0.270 OA
ATOM     31  N   UNL     1     -42.827  26.142   2.149  0.00  0.00    -0.300 N 
ATOM     32  C   UNL     1     -41.873  25.291   1.545  0.00  0.00    +0.252 C 
ATOM     33  H   UNL     1     -42.497  26.955   2.595  0.00  0.00    +0.150 HD
BRANCH  31  34
ATOM     34  C   UNL     1     -44.252  25.900   2.156  0.00  0.00    +0.090 C 
ATOM     35  C   UNL     1     -45.014  27.070   1.570  0.00  0.00    +0.023 C 
ENDBRANCH  31  34
ENDBRANCH   8  32
TORSDOF 7
ENDMDL
MODEL 9
REMARK VINA RESULT:      -6.5      4.547      7.499
REMARK  Name = 56973715
REMARK  7 active torsions:
REMARK  status: ('A' for Active; 'I' for Inactive)
REMARK    1  A    between atoms: C_5  and  C_17
REMARK    2  A    between atoms: C_8  and  C_32
REMARK    3  A    between atoms: C_15  and  O_21
REMARK    4  A    between atoms: O_21  and  C_22
REMARK    5  A    between atoms: C_22  and  C_23
REMARK    6  A    between atoms: C_23  and  N_24
REMARK    7  A    between atoms: N_31  and  C_34
REMARK                            x       y       z     vdW  Elec       q    Type
REMARK                         _______ _______ _______ _____ _____    ______ ____
ROOT
ATOM      1  S   UNL     1     -34.989  26.546   3.222  0.00  0.00    -0.096 S 
ATOM      2  N   UNL     1     -32.327  28.993   4.963  0.00  0.00    -0.332 NA
ATOM      3  N   UNL     1     -32.757  27.063   6.358  0.00  0.00    -0.332 NA
ATOM      4  N   UNL     1     -31.258  28.726   7.024  0.00  0.00    -0.283 N 
ATOM      5  C   UNL     1     -33.186  28.548   4.025  0.00  0.00    +0.140 C 
ATOM      6  C   UNL     1     -33.854  27.346   4.230  0.00  0.00    +0.158 C 
ATOM      7  C   UNL     1     -33.621  26.628   5.402  0.00  0.00    +0.140 C 
ATOM      8  C   UNL     1     -35.169  25.258   4.331  0.00  0.00    +0.082 C 
ATOM      9  C   UNL     1     -34.385  25.424   5.450  0.00  0.00    +0.041 C 
ATOM     10  C   UNL     1     -32.166  28.232   6.061  0.00  0.00    +0.196 C 
ATOM     11  H   UNL     1     -30.790  29.578   6.868  0.00  0.00    +0.156 HD
ATOM     12  H   UNL     1     -31.093  28.218   7.852  0.00  0.00    +0.156 HD
ENDROOT
BRANCH   5  17
ATOM     13 CL   UNL     1     -33.968  31.991  -0.783  0.00  0.00    -0.079 Cl
ATOM     14 CL   UNL     1     -31.435  27.892   1.571  0.00  0.00    -0.082 Cl
ATOM     15  C   UNL     1     -34.491  31.215   1.770  0.00  0.00    +0.149 C 
ATOM     16  C   UNL     1     -34.296  30.401   2.886  0.00  0.00    +0.041 C 
ATOM     17  C   UNL     1     -33.357  29.370   2.842  0.00  0.00    +0.041 C 
ATOM     18  C   UNL     1     -33.747  30.999   0.610  0.00  0.00    +0.092 C 
ATOM     19  C   UNL     1     -32.612  29.154   1.683  0.00  0.00    +0.061 C 
ATOM     20  C   UNL     1     -32.808  29.969   0.566  0.00  0.00    +0.026 C 
BRANCH  15  21
ATOM     21  O   UNL     1     -35.421  32.220   1.842  0.00  0.00    -0.477 OA
BRANCH  21  22
ATOM     22  C   UNL     1     -36.787  31.827   1.885  0.00  0.00    +0.183 C 
BRANCH  22  23
ATOM     23  C   UNL     1     -37.592  32.760   0.996  0.00  0.00    -0.029 C 
BRANCH  23  24
ATOM     24  N   UNL     1     -38.363  33.697   1.799  0.00  0.00    +0.389 N 
ATOM     25  C   UNL     1     -37.841  35.062   1.719  0.00  0.00    -0.077 C 
ATOM     26  C   UNL     1     -39.754  33.797   1.360  0.00  0.00    -0.077 C 
ATOM     27  C   UNL     1     -38.982  35.898   2.281  0.00  0.00    -0.025 C 
ATOM     28  C   UNL     1     -40.238  35.065   2.049  0.00  0.00    -0.025 C 
ATOM     29  H   UNL     1     -38.294  33.326   2.747  0.00  0.00    -0.080 HD
ENDBRANCH  23  24
ENDBRANCH  22  23
ENDBRANCH  21  22
ENDBRANCH  15  21
ENDBRANCH   5  17
BRANCH   8  32
ATOM     30  O   UNL     1     -37.295  24.273   4.245  0.00  0.00    -0.270 OA
ATOM     31  N   UNL     1     -35.521  23.033   3.411  0.00  0.00    -0.300 N 
ATOM     32  C   UNL     1     -36.061  24.190   4.016  0.00  0.00    +0.252 C 
ATOM     33  H   UNL     1     -34.550  23.011   3.250  0.00  0.00    +0.150 HD
BRANCH  31  34
ATOM     34  C   UNL     1     -36.295  21.879   3.013  0.00  0.00    +0.090 C 
ATOM     35  C   UNL     1     -35.402  20.715   2.637  0.00  0.00    +0.023 C 
ENDBRANCH  31  34
ENDBRANCH   8  32
TORSDOF 7
ENDMDL
