MODEL 1
REMARK VINA RESULT:      -7.0      0.000      0.000
REMARK  Name = 189922
REMARK  10 active torsions:
REMARK  status: ('A' for Active; 'I' for Inactive)
REMARK    1  A    between atoms: C_3  and  O_22
REMARK    2  A    between atoms: C_8  and  O_20
REMARK    3  A    between atoms: C_10  and  C_12
REMARK    4  A    between atoms: C_17  and  O_18
REMARK    5  A    between atoms: O_22  and  C_28
REMARK    6  A    between atoms: C_24  and  O_29
REMARK    7  A    between atoms: C_25  and  O_31
REMARK    8  A    between atoms: C_26  and  O_33
REMARK    9  A    between atoms: C_27  and  C_35
REMARK   10  A    between atoms: C_35  and  O_36
REMARK                            x       y       z     vdW  Elec       q    Type
REMARK                         _______ _______ _______ _____ _____    ______ ____
ROOT
ATOM      1  O   UNL     1     -34.284  23.160   0.687  0.00  0.00    -0.450 OA
ATOM      2  O   UNL     1     -35.467  20.356   3.405  0.00  0.00    -0.286 OA
ATOM      3  C   UNL     1     -35.304  25.369   3.400  0.00  0.00    +0.147 C 
ATOM      4  C   UNL     1     -34.827  24.916   2.170  0.00  0.00    +0.075 C 
ATOM      5  C   UNL     1     -35.713  24.454   4.372  0.00  0.00    +0.074 C 
ATOM      6  C   UNL     1     -34.760  23.546   1.914  0.00  0.00    +0.154 C 
ATOM      7  C   UNL     1     -35.168  22.632   2.885  0.00  0.00    +0.108 C 
ATOM      8  C   UNL     1     -35.646  23.083   4.119  0.00  0.00    +0.148 C 
ATOM      9  C   UNL     1     -35.091  21.189   2.591  0.00  0.00    +0.204 C 
ATOM     10  C   UNL     1     -34.549  20.814   1.256  0.00  0.00    +0.077 C 
ATOM     11  C   UNL     1     -34.197  21.812   0.433  0.00  0.00    +0.183 C 
ENDROOT
BRANCH  10  12
ATOM     12  C   UNL     1     -34.383  19.409   0.850  0.00  0.00    +0.006 C 
ATOM     13  C   UNL     1     -33.226  18.711   1.203  0.00  0.00    +0.003 C 
ATOM     14  C   UNL     1     -35.381  18.769   0.113  0.00  0.00    +0.003 C 
ATOM     15  C   UNL     1     -33.068  17.379   0.818  0.00  0.00    +0.037 C 
ATOM     16  C   UNL     1     -35.224  17.437  -0.271  0.00  0.00    +0.037 C 
ATOM     17  C   UNL     1     -34.067  16.742   0.082  0.00  0.00    +0.134 C 
BRANCH  17  18
ATOM     18  O   UNL     1     -33.913  15.443  -0.292  0.00  0.00    -0.506 OA
ATOM     19  H   UNL     1     -34.256  14.757   0.246  0.00  0.00    +0.292 HD
ENDBRANCH  17  18
ENDBRANCH  10  12
BRANCH   8  20
ATOM     20  O   UNL     1     -36.059  22.235   5.101  0.00  0.00    -0.471 OA
ATOM     21  C   UNL     1     -35.333  22.263   6.328  0.00  0.00    +0.252 C 
ENDBRANCH   8  20
BRANCH   3  22
ATOM     22  O   UNL     1     -35.370  26.707   3.654  0.00  0.00    -0.450 OA
BRANCH  22  28
ATOM     23  O   UNL     1     -33.570  27.635   4.813  0.00  0.00    -0.316 OA
ATOM     24  C   UNL     1     -33.254  29.700   2.841  0.00  0.00    +0.173 C 
ATOM     25  C   UNL     1     -32.564  29.755   4.205  0.00  0.00    +0.169 C 
ATOM     26  C   UNL     1     -34.481  28.787   2.879  0.00  0.00    +0.210 C 
ATOM     27  C   UNL     1     -32.332  28.345   4.753  0.00  0.00    +0.177 C 
ATOM     28  C   UNL     1     -34.153  27.441   3.527  0.00  0.00    +0.318 C 
BRANCH  24  29
ATOM     29  O   UNL     1     -33.659  31.025   2.497  0.00  0.00    -0.379 OA
ATOM     30  H   UNL     1     -33.241  31.284   1.660  0.00  0.00    +0.211 HD
ENDBRANCH  24  29
BRANCH  25  31
ATOM     31  O   UNL     1     -31.311  30.421   4.072  0.00  0.00    -0.379 OA
ATOM     32  H   UNL     1     -30.632  29.780   3.809  0.00  0.00    +0.211 HD
ENDBRANCH  25  31
BRANCH  26  33
ATOM     33  O   UNL     1     -34.931  28.544   1.547  0.00  0.00    -0.377 OA
ATOM     34  H   UNL     1     -34.211  28.729   0.923  0.00  0.00    +0.211 HD
ENDBRANCH  26  33
BRANCH  27  35
ATOM     35  C   UNL     1     -31.751  28.375   6.163  0.00  0.00    +0.169 C 
BRANCH  35  36
ATOM     36  O   UNL     1     -32.095  27.169   6.819  0.00  0.00    -0.379 OA
ATOM     37  H   UNL     1     -31.670  26.422   6.368  0.00  0.00    +0.211 HD
ENDBRANCH  35  36
ENDBRANCH  27  35
ENDBRANCH  22  28
ENDBRANCH   3  22
TORSDOF 10
ENDMDL
MODEL 2
REMARK VINA RESULT:      -6.7      3.651      9.626
REMARK  Name = 189922
REMARK  10 active torsions:
REMARK  status: ('A' for Active; 'I' for Inactive)
REMARK    1  A    between atoms: C_3  and  O_22
REMARK    2  A    between atoms: C_8  and  O_20
REMARK    3  A    between atoms: C_10  and  C_12
REMARK    4  A    between atoms: C_17  and  O_18
REMARK    5  A    between atoms: O_22  and  C_28
REMARK    6  A    between atoms: C_24  and  O_29
REMARK    7  A    between atoms: C_25  and  O_31
REMARK    8  A    between atoms: C_26  and  O_33
REMARK    9  A    between atoms: C_27  and  C_35
REMARK   10  A    between atoms: C_35  and  O_36
REMARK                            x       y       z     vdW  Elec       q    Type
REMARK                         _______ _______ _______ _____ _____    ______ ____
ROOT
ATOM      1  O   UNL     1     -33.159  27.053   6.695  0.00  0.00    -0.450 OA
ATOM      2  O   UNL     1     -31.810  28.406   3.090  0.00  0.00    -0.286 OA
ATOM      3  C   UNL     1     -35.356  25.149   4.497  0.00  0.00    +0.147 C 
ATOM      4  C   UNL     1     -34.750  25.658   5.646  0.00  0.00    +0.075 C 
ATOM      5  C   UNL     1     -34.927  25.568   3.236  0.00  0.00    +0.074 C 
ATOM      6  C   UNL     1     -33.716  26.586   5.531  0.00  0.00    +0.154 C 
ATOM      7  C   UNL     1     -33.288  27.005   4.272  0.00  0.00    +0.108 C 
ATOM      8  C   UNL     1     -33.893  26.497   3.119  0.00  0.00    +0.148 C 
ATOM      9  C   UNL     1     -32.195  27.991   4.176  0.00  0.00    +0.204 C 
ATOM     10  C   UNL     1     -31.607  28.455   5.462  0.00  0.00    +0.077 C 
ATOM     11  C   UNL     1     -32.128  27.955   6.592  0.00  0.00    +0.183 C 
ENDROOT
BRANCH  10  12
ATOM     12  C   UNL     1     -30.485  29.407   5.507  0.00  0.00    +0.006 C 
ATOM     13  C   UNL     1     -30.600  30.654   4.887  0.00  0.00    +0.003 C 
ATOM     14  C   UNL     1     -29.304  29.068   6.170  0.00  0.00    +0.003 C 
ATOM     15  C   UNL     1     -29.537  31.557   4.930  0.00  0.00    +0.037 C 
ATOM     16  C   UNL     1     -28.241  29.971   6.213  0.00  0.00    +0.037 C 
ATOM     17  C   UNL     1     -28.358  31.215   5.593  0.00  0.00    +0.134 C 
BRANCH  17  18
ATOM     18  O   UNL     1     -27.322  32.096   5.636  0.00  0.00    -0.506 OA
ATOM     19  H   UNL     1     -26.966  32.361   6.461  0.00  0.00    +0.292 HD
ENDBRANCH  17  18
ENDBRANCH  10  12
BRANCH   8  20
ATOM     20  O   UNL     1     -33.515  26.872   1.866  0.00  0.00    -0.471 OA
ATOM     21  C   UNL     1     -34.510  27.481   1.045  0.00  0.00    +0.252 C 
ENDBRANCH   8  20
BRANCH   3  22
ATOM     22  O   UNL     1     -36.366  24.239   4.606  0.00  0.00    -0.450 OA
BRANCH  22  28
ATOM     23  O   UNL     1     -38.475  24.700   3.720  0.00  0.00    -0.316 OA
ATOM     24  C   UNL     1     -38.402  22.334   2.093  0.00  0.00    +0.173 C 
ATOM     25  C   UNL     1     -39.685  23.135   2.319  0.00  0.00    +0.169 C 
ATOM     26  C   UNL     1     -37.387  22.591   3.207  0.00  0.00    +0.210 C 
ATOM     27  C   UNL     1     -39.364  24.604   2.606  0.00  0.00    +0.177 C 
ATOM     28  C   UNL     1     -37.213  24.088   3.467  0.00  0.00    +0.318 C 
BRANCH  24  29
ATOM     29  O   UNL     1     -38.745  20.948   2.073  0.00  0.00    -0.379 OA
ATOM     30  H   UNL     1     -37.957  20.423   1.856  0.00  0.00    +0.211 HD
ENDBRANCH  24  29
BRANCH  25  31
ATOM     31  O   UNL     1     -40.504  23.051   1.155  0.00  0.00    -0.379 OA
ATOM     32  H   UNL     1     -40.370  22.191   0.728  0.00  0.00    +0.211 HD
ENDBRANCH  25  31
BRANCH  26  33
ATOM     33  O   UNL     1     -36.120  22.054   2.826  0.00  0.00    -0.377 OA
ATOM     34  H   UNL     1     -35.838  22.454   1.988  0.00  0.00    +0.211 HD
ENDBRANCH  26  33
BRANCH  27  35
ATOM     35  C   UNL     1     -40.619  25.399   2.950  0.00  0.00    +0.169 C 
BRANCH  35  36
ATOM     36  O   UNL     1     -40.235  26.571   3.646  0.00  0.00    -0.379 OA
ATOM     37  H   UNL     1     -40.243  27.326   3.038  0.00  0.00    +0.211 HD
ENDBRANCH  35  36
ENDBRANCH  27  35
ENDBRANCH  22  28
ENDBRANCH   3  22
TORSDOF 10
ENDMDL
MODEL 3
REMARK VINA RESULT:      -6.6      3.408      5.516
REMARK  Name = 189922
REMARK  10 active torsions:
REMARK  status: ('A' for Active; 'I' for Inactive)
REMARK    1  A    between atoms: C_3  and  O_22
REMARK    2  A    between atoms: C_8  and  O_20
REMARK    3  A    between atoms: C_10  and  C_12
REMARK    4  A    between atoms: C_17  and  O_18
REMARK    5  A    between atoms: O_22  and  C_28
REMARK    6  A    between atoms: C_24  and  O_29
REMARK    7  A    between atoms: C_25  and  O_31
REMARK    8  A    between atoms: C_26  and  O_33
REMARK    9  A    between atoms: C_27  and  C_35
REMARK   10  A    between atoms: C_35  and  O_36
REMARK                            x       y       z     vdW  Elec       q    Type
REMARK                         _______ _______ _______ _____ _____    ______ ____
ROOT
ATOM      1  O   UNL     1     -33.662  18.779   1.635  0.00  0.00    -0.450 OA
ATOM      2  O   UNL     1     -30.546  20.204  -0.579  0.00  0.00    -0.286 OA
ATOM      3  C   UNL     1     -34.959  22.097   0.867  0.00  0.00    +0.147 C 
ATOM      4  C   UNL     1     -34.853  20.803   1.375  0.00  0.00    +0.075 C 
ATOM      5  C   UNL     1     -33.928  22.633   0.094  0.00  0.00    +0.074 C 
ATOM      6  C   UNL     1     -33.713  20.045   1.108  0.00  0.00    +0.154 C 
ATOM      7  C   UNL     1     -32.682  20.580   0.335  0.00  0.00    +0.108 C 
ATOM      8  C   UNL     1     -32.786  21.877  -0.175  0.00  0.00    +0.148 C 
ATOM      9  C   UNL     1     -31.485  19.761   0.070  0.00  0.00    +0.204 C 
ATOM     10  C   UNL     1     -31.481  18.387   0.643  0.00  0.00    +0.077 C 
ATOM     11  C   UNL     1     -32.551  18.019   1.363  0.00  0.00    +0.183 C 
ENDROOT
BRANCH  10  12
ATOM     12  C   UNL     1     -30.365  17.454   0.420  0.00  0.00    +0.006 C 
ATOM     13  C   UNL     1     -30.464  16.467  -0.564  0.00  0.00    +0.003 C 
ATOM     14  C   UNL     1     -29.205  17.552   1.190  0.00  0.00    +0.003 C 
ATOM     15  C   UNL     1     -29.406  15.582  -0.775  0.00  0.00    +0.037 C 
ATOM     16  C   UNL     1     -28.147  16.667   0.979  0.00  0.00    +0.037 C 
ATOM     17  C   UNL     1     -28.248  15.682  -0.004  0.00  0.00    +0.134 C 
BRANCH  17  18
ATOM     18  O   UNL     1     -27.216  14.820  -0.211  0.00  0.00    -0.506 OA
ATOM     19  H   UNL     1     -26.387  15.143  -0.507  0.00  0.00    +0.292 HD
ENDBRANCH  17  18
ENDBRANCH  10  12
BRANCH   8  20
ATOM     20  O   UNL     1     -31.810  22.448  -0.933  0.00  0.00    -0.471 OA
ATOM     21  C   UNL     1     -32.183  22.908  -2.230  0.00  0.00    +0.252 C 
ENDBRANCH   8  20
BRANCH   3  22
ATOM     22  O   UNL     1     -36.074  22.840   1.125  0.00  0.00    -0.450 OA
BRANCH  22  28
ATOM     23  O   UNL     1     -35.801  23.315   3.393  0.00  0.00    -0.316 OA
ATOM     24  C   UNL     1     -37.193  25.813   3.124  0.00  0.00    +0.173 C 
ATOM     25  C   UNL     1     -36.885  25.188   4.485  0.00  0.00    +0.169 C 
ATOM     26  C   UNL     1     -37.187  24.758   2.017  0.00  0.00    +0.210 C 
ATOM     27  C   UNL     1     -35.636  24.307   4.408  0.00  0.00    +0.177 C 
ATOM     28  C   UNL     1     -35.937  23.881   2.092  0.00  0.00    +0.318 C 
BRANCH  24  29
ATOM     29  O   UNL     1     -38.485  26.417   3.198  0.00  0.00    -0.379 OA
ATOM     30  H   UNL     1     -38.949  26.092   3.986  0.00  0.00    +0.211 HD
ENDBRANCH  24  29
BRANCH  25  31
ATOM     31  O   UNL     1     -36.672  26.224   5.442  0.00  0.00    -0.379 OA
ATOM     32  H   UNL     1     -36.710  27.085   4.998  0.00  0.00    +0.211 HD
ENDBRANCH  25  31
BRANCH  26  33
ATOM     33  O   UNL     1     -37.204  25.406   0.746  0.00  0.00    -0.377 OA
ATOM     34  H   UNL     1     -37.011  24.758   0.050  0.00  0.00    +0.211 HD
ENDBRANCH  26  33
BRANCH  27  35
ATOM     35  C   UNL     1     -35.374  23.581   5.723  0.00  0.00    +0.169 C 
BRANCH  35  36
ATOM     36  O   UNL     1     -36.190  22.425   5.770  0.00  0.00    -0.379 OA
ATOM     37  H   UNL     1     -36.636  22.379   6.631  0.00  0.00    +0.211 HD
ENDBRANCH  35  36
ENDBRANCH  27  35
ENDBRANCH  22  28
ENDBRANCH   3  22
TORSDOF 10
ENDMDL
MODEL 4
REMARK VINA RESULT:      -6.5      3.827      6.984
REMARK  Name = 189922
REMARK  10 active torsions:
REMARK  status: ('A' for Active; 'I' for Inactive)
REMARK    1  A    between atoms: C_3  and  O_22
REMARK    2  A    between atoms: C_8  and  O_20
REMARK    3  A    between atoms: C_10  and  C_12
REMARK    4  A    between atoms: C_17  and  O_18
REMARK    5  A    between atoms: O_22  and  C_28
REMARK    6  A    between atoms: C_24  and  O_29
REMARK    7  A    between atoms: C_25  and  O_31
REMARK    8  A    between atoms: C_26  and  O_33
REMARK    9  A    between atoms: C_27  and  C_35
REMARK   10  A    between atoms: C_35  and  O_36
REMARK                            x       y       z     vdW  Elec       q    Type
REMARK                         _______ _______ _______ _____ _____    ______ ____
ROOT
ATOM      1  O   UNL     1     -36.990  26.902   1.548  0.00  0.00    -0.450 OA
ATOM      2  O   UNL     1     -34.105  26.738   4.428  0.00  0.00    -0.286 OA
ATOM      3  C   UNL     1     -35.661  30.282   1.238  0.00  0.00    +0.147 C 
ATOM      4  C   UNL     1     -36.435  29.140   1.032  0.00  0.00    +0.075 C 
ATOM      5  C   UNL     1     -34.653  30.279   2.202  0.00  0.00    +0.074 C 
ATOM      6  C   UNL     1     -36.197  27.995   1.793  0.00  0.00    +0.154 C 
ATOM      7  C   UNL     1     -35.190  27.993   2.757  0.00  0.00    +0.108 C 
ATOM      8  C   UNL     1     -34.413  29.136   2.965  0.00  0.00    +0.148 C 
ATOM      9  C   UNL     1     -34.960  26.772   3.552  0.00  0.00    +0.204 C 
ATOM     10  C   UNL     1     -35.828  25.604   3.240  0.00  0.00    +0.077 C 
ATOM     11  C   UNL     1     -36.752  25.765   2.281  0.00  0.00    +0.183 C 
ENDROOT
BRANCH  10  12
ATOM     12  C   UNL     1     -35.678  24.314   3.931  0.00  0.00    +0.006 C 
ATOM     13  C   UNL     1     -35.601  23.129   3.195  0.00  0.00    +0.003 C 
ATOM     14  C   UNL     1     -35.610  24.270   5.325  0.00  0.00    +0.003 C 
ATOM     15  C   UNL     1     -35.458  21.906   3.851  0.00  0.00    +0.037 C 
ATOM     16  C   UNL     1     -35.466  23.047   5.981  0.00  0.00    +0.037 C 
ATOM     17  C   UNL     1     -35.390  21.865   5.243  0.00  0.00    +0.134 C 
BRANCH  17  18
ATOM     18  O   UNL     1     -35.249  20.672   5.883  0.00  0.00    -0.506 OA
ATOM     19  H   UNL     1     -35.524  19.880   5.464  0.00  0.00    +0.292 HD
ENDBRANCH  17  18
ENDBRANCH  10  12
BRANCH   8  20
ATOM     20  O   UNL     1     -33.418  29.188   3.894  0.00  0.00    -0.471 OA
ATOM     21  C   UNL     1     -32.120  29.554   3.432  0.00  0.00    +0.252 C 
ENDBRANCH   8  20
BRANCH   3  22
ATOM     22  O   UNL     1     -35.889  31.402   0.494  0.00  0.00    -0.450 OA
BRANCH  22  28
ATOM     23  O   UNL     1     -37.801  32.678   0.894  0.00  0.00    -0.316 OA
ATOM     24  C   UNL     1     -36.234  35.049   1.313  0.00  0.00    +0.173 C 
ATOM     25  C   UNL     1     -37.750  35.091   1.117  0.00  0.00    +0.169 C 
ATOM     26  C   UNL     1     -35.638  33.767   0.730  0.00  0.00    +0.210 C 
ATOM     27  C   UNL     1     -38.395  33.782   1.579  0.00  0.00    +0.177 C 
ATOM     28  C   UNL     1     -36.414  32.533   1.188  0.00  0.00    +0.318 C 
BRANCH  24  29
ATOM     29  O   UNL     1     -35.671  36.181   0.650  0.00  0.00    -0.379 OA
ATOM     30  H   UNL     1     -36.367  36.837   0.483  0.00  0.00    +0.211 HD
ENDBRANCH  24  29
BRANCH  25  31
ATOM     31  O   UNL     1     -38.293  36.174   1.869  0.00  0.00    -0.379 OA
ATOM     32  H   UNL     1     -37.727  36.955   1.764  0.00  0.00    +0.211 HD
ENDBRANCH  25  31
BRANCH  26  33
ATOM     33  O   UNL     1     -34.286  33.633   1.168  0.00  0.00    -0.377 OA
ATOM     34  H   UNL     1     -33.896  34.513   1.288  0.00  0.00    +0.211 HD
ENDBRANCH  26  33
BRANCH  27  35
ATOM     35  C   UNL     1     -39.891  33.755   1.286  0.00  0.00    +0.169 C 
BRANCH  35  36
ATOM     36  O   UNL     1     -40.570  34.411   2.341  0.00  0.00    -0.379 OA
ATOM     37  H   UNL     1     -40.465  35.371   2.245  0.00  0.00    +0.211 HD
ENDBRANCH  35  36
ENDBRANCH  27  35
ENDBRANCH  22  28
ENDBRANCH   3  22
TORSDOF 10
ENDMDL
MODEL 5
REMARK VINA RESULT:      -6.5      4.111      5.852
REMARK  Name = 189922
REMARK  10 active torsions:
REMARK  status: ('A' for Active; 'I' for Inactive)
REMARK    1  A    between atoms: C_3  and  O_22
REMARK    2  A    between atoms: C_8  and  O_20
REMARK    3  A    between atoms: C_10  and  C_12
REMARK    4  A    between atoms: C_17  and  O_18
REMARK    5  A    between atoms: O_22  and  C_28
REMARK    6  A    between atoms: C_24  and  O_29
REMARK    7  A    between atoms: C_25  and  O_31
REMARK    8  A    between atoms: C_26  and  O_33
REMARK    9  A    between atoms: C_27  and  C_35
REMARK   10  A    between atoms: C_35  and  O_36
REMARK                            x       y       z     vdW  Elec       q    Type
REMARK                         _______ _______ _______ _____ _____    ______ ____
ROOT
ATOM      1  O   UNL     1     -36.778  26.966   2.226  0.00  0.00    -0.450 OA
ATOM      2  O   UNL     1     -38.426  23.427   3.411  0.00  0.00    -0.286 OA
ATOM      3  C   UNL     1     -34.151  25.823   4.480  0.00  0.00    +0.147 C 
ATOM      4  C   UNL     1     -34.875  26.603   3.578  0.00  0.00    +0.075 C 
ATOM      5  C   UNL     1     -34.662  24.597   4.911  0.00  0.00    +0.074 C 
ATOM      6  C   UNL     1     -36.110  26.156   3.110  0.00  0.00    +0.154 C 
ATOM      7  C   UNL     1     -36.620  24.931   3.541  0.00  0.00    +0.108 C 
ATOM      8  C   UNL     1     -35.897  24.147   4.444  0.00  0.00    +0.148 C 
ATOM      9  C   UNL     1     -37.930  24.481   3.035  0.00  0.00    +0.204 C 
ATOM     10  C   UNL     1     -38.610  25.380   2.063  0.00  0.00    +0.077 C 
ATOM     11  C   UNL     1     -37.987  26.525   1.746  0.00  0.00    +0.183 C 
ENDROOT
BRANCH  10  12
ATOM     12  C   UNL     1     -39.903  25.032   1.451  0.00  0.00    +0.006 C 
ATOM     13  C   UNL     1     -41.084  25.585   1.950  0.00  0.00    +0.003 C 
ATOM     14  C   UNL     1     -39.951  24.150   0.370  0.00  0.00    +0.003 C 
ATOM     15  C   UNL     1     -42.310  25.255   1.370  0.00  0.00    +0.037 C 
ATOM     16  C   UNL     1     -41.177  23.821  -0.210  0.00  0.00    +0.037 C 
ATOM     17  C   UNL     1     -42.356  24.373   0.290  0.00  0.00    +0.134 C 
BRANCH  17  18
ATOM     18  O   UNL     1     -43.551  24.053  -0.276  0.00  0.00    -0.506 OA
ATOM     19  H   UNL     1     -43.635  23.267  -0.779  0.00  0.00    +0.292 HD
ENDBRANCH  17  18
ENDBRANCH  10  12
BRANCH   8  20
ATOM     20  O   UNL     1     -36.349  22.946   4.899  0.00  0.00    -0.471 OA
ATOM     21  C   UNL     1     -35.574  22.302   5.908  0.00  0.00    +0.252 C 
ENDBRANCH   8  20
BRANCH   3  22
ATOM     22  O   UNL     1     -32.942  26.257   4.938  0.00  0.00    -0.450 OA
BRANCH  22  28
ATOM     23  O   UNL     1     -32.162  28.239   3.987  0.00  0.00    -0.316 OA
ATOM     24  C   UNL     1     -31.626  29.368   6.574  0.00  0.00    +0.173 C 
ATOM     25  C   UNL     1     -31.093  29.988   5.281  0.00  0.00    +0.169 C 
ATOM     26  C   UNL     1     -31.955  27.887   6.381  0.00  0.00    +0.210 C 
ATOM     27  C   UNL     1     -32.009  29.655   4.101  0.00  0.00    +0.177 C 
ATOM     28  C   UNL     1     -32.799  27.664   5.125  0.00  0.00    +0.318 C 
BRANCH  24  29
ATOM     29  O   UNL     1     -30.618  29.504   7.577  0.00  0.00    -0.379 OA
ATOM     30  H   UNL     1     -29.868  28.926   7.362  0.00  0.00    +0.211 HD
ENDBRANCH  24  29
BRANCH  25  31
ATOM     31  O   UNL     1     -31.018  31.404   5.434  0.00  0.00    -0.379 OA
ATOM     32  H   UNL     1     -31.111  31.632   6.372  0.00  0.00    +0.211 HD
ENDBRANCH  25  31
BRANCH  26  33
ATOM     33  O   UNL     1     -32.696  27.417   7.506  0.00  0.00    -0.377 OA
ATOM     34  H   UNL     1     -33.625  27.294   7.254  0.00  0.00    +0.211 HD
ENDBRANCH  26  33
BRANCH  27  35
ATOM     35  C   UNL     1     -31.439  30.164   2.782  0.00  0.00    +0.169 C 
BRANCH  35  36
ATOM     36  O   UNL     1     -31.837  31.511   2.607  0.00  0.00    -0.379 OA
ATOM     37  H   UNL     1     -31.215  32.095   3.071  0.00  0.00    +0.211 HD
ENDBRANCH  35  36
ENDBRANCH  27  35
ENDBRANCH  22  28
ENDBRANCH   3  22
TORSDOF 10
ENDMDL
MODEL 6
REMARK VINA RESULT:      -6.4      3.749      5.521
REMARK  Name = 189922
REMARK  10 active torsions:
REMARK  status: ('A' for Active; 'I' for Inactive)
REMARK    1  A    between atoms: C_3  and  O_22
REMARK    2  A    between atoms: C_8  and  O_20
REMARK    3  A    between atoms: C_10  and  C_12
REMARK    4  A    between atoms: C_17  and  O_18
REMARK    5  A    between atoms: O_22  and  C_28
REMARK    6  A    between atoms: C_24  and  O_29
REMARK    7  A    between atoms: C_25  and  O_31
REMARK    8  A    between atoms: C_26  and  O_33
REMARK    9  A    between atoms: C_27  and  C_35
REMARK   10  A    between atoms: C_35  and  O_36
REMARK                            x       y       z     vdW  Elec       q    Type
REMARK                         _______ _______ _______ _____ _____    ______ ____
ROOT
ATOM      1  O   UNL     1     -35.789  22.460   0.093  0.00  0.00    -0.450 OA
ATOM      2  O   UNL     1     -34.908  20.274   3.423  0.00  0.00    -0.286 OA
ATOM      3  C   UNL     1     -37.185  24.673   2.631  0.00  0.00    +0.147 C 
ATOM      4  C   UNL     1     -36.804  24.150   1.395  0.00  0.00    +0.075 C 
ATOM      5  C   UNL     1     -36.900  23.973   3.804  0.00  0.00    +0.074 C 
ATOM      6  C   UNL     1     -36.138  22.926   1.335  0.00  0.00    +0.154 C 
ATOM      7  C   UNL     1     -35.853  22.227   2.508  0.00  0.00    +0.108 C 
ATOM      8  C   UNL     1     -36.233  22.748   3.748  0.00  0.00    +0.148 C 
ATOM      9  C   UNL     1     -35.151  20.933   2.420  0.00  0.00    +0.204 C 
ATOM     10  C   UNL     1     -34.773  20.475   1.055  0.00  0.00    +0.077 C 
ATOM     11  C   UNL     1     -35.117  21.264   0.026  0.00  0.00    +0.183 C 
ENDROOT
BRANCH  10  12
ATOM     12  C   UNL     1     -34.036  19.222   0.829  0.00  0.00    +0.006 C 
ATOM     13  C   UNL     1     -34.682  18.121   0.263  0.00  0.00    +0.003 C 
ATOM     14  C   UNL     1     -32.687  19.130   1.179  0.00  0.00    +0.003 C 
ATOM     15  C   UNL     1     -33.983  16.933   0.049  0.00  0.00    +0.037 C 
ATOM     16  C   UNL     1     -31.988  17.942   0.965  0.00  0.00    +0.037 C 
ATOM     17  C   UNL     1     -32.636  16.844   0.400  0.00  0.00    +0.134 C 
BRANCH  17  18
ATOM     18  O   UNL     1     -31.953  15.686   0.190  0.00  0.00    -0.506 OA
ATOM     19  H   UNL     1     -32.105  14.945   0.744  0.00  0.00    +0.292 HD
ENDBRANCH  17  18
ENDBRANCH  10  12
BRANCH   8  20
ATOM     20  O   UNL     1     -35.982  22.107   4.922  0.00  0.00    -0.471 OA
ATOM     21  C   UNL     1     -35.439  22.890   5.984  0.00  0.00    +0.252 C 
ENDBRANCH   8  20
BRANCH   3  22
ATOM     22  O   UNL     1     -37.835  25.870   2.692  0.00  0.00    -0.450 OA
BRANCH  22  28
ATOM     23  O   UNL     1     -39.223  27.026   1.215  0.00  0.00    -0.316 OA
ATOM     24  C   UNL     1     -41.566  26.278   2.698  0.00  0.00    +0.173 C 
ATOM     25  C   UNL     1     -41.588  27.367   1.624  0.00  0.00    +0.169 C 
ATOM     26  C   UNL     1     -40.153  26.067   3.243  0.00  0.00    +0.210 C 
ATOM     27  C   UNL     1     -40.498  27.119   0.578  0.00  0.00    +0.177 C 
ATOM     28  C   UNL     1     -39.137  25.920   2.109  0.00  0.00    +0.318 C 
BRANCH  24  29
ATOM     29  O   UNL     1     -42.428  26.689   3.761  0.00  0.00    -0.379 OA
ATOM     30  H   UNL     1     -42.479  25.984   4.426  0.00  0.00    +0.211 HD
ENDBRANCH  24  29
BRANCH  25  31
ATOM     31  O   UNL     1     -42.862  27.373   0.985  0.00  0.00    -0.379 OA
ATOM     32  H   UNL     1     -42.965  28.194   0.480  0.00  0.00    +0.211 HD
ENDBRANCH  25  31
BRANCH  26  33
ATOM     33  O   UNL     1     -40.122  24.876   4.028  0.00  0.00    -0.377 OA
ATOM     34  H   UNL     1     -39.834  25.090   4.930  0.00  0.00    +0.211 HD
ENDBRANCH  26  33
BRANCH  27  35
ATOM     35  C   UNL     1     -40.423  28.253  -0.439  0.00  0.00    +0.169 C 
BRANCH  35  36
ATOM     36  O   UNL     1     -40.810  29.457   0.197  0.00  0.00    -0.379 OA
ATOM     37  H   UNL     1     -40.138  29.708   0.851  0.00  0.00    +0.211 HD
ENDBRANCH  35  36
ENDBRANCH  27  35
ENDBRANCH  22  28
ENDBRANCH   3  22
TORSDOF 10
ENDMDL
MODEL 7
REMARK VINA RESULT:      -6.3      4.299      5.642
REMARK  Name = 189922
REMARK  10 active torsions:
REMARK  status: ('A' for Active; 'I' for Inactive)
REMARK    1  A    between atoms: C_3  and  O_22
REMARK    2  A    between atoms: C_8  and  O_20
REMARK    3  A    between atoms: C_10  and  C_12
REMARK    4  A    between atoms: C_17  and  O_18
REMARK    5  A    between atoms: O_22  and  C_28
REMARK    6  A    between atoms: C_24  and  O_29
REMARK    7  A    between atoms: C_25  and  O_31
REMARK    8  A    between atoms: C_26  and  O_33
REMARK    9  A    between atoms: C_27  and  C_35
REMARK   10  A    between atoms: C_35  and  O_36
REMARK                            x       y       z     vdW  Elec       q    Type
REMARK                         _______ _______ _______ _____ _____    ______ ____
ROOT
ATOM      1  O   UNL     1     -36.174  27.272   2.254  0.00  0.00    -0.450 OA
ATOM      2  O   UNL     1     -37.886  24.007   4.002  0.00  0.00    -0.286 OA
ATOM      3  C   UNL     1     -33.715  26.654   4.871  0.00  0.00    +0.147 C 
ATOM      4  C   UNL     1     -34.374  27.224   3.783  0.00  0.00    +0.075 C 
ATOM      5  C   UNL     1     -34.249  25.529   5.502  0.00  0.00    +0.074 C 
ATOM      6  C   UNL     1     -35.569  26.668   3.327  0.00  0.00    +0.154 C 
ATOM      7  C   UNL     1     -36.103  25.544   3.957  0.00  0.00    +0.108 C 
ATOM      8  C   UNL     1     -35.444  24.970   5.047  0.00  0.00    +0.148 C 
ATOM      9  C   UNL     1     -37.369  24.975   3.459  0.00  0.00    +0.204 C 
ATOM     10  C   UNL     1     -37.981  25.649   2.281  0.00  0.00    +0.077 C 
ATOM     11  C   UNL     1     -37.342  26.721   1.787  0.00  0.00    +0.183 C 
ENDROOT
BRANCH  10  12
ATOM     12  C   UNL     1     -39.223  25.161   1.661  0.00  0.00    +0.006 C 
ATOM     13  C   UNL     1     -39.174  24.150   0.699  0.00  0.00    +0.003 C 
ATOM     14  C   UNL     1     -40.453  25.704   2.034  0.00  0.00    +0.003 C 
ATOM     15  C   UNL     1     -40.351  23.686   0.111  0.00  0.00    +0.037 C 
ATOM     16  C   UNL     1     -41.631  25.240   1.447  0.00  0.00    +0.037 C 
ATOM     17  C   UNL     1     -41.579  24.231   0.486  0.00  0.00    +0.134 C 
BRANCH  17  18
ATOM     18  O   UNL     1     -42.728  23.778  -0.086  0.00  0.00    -0.506 OA
ATOM     19  H   UNL     1     -42.698  23.336  -0.912  0.00  0.00    +0.292 HD
ENDBRANCH  17  18
ENDBRANCH  10  12
BRANCH   8  20
ATOM     20  O   UNL     1     -35.921  23.874   5.700  0.00  0.00    -0.471 OA
ATOM     21  C   UNL     1     -35.093  22.713   5.707  0.00  0.00    +0.252 C 
ENDBRANCH   8  20
BRANCH   3  22
ATOM     22  O   UNL     1     -32.545  27.194   5.319  0.00  0.00    -0.450 OA
BRANCH  22  28
ATOM     23  O   UNL     1     -30.730  27.352   3.862  0.00  0.00    -0.316 OA
ATOM     24  C   UNL     1     -30.497  30.178   4.321  0.00  0.00    +0.173 C 
ATOM     25  C   UNL     1     -29.405  29.368   3.623  0.00  0.00    +0.169 C 
ATOM     26  C   UNL     1     -31.384  29.280   5.185  0.00  0.00    +0.210 C 
ATOM     27  C   UNL     1     -29.999  28.144   2.923  0.00  0.00    +0.177 C 
ATOM     28  C   UNL     1     -31.847  28.045   4.410  0.00  0.00    +0.318 C 
BRANCH  24  29
ATOM     29  O   UNL     1     -29.863  31.155   5.148  0.00  0.00    -0.379 OA
ATOM     30  H   UNL     1     -29.207  31.643   4.625  0.00  0.00    +0.211 HD
ENDBRANCH  24  29
BRANCH  25  31
ATOM     31  O   UNL     1     -28.752  30.191   2.659  0.00  0.00    -0.379 OA
ATOM     32  H   UNL     1     -28.914  31.124   2.868  0.00  0.00    +0.211 HD
ENDBRANCH  25  31
BRANCH  26  33
ATOM     33  O   UNL     1     -32.540  30.010   5.594  0.00  0.00    -0.377 OA
ATOM     34  H   UNL     1     -32.339  30.509   6.402  0.00  0.00    +0.211 HD
ENDBRANCH  26  33
BRANCH  27  35
ATOM     35  C   UNL     1     -28.917  27.257   2.318  0.00  0.00    +0.169 C 
BRANCH  35  36
ATOM     36  O   UNL     1     -28.994  25.976   2.917  0.00  0.00    -0.379 OA
ATOM     37  H   UNL     1     -28.229  25.845   3.499  0.00  0.00    +0.211 HD
ENDBRANCH  35  36
ENDBRANCH  27  35
ENDBRANCH  22  28
ENDBRANCH   3  22
TORSDOF 10
ENDMDL
MODEL 8
REMARK VINA RESULT:      -6.3      3.107      8.811
REMARK  Name = 189922
REMARK  10 active torsions:
REMARK  status: ('A' for Active; 'I' for Inactive)
REMARK    1  A    between atoms: C_3  and  O_22
REMARK    2  A    between atoms: C_8  and  O_20
REMARK    3  A    between atoms: C_10  and  C_12
REMARK    4  A    between atoms: C_17  and  O_18
REMARK    5  A    between atoms: O_22  and  C_28
REMARK    6  A    between atoms: C_24  and  O_29
REMARK    7  A    between atoms: C_25  and  O_31
REMARK    8  A    between atoms: C_26  and  O_33
REMARK    9  A    between atoms: C_27  and  C_35
REMARK   10  A    between atoms: C_35  and  O_36
REMARK                            x       y       z     vdW  Elec       q    Type
REMARK                         _______ _______ _______ _____ _____    ______ ____
ROOT
ATOM      1  O   UNL     1     -35.090  27.857   2.386  0.00  0.00    -0.450 OA
ATOM      2  O   UNL     1     -33.460  26.022   5.645  0.00  0.00    -0.286 OA
ATOM      3  C   UNL     1     -37.727  25.438   3.075  0.00  0.00    +0.147 C 
ATOM      4  C   UNL     1     -36.998  26.468   2.480  0.00  0.00    +0.075 C 
ATOM      5  C   UNL     1     -37.223  24.782   4.199  0.00  0.00    +0.074 C 
ATOM      6  C   UNL     1     -35.763  26.840   3.013  0.00  0.00    +0.154 C 
ATOM      7  C   UNL     1     -35.260  26.184   4.136  0.00  0.00    +0.108 C 
ATOM      8  C   UNL     1     -35.988  25.152   4.733  0.00  0.00    +0.148 C 
ATOM      9  C   UNL     1     -33.950  26.592   4.679  0.00  0.00    +0.204 C 
ATOM     10  C   UNL     1     -33.264  27.713   3.980  0.00  0.00    +0.077 C 
ATOM     11  C   UNL     1     -33.881  28.242   2.913  0.00  0.00    +0.183 C 
ENDROOT
BRANCH  10  12
ATOM     12  C   UNL     1     -31.971  28.244   4.442  0.00  0.00    +0.006 C 
ATOM     13  C   UNL     1     -31.889  28.926   5.658  0.00  0.00    +0.003 C 
ATOM     14  C   UNL     1     -30.824  28.066   3.668  0.00  0.00    +0.003 C 
ATOM     15  C   UNL     1     -30.663  29.429   6.097  0.00  0.00    +0.037 C 
ATOM     16  C   UNL     1     -29.598  28.568   4.106  0.00  0.00    +0.037 C 
ATOM     17  C   UNL     1     -29.518  29.250   5.320  0.00  0.00    +0.134 C 
BRANCH  17  18
ATOM     18  O   UNL     1     -28.323  29.739   5.748  0.00  0.00    -0.506 OA
ATOM     19  H   UNL     1     -27.575  29.176   5.792  0.00  0.00    +0.292 HD
ENDBRANCH  17  18
ENDBRANCH  10  12
BRANCH   8  20
ATOM     20  O   UNL     1     -35.543  24.478   5.829  0.00  0.00    -0.471 OA
ATOM     21  C   UNL     1     -35.423  23.062   5.714  0.00  0.00    +0.252 C 
ENDBRANCH   8  20
BRANCH   3  22
ATOM     22  O   UNL     1     -38.936  25.074   2.557  0.00  0.00    -0.450 OA
BRANCH  22  28
ATOM     23  O   UNL     1     -37.871  23.035   2.163  0.00  0.00    -0.316 OA
ATOM     24  C   UNL     1     -40.099  22.072   0.628  0.00  0.00    +0.173 C 
ATOM     25  C   UNL     1     -38.740  21.372   0.629  0.00  0.00    +0.169 C 
ATOM     26  C   UNL     1     -39.966  23.538   1.043  0.00  0.00    +0.210 C 
ATOM     27  C   UNL     1     -37.997  21.630   1.942  0.00  0.00    +0.177 C 
ATOM     28  C   UNL     1     -39.132  23.681   2.317  0.00  0.00    +0.318 C 
BRANCH  24  29
ATOM     29  O   UNL     1     -40.632  22.000  -0.695  0.00  0.00    -0.379 OA
ATOM     30  H   UNL     1     -39.945  22.250  -1.334  0.00  0.00    +0.211 HD
ENDBRANCH  24  29
BRANCH  25  31
ATOM     31  O   UNL     1     -38.932  19.969   0.465  0.00  0.00    -0.379 OA
ATOM     32  H   UNL     1     -38.629  19.703  -0.417  0.00  0.00    +0.211 HD
ENDBRANCH  25  31
BRANCH  26  33
ATOM     33  O   UNL     1     -41.263  24.077   1.296  0.00  0.00    -0.377 OA
ATOM     34  H   UNL     1     -41.746  23.490   1.900  0.00  0.00    +0.211 HD
ENDBRANCH  26  33
BRANCH  27  35
ATOM     35  C   UNL     1     -36.592  21.039   1.922  0.00  0.00    +0.169 C 
BRANCH  35  36
ATOM     36  O   UNL     1     -36.632  19.757   2.522  0.00  0.00    -0.379 OA
ATOM     37  H   UNL     1     -35.779  19.313   2.393  0.00  0.00    +0.211 HD
ENDBRANCH  35  36
ENDBRANCH  27  35
ENDBRANCH  22  28
ENDBRANCH   3  22
TORSDOF 10
ENDMDL
MODEL 9
REMARK VINA RESULT:      -6.2      4.792      6.131
REMARK  Name = 189922
REMARK  10 active torsions:
REMARK  status: ('A' for Active; 'I' for Inactive)
REMARK    1  A    between atoms: C_3  and  O_22
REMARK    2  A    between atoms: C_8  and  O_20
REMARK    3  A    between atoms: C_10  and  C_12
REMARK    4  A    between atoms: C_17  and  O_18
REMARK    5  A    between atoms: O_22  and  C_28
REMARK    6  A    between atoms: C_24  and  O_29
REMARK    7  A    between atoms: C_25  and  O_31
REMARK    8  A    between atoms: C_26  and  O_33
REMARK    9  A    between atoms: C_27  and  C_35
REMARK   10  A    between atoms: C_35  and  O_36
REMARK                            x       y       z     vdW  Elec       q    Type
REMARK                         _______ _______ _______ _____ _____    ______ ____
ROOT
ATOM      1  O   UNL     1     -37.405  21.352  -0.370  0.00  0.00    -0.450 OA
ATOM      2  O   UNL     1     -35.078  21.771   2.955  0.00  0.00    -0.286 OA
ATOM      3  C   UNL     1     -39.601  23.476   1.617  0.00  0.00    +0.147 C 
ATOM      4  C   UNL     1     -39.102  22.698   0.572  0.00  0.00    +0.075 C 
ATOM      5  C   UNL     1     -38.844  23.662   2.774  0.00  0.00    +0.074 C 
ATOM      6  C   UNL     1     -37.843  22.107   0.688  0.00  0.00    +0.154 C 
ATOM      7  C   UNL     1     -37.087  22.294   1.844  0.00  0.00    +0.108 C 
ATOM      8  C   UNL     1     -37.585  23.072   2.892  0.00  0.00    +0.148 C 
ATOM      9  C   UNL     1     -35.761  21.656   1.946  0.00  0.00    +0.204 C 
ATOM     10  C   UNL     1     -35.315  20.863   0.767  0.00  0.00    +0.077 C 
ATOM     11  C   UNL     1     -36.159  20.781  -0.273  0.00  0.00    +0.183 C 
ENDROOT
BRANCH  10  12
ATOM     12  C   UNL     1     -33.999  20.208   0.721  0.00  0.00    +0.006 C 
ATOM     13  C   UNL     1     -32.957  20.779  -0.014  0.00  0.00    +0.003 C 
ATOM     14  C   UNL     1     -33.785  19.014   1.413  0.00  0.00    +0.003 C 
ATOM     15  C   UNL     1     -31.708  20.158  -0.056  0.00  0.00    +0.037 C 
ATOM     16  C   UNL     1     -32.537  18.393   1.371  0.00  0.00    +0.037 C 
ATOM     17  C   UNL     1     -31.498  18.966   0.636  0.00  0.00    +0.134 C 
BRANCH  17  18
ATOM     18  O   UNL     1     -30.280  18.361   0.595  0.00  0.00    -0.506 OA
ATOM     19  H   UNL     1     -30.151  17.537   1.023  0.00  0.00    +0.292 HD
ENDBRANCH  17  18
ENDBRANCH  10  12
BRANCH   8  20
ATOM     20  O   UNL     1     -36.889  23.285   4.044  0.00  0.00    -0.471 OA
ATOM     21  C   UNL     1     -36.629  24.641   4.402  0.00  0.00    +0.252 C 
ENDBRANCH   8  20
BRANCH   3  22
ATOM     22  O   UNL     1     -40.830  24.056   1.506  0.00  0.00    -0.450 OA
BRANCH  22  28
ATOM     23  O   UNL     1     -41.630  25.873   2.732  0.00  0.00    -0.316 OA
ATOM     24  C   UNL     1     -41.746  27.518   0.381  0.00  0.00    +0.173 C 
ATOM     25  C   UNL     1     -42.418  27.917   1.695  0.00  0.00    +0.169 C 
ATOM     26  C   UNL     1     -41.523  26.007   0.311  0.00  0.00    +0.210 C 
ATOM     27  C   UNL     1     -41.691  27.292   2.889  0.00  0.00    +0.177 C 
ATOM     28  C   UNL     1     -40.873  25.480   1.590  0.00  0.00    +0.318 C 
BRANCH  24  29
ATOM     29  O   UNL     1     -42.597  27.924  -0.691  0.00  0.00    -0.379 OA
ATOM     30  H   UNL     1     -43.344  27.308  -0.761  0.00  0.00    +0.211 HD
ENDBRANCH  24  29
BRANCH  25  31
ATOM     31  O   UNL     1     -42.397  29.337   1.823  0.00  0.00    -0.379 OA
ATOM     32  H   UNL     1     -42.053  29.577   2.698  0.00  0.00    +0.211 HD
ENDBRANCH  25  31
BRANCH  26  33
ATOM     33  O   UNL     1     -40.660  25.707  -0.785  0.00  0.00    -0.377 OA
ATOM     34  H   UNL     1     -39.765  25.531  -0.453  0.00  0.00    +0.211 HD
ENDBRANCH  26  33
BRANCH  27  35
ATOM     35  C   UNL     1     -42.411  27.579   4.202  0.00  0.00    +0.169 C 
BRANCH  35  36
ATOM     36  O   UNL     1     -42.018  28.860   4.661  0.00  0.00    -0.379 OA
ATOM     37  H   UNL     1     -42.121  29.506   3.945  0.00  0.00    +0.211 HD
ENDBRANCH  35  36
ENDBRANCH  27  35
ENDBRANCH  22  28
ENDBRANCH   3  22
TORSDOF 10
ENDMDL
