MODEL 1
REMARK VINA RESULT:      -6.3      0.000      0.000
REMARK  Name = 196070
REMARK  9 active torsions:
REMARK  status: ('A' for Active; 'I' for Inactive)
REMARK    1  A    between atoms: C_2  and  O_7
REMARK    2  A    between atoms: C_3  and  O_9
REMARK    3  A    between atoms: C_4  and  O_11
REMARK    4  A    between atoms: C_5  and  C_14
REMARK    5  A    between atoms: C_6  and  O_17
REMARK    6  A    between atoms: C_14  and  O_15
REMARK    7  A    between atoms: O_17  and  C_18
REMARK    8  A    between atoms: C_19  and  S_29
REMARK    9  A    between atoms: C_23  and  N_25
REMARK                            x       y       z     vdW  Elec       q    Type
REMARK                         _______ _______ _______ _____ _____    ______ ____
ROOT
ATOM      1  O   UNL     1     -37.058  23.237   4.189  0.00  0.00    -0.307 OA
ATOM      2  C   UNL     1     -35.744  25.787   4.034  0.00  0.00    +0.173 C 
ATOM      3  C   UNL     1     -35.162  24.617   4.827  0.00  0.00    +0.178 C 
ATOM      4  C   UNL     1     -37.251  25.629   3.831  0.00  0.00    +0.210 C 
ATOM      5  C   UNL     1     -35.638  23.287   4.256  0.00  0.00    +0.246 C 
ATOM      6  C   UNL     1     -37.597  24.230   3.320  0.00  0.00    +0.318 C 
ENDROOT
BRANCH   2   7
ATOM      7  O   UNL     1     -35.486  26.988   4.762  0.00  0.00    -0.379 OA
ATOM      8  H   UNL     1     -35.512  26.800   5.714  0.00  0.00    +0.211 HD
ENDBRANCH   2   7
BRANCH   3   9
ATOM      9  O   UNL     1     -33.737  24.665   4.752  0.00  0.00    -0.379 OA
ATOM     10  H   UNL     1     -33.406  25.363   5.339  0.00  0.00    +0.211 HD
ENDBRANCH   3   9
BRANCH   4  11
ATOM     11  O   UNL     1     -37.702  26.581   2.867  0.00  0.00    -0.377 OA
ATOM     12  H   UNL     1     -37.094  27.336   2.850  0.00  0.00    +0.211 HD
ENDBRANCH   4  11
BRANCH   5  14
ATOM     13  O   UNL     1     -34.864  22.282   6.308  0.00  0.00    -0.247 OA
ATOM     14  C   UNL     1     -35.297  22.158   5.173  0.00  0.00    +0.344 C 
BRANCH  14  15
ATOM     15  O   UNL     1     -35.530  20.966   4.571  0.00  0.00    -0.478 OA
ATOM     16  H   UNL     1     -34.887  20.285   4.615  0.00  0.00    +0.295 HD
ENDBRANCH  14  15
ENDBRANCH   5  14
BRANCH   6  17
ATOM     17  O   UNL     1     -39.019  24.114   3.278  0.00  0.00    -0.450 OA
BRANCH  17  18
ATOM     18  C   UNL     1     -39.548  23.449   2.206  0.00  0.00    +0.147 C 
ATOM     19  C   UNL     1     -40.413  24.078   1.316  0.00  0.00    +0.061 C 
ATOM     20  C   UNL     1     -39.199  22.113   2.023  0.00  0.00    +0.039 C 
ATOM     21  C   UNL     1     -40.935  23.367   0.235  0.00  0.00    +0.024 C 
ATOM     22  C   UNL     1     -39.720  21.402   0.942  0.00  0.00    +0.018 C 
ATOM     23  C   UNL     1     -40.588  22.029   0.048  0.00  0.00    +0.051 C 
BRANCH  23  25
ATOM     24  O   UNL     1     -42.874  20.073  -0.084  0.00  0.00    -0.275 OA
ATOM     25  N   UNL     1     -41.109  21.317  -1.032  0.00  0.00    -0.284 N 
ATOM     26  C   UNL     1     -42.180  20.412  -1.037  0.00  0.00    +0.227 C 
ATOM     27  C   UNL     1     -42.432  19.852  -2.414  0.00  0.00    +0.095 C 
ATOM     28  H   UNL     1     -40.669  21.467  -1.900  0.00  0.00    +0.155 HD
ENDBRANCH  23  25
BRANCH  19  29
ATOM     29  S   UNL     1     -40.883  25.791   1.522  0.00  0.00    -0.110 S 
ATOM     30  C   UNL     1     -42.678  25.610   1.512  0.00  0.00    +0.074 C 
ENDBRANCH  19  29
ENDBRANCH  17  18
ENDBRANCH   6  17
TORSDOF 9
ENDMDL
MODEL 2
REMARK VINA RESULT:      -6.1      3.629      8.141
REMARK  Name = 196070
REMARK  9 active torsions:
REMARK  status: ('A' for Active; 'I' for Inactive)
REMARK    1  A    between atoms: C_2  and  O_7
REMARK    2  A    between atoms: C_3  and  O_9
REMARK    3  A    between atoms: C_4  and  O_11
REMARK    4  A    between atoms: C_5  and  C_14
REMARK    5  A    between atoms: C_6  and  O_17
REMARK    6  A    between atoms: C_14  and  O_15
REMARK    7  A    between atoms: O_17  and  C_18
REMARK    8  A    between atoms: C_19  and  S_29
REMARK    9  A    between atoms: C_23  and  N_25
REMARK                            x       y       z     vdW  Elec       q    Type
REMARK                         _______ _______ _______ _____ _____    ______ ____
ROOT
ATOM      1  O   UNL     1     -38.060  24.287   3.154  0.00  0.00    -0.307 OA
ATOM      2  C   UNL     1     -39.248  22.060   1.781  0.00  0.00    +0.173 C 
ATOM      3  C   UNL     1     -40.048  23.307   2.156  0.00  0.00    +0.178 C 
ATOM      4  C   UNL     1     -38.001  21.914   2.654  0.00  0.00    +0.210 C 
ATOM      5  C   UNL     1     -39.137  24.524   2.255  0.00  0.00    +0.246 C 
ATOM      6  C   UNL     1     -37.215  23.224   2.721  0.00  0.00    +0.318 C 
ENDROOT
BRANCH   2   7
ATOM      7  O   UNL     1     -40.091  20.922   1.962  0.00  0.00    -0.379 OA
ATOM      8  H   UNL     1     -39.685  20.149   1.539  0.00  0.00    +0.211 HD
ENDBRANCH   2   7
BRANCH   3   9
ATOM      9  O   UNL     1     -41.032  23.551   1.151  0.00  0.00    -0.379 OA
ATOM     10  H   UNL     1     -41.145  22.753   0.610  0.00  0.00    +0.211 HD
ENDBRANCH   3   9
BRANCH   4  11
ATOM     11  O   UNL     1     -37.150  20.910   2.100  0.00  0.00    -0.377 OA
ATOM     12  H   UNL     1     -37.685  20.266   1.612  0.00  0.00    +0.211 HD
ENDBRANCH   4  11
BRANCH   5  14
ATOM     13  O   UNL     1     -41.062  25.854   2.845  0.00  0.00    -0.247 OA
ATOM     14  C   UNL     1     -39.853  25.681   2.874  0.00  0.00    +0.344 C 
BRANCH  14  15
ATOM     15  O   UNL     1     -38.976  26.521   3.474  0.00  0.00    -0.478 OA
ATOM     16  H   UNL     1     -38.178  26.187   3.835  0.00  0.00    +0.295 HD
ENDBRANCH  14  15
ENDBRANCH   5  14
BRANCH   6  17
ATOM     17  O   UNL     1     -36.145  23.049   3.649  0.00  0.00    -0.450 OA
BRANCH  17  18
ATOM     18  C   UNL     1     -35.435  24.170   3.982  0.00  0.00    +0.147 C 
ATOM     19  C   UNL     1     -34.574  24.780   3.073  0.00  0.00    +0.061 C 
ATOM     20  C   UNL     1     -35.591  24.693   5.263  0.00  0.00    +0.039 C 
ATOM     21  C   UNL     1     -33.864  25.920   3.448  0.00  0.00    +0.024 C 
ATOM     22  C   UNL     1     -34.881  25.834   5.638  0.00  0.00    +0.018 C 
ATOM     23  C   UNL     1     -34.018  26.448   4.730  0.00  0.00    +0.051 C 
BRANCH  23  25
ATOM     24  O   UNL     1     -32.036  26.870   6.958  0.00  0.00    -0.275 OA
ATOM     25  N   UNL     1     -33.309  27.588   5.106  0.00  0.00    -0.284 N 
ATOM     26  C   UNL     1     -32.395  27.731   6.160  0.00  0.00    +0.227 C 
ATOM     27  C   UNL     1     -31.841  29.131   6.234  0.00  0.00    +0.095 C 
ATOM     28  H   UNL     1     -33.470  28.395   4.565  0.00  0.00    +0.155 HD
ENDBRANCH  23  25
BRANCH  19  29
ATOM     29  S   UNL     1     -34.349  24.134   1.421  0.00  0.00    -0.110 S 
ATOM     30  C   UNL     1     -35.169  25.436   0.479  0.00  0.00    +0.074 C 
ENDBRANCH  19  29
ENDBRANCH  17  18
ENDBRANCH   6  17
TORSDOF 9
ENDMDL
MODEL 3
REMARK VINA RESULT:      -5.9      5.308      9.463
REMARK  Name = 196070
REMARK  9 active torsions:
REMARK  status: ('A' for Active; 'I' for Inactive)
REMARK    1  A    between atoms: C_2  and  O_7
REMARK    2  A    between atoms: C_3  and  O_9
REMARK    3  A    between atoms: C_4  and  O_11
REMARK    4  A    between atoms: C_5  and  C_14
REMARK    5  A    between atoms: C_6  and  O_17
REMARK    6  A    between atoms: C_14  and  O_15
REMARK    7  A    between atoms: O_17  and  C_18
REMARK    8  A    between atoms: C_19  and  S_29
REMARK    9  A    between atoms: C_23  and  N_25
REMARK                            x       y       z     vdW  Elec       q    Type
REMARK                         _______ _______ _______ _____ _____    ______ ____
ROOT
ATOM      1  O   UNL     1     -34.651  24.906   2.701  0.00  0.00    -0.307 OA
ATOM      2  C   UNL     1     -37.054  24.590   4.244  0.00  0.00    +0.173 C 
ATOM      3  C   UNL     1     -36.669  23.620   3.127  0.00  0.00    +0.178 C 
ATOM      4  C   UNL     1     -36.365  25.944   4.069  0.00  0.00    +0.210 C 
ATOM      5  C   UNL     1     -35.158  23.597   2.928  0.00  0.00    +0.246 C 
ATOM      6  C   UNL     1     -34.868  25.774   3.811  0.00  0.00    +0.318 C 
ENDROOT
BRANCH   2   7
ATOM      7  O   UNL     1     -38.470  24.769   4.206  0.00  0.00    -0.379 OA
ATOM      8  H   UNL     1     -38.695  25.421   3.524  0.00  0.00    +0.211 HD
ENDBRANCH   2   7
BRANCH   3   9
ATOM      9  O   UNL     1     -37.105  22.307   3.478  0.00  0.00    -0.379 OA
ATOM     10  H   UNL     1     -37.307  21.808   2.671  0.00  0.00    +0.211 HD
ENDBRANCH   3   9
BRANCH   4  11
ATOM     11  O   UNL     1     -36.529  26.715   5.259  0.00  0.00    -0.377 OA
ATOM     12  H   UNL     1     -35.689  27.142   5.487  0.00  0.00    +0.211 HD
ENDBRANCH   4  11
BRANCH   5  14
ATOM     13  O   UNL     1     -34.480  23.392   0.621  0.00  0.00    -0.247 OA
ATOM     14  C   UNL     1     -34.793  22.865   1.678  0.00  0.00    +0.344 C 
BRANCH  14  15
ATOM     15  O   UNL     1     -34.859  21.525   1.872  0.00  0.00    -0.478 OA
ATOM     16  H   UNL     1     -34.144  20.978   1.610  0.00  0.00    +0.295 HD
ENDBRANCH  14  15
ENDBRANCH   5  14
BRANCH   6  17
ATOM     17  O   UNL     1     -34.319  27.061   3.532  0.00  0.00    -0.450 OA
BRANCH  17  18
ATOM     18  C   UNL     1     -33.261  27.456   4.304  0.00  0.00    +0.147 C 
ATOM     19  C   UNL     1     -32.222  28.219   3.776  0.00  0.00    +0.061 C 
ATOM     20  C   UNL     1     -33.243  27.076   5.643  0.00  0.00    +0.039 C 
ATOM     21  C   UNL     1     -31.158  28.602   4.592  0.00  0.00    +0.024 C 
ATOM     22  C   UNL     1     -32.180  27.459   6.460  0.00  0.00    +0.018 C 
ATOM     23  C   UNL     1     -31.137  28.223   5.934  0.00  0.00    +0.051 C 
BRANCH  23  25
ATOM     24  O   UNL     1     -28.368  27.070   6.207  0.00  0.00    -0.275 OA
ATOM     25  N   UNL     1     -30.074  28.606   6.752  0.00  0.00    -0.284 N 
ATOM     26  C   UNL     1     -28.799  28.029   6.841  0.00  0.00    +0.227 C 
ATOM     27  C   UNL     1     -27.933  28.740   7.849  0.00  0.00    +0.095 C 
ATOM     28  H   UNL     1     -30.239  29.377   7.341  0.00  0.00    +0.155 HD
ENDBRANCH  23  25
BRANCH  19  29
ATOM     29  S   UNL     1     -32.212  28.724   2.061  0.00  0.00    -0.110 S 
ATOM     30  C   UNL     1     -33.017  30.332   2.221  0.00  0.00    +0.074 C 
ENDBRANCH  19  29
ENDBRANCH  17  18
ENDBRANCH   6  17
TORSDOF 9
ENDMDL
MODEL 4
REMARK VINA RESULT:      -5.8      3.761      8.076
REMARK  Name = 196070
REMARK  9 active torsions:
REMARK  status: ('A' for Active; 'I' for Inactive)
REMARK    1  A    between atoms: C_2  and  O_7
REMARK    2  A    between atoms: C_3  and  O_9
REMARK    3  A    between atoms: C_4  and  O_11
REMARK    4  A    between atoms: C_5  and  C_14
REMARK    5  A    between atoms: C_6  and  O_17
REMARK    6  A    between atoms: C_14  and  O_15
REMARK    7  A    between atoms: O_17  and  C_18
REMARK    8  A    between atoms: C_19  and  S_29
REMARK    9  A    between atoms: C_23  and  N_25
REMARK                            x       y       z     vdW  Elec       q    Type
REMARK                         _______ _______ _______ _____ _____    ______ ____
ROOT
ATOM      1  O   UNL     1     -37.565  24.412   2.216  0.00  0.00    -0.307 OA
ATOM      2  C   UNL     1     -39.293  22.234   1.493  0.00  0.00    +0.173 C 
ATOM      3  C   UNL     1     -39.823  23.517   2.134  0.00  0.00    +0.178 C 
ATOM      4  C   UNL     1     -37.806  22.037   1.788  0.00  0.00    +0.210 C 
ATOM      5  C   UNL     1     -38.904  24.693   1.827  0.00  0.00    +0.246 C 
ATOM      6  C   UNL     1     -37.011  23.311   1.501  0.00  0.00    +0.318 C 
ENDROOT
BRANCH   2   7
ATOM      7  O   UNL     1     -40.034  21.135   2.026  0.00  0.00    -0.379 OA
ATOM      8  H   UNL     1     -40.039  21.189   2.995  0.00  0.00    +0.211 HD
ENDBRANCH   2   7
BRANCH   3   9
ATOM      9  O   UNL     1     -41.120  23.800   1.609  0.00  0.00    -0.379 OA
ATOM     10  H   UNL     1     -41.465  23.012   1.159  0.00  0.00    +0.211 HD
ENDBRANCH   3   9
BRANCH   4  11
ATOM     11  O   UNL     1     -37.294  20.994   0.958  0.00  0.00    -0.377 OA
ATOM     12  H   UNL     1     -37.577  20.135   1.307  0.00  0.00    +0.211 HD
ENDBRANCH   4  11
BRANCH   5  14
ATOM     13  O   UNL     1     -40.259  26.571   2.506  0.00  0.00    -0.247 OA
ATOM     14  C   UNL     1     -39.262  25.883   2.658  0.00  0.00    +0.344 C 
BRANCH  14  15
ATOM     15  O   UNL     1     -38.322  26.101   3.610  0.00  0.00    -0.478 OA
ATOM     16  H   UNL     1     -37.593  25.517   3.693  0.00  0.00    +0.295 HD
ENDBRANCH  14  15
ENDBRANCH   5  14
BRANCH   6  17
ATOM     17  O   UNL     1     -35.664  23.093   1.918  0.00  0.00    -0.450 OA
BRANCH  17  18
ATOM     18  C   UNL     1     -35.148  23.988   2.815  0.00  0.00    +0.147 C 
ATOM     19  C   UNL     1     -34.900  23.628   4.138  0.00  0.00    +0.061 C 
ATOM     20  C   UNL     1     -34.873  25.279   2.374  0.00  0.00    +0.039 C 
ATOM     21  C   UNL     1     -34.375  24.568   5.025  0.00  0.00    +0.024 C 
ATOM     22  C   UNL     1     -34.349  26.219   3.262  0.00  0.00    +0.018 C 
ATOM     23  C   UNL     1     -34.099  25.863   4.587  0.00  0.00    +0.051 C 
BRANCH  23  25
ATOM     24  O   UNL     1     -31.616  27.556   4.396  0.00  0.00    -0.275 OA
ATOM     25  N   UNL     1     -33.574  26.803   5.474  0.00  0.00    -0.284 N 
ATOM     26  C   UNL     1     -32.406  27.566   5.335  0.00  0.00    +0.227 C 
ATOM     27  C   UNL     1     -32.187  28.472   6.520  0.00  0.00    +0.095 C 
ATOM     28  H   UNL     1     -34.088  26.949   6.302  0.00  0.00    +0.155 HD
ENDBRANCH  23  25
BRANCH  19  29
ATOM     29  S   UNL     1     -35.242  21.979   4.737  0.00  0.00    -0.110 S 
ATOM     30  C   UNL     1     -35.421  22.335   6.498  0.00  0.00    +0.074 C 
ENDBRANCH  19  29
ENDBRANCH  17  18
ENDBRANCH   6  17
TORSDOF 9
ENDMDL
MODEL 5
REMARK VINA RESULT:      -5.8      4.002      7.987
REMARK  Name = 196070
REMARK  9 active torsions:
REMARK  status: ('A' for Active; 'I' for Inactive)
REMARK    1  A    between atoms: C_2  and  O_7
REMARK    2  A    between atoms: C_3  and  O_9
REMARK    3  A    between atoms: C_4  and  O_11
REMARK    4  A    between atoms: C_5  and  C_14
REMARK    5  A    between atoms: C_6  and  O_17
REMARK    6  A    between atoms: C_14  and  O_15
REMARK    7  A    between atoms: O_17  and  C_18
REMARK    8  A    between atoms: C_19  and  S_29
REMARK    9  A    between atoms: C_23  and  N_25
REMARK                            x       y       z     vdW  Elec       q    Type
REMARK                         _______ _______ _______ _____ _____    ______ ____
ROOT
ATOM      1  O   UNL     1     -36.308  23.812   2.776  0.00  0.00    -0.307 OA
ATOM      2  C   UNL     1     -38.964  22.717   2.716  0.00  0.00    +0.173 C 
ATOM      3  C   UNL     1     -37.781  22.026   2.036  0.00  0.00    +0.178 C 
ATOM      4  C   UNL     1     -38.697  24.209   2.917  0.00  0.00    +0.210 C 
ATOM      5  C   UNL     1     -36.471  22.400   2.719  0.00  0.00    +0.246 C 
ATOM      6  C   UNL     1     -37.325  24.447   3.547  0.00  0.00    +0.318 C 
ENDROOT
BRANCH   2   7
ATOM      7  O   UNL     1     -40.113  22.546   1.885  0.00  0.00    -0.379 OA
ATOM      8  H   UNL     1     -40.505  21.675   2.053  0.00  0.00    +0.211 HD
ENDBRANCH   2   7
BRANCH   3   9
ATOM      9  O   UNL     1     -37.955  20.612   2.121  0.00  0.00    -0.379 OA
ATOM     10  H   UNL     1     -37.656  20.200   1.295  0.00  0.00    +0.211 HD
ENDBRANCH   3   9
BRANCH   4  11
ATOM     11  O   UNL     1     -39.690  24.754   3.787  0.00  0.00    -0.377 OA
ATOM     12  H   UNL     1     -40.337  25.252   3.266  0.00  0.00    +0.211 HD
ENDBRANCH   4  11
BRANCH   5  14
ATOM     13  O   UNL     1     -34.666  22.655   1.138  0.00  0.00    -0.247 OA
ATOM     14  C   UNL     1     -35.298  21.950   1.910  0.00  0.00    +0.344 C 
BRANCH  14  15
ATOM     15  O   UNL     1     -35.027  20.643   2.147  0.00  0.00    -0.478 OA
ATOM     16  H   UNL     1     -34.138  20.354   2.214  0.00  0.00    +0.295 HD
ENDBRANCH  14  15
ENDBRANCH   5  14
BRANCH   6  17
ATOM     17  O   UNL     1     -37.095  25.854   3.585  0.00  0.00    -0.450 OA
BRANCH  17  18
ATOM     18  C   UNL     1     -35.873  26.263   4.045  0.00  0.00    +0.147 C 
ATOM     19  C   UNL     1     -35.022  27.035   3.257  0.00  0.00    +0.061 C 
ATOM     20  C   UNL     1     -35.493  25.887   5.330  0.00  0.00    +0.039 C 
ATOM     21  C   UNL     1     -33.782  27.432   3.759  0.00  0.00    +0.024 C 
ATOM     22  C   UNL     1     -34.253  26.283   5.832  0.00  0.00    +0.018 C 
ATOM     23  C   UNL     1     -33.398  27.057   5.046  0.00  0.00    +0.051 C 
BRANCH  23  25
ATOM     24  O   UNL     1     -32.397  29.779   5.854  0.00  0.00    -0.275 OA
ATOM     25  N   UNL     1     -32.159  27.453   5.548  0.00  0.00    -0.284 N 
ATOM     26  C   UNL     1     -31.743  28.742   5.908  0.00  0.00    +0.227 C 
ATOM     27  C   UNL     1     -30.321  28.751   6.411  0.00  0.00    +0.095 C 
ATOM     28  H   UNL     1     -31.491  26.738   5.664  0.00  0.00    +0.155 HD
ENDBRANCH  23  25
BRANCH  19  29
ATOM     29  S   UNL     1     -35.478  27.535   1.603  0.00  0.00    -0.110 S 
ATOM     30  C   UNL     1     -35.680  29.308   1.874  0.00  0.00    +0.074 C 
ENDBRANCH  19  29
ENDBRANCH  17  18
ENDBRANCH   6  17
TORSDOF 9
ENDMDL
MODEL 6
REMARK VINA RESULT:      -5.7      5.648      7.282
REMARK  Name = 196070
REMARK  9 active torsions:
REMARK  status: ('A' for Active; 'I' for Inactive)
REMARK    1  A    between atoms: C_2  and  O_7
REMARK    2  A    between atoms: C_3  and  O_9
REMARK    3  A    between atoms: C_4  and  O_11
REMARK    4  A    between atoms: C_5  and  C_14
REMARK    5  A    between atoms: C_6  and  O_17
REMARK    6  A    between atoms: C_14  and  O_15
REMARK    7  A    between atoms: O_17  and  C_18
REMARK    8  A    between atoms: C_19  and  S_29
REMARK    9  A    between atoms: C_23  and  N_25
REMARK                            x       y       z     vdW  Elec       q    Type
REMARK                         _______ _______ _______ _____ _____    ______ ____
ROOT
ATOM      1  O   UNL     1     -35.681  20.898   3.415  0.00  0.00    -0.307 OA
ATOM      2  C   UNL     1     -36.597  23.295   2.122  0.00  0.00    +0.173 C 
ATOM      3  C   UNL     1     -36.497  23.176   3.643  0.00  0.00    +0.178 C 
ATOM      4  C   UNL     1     -36.693  21.920   1.460  0.00  0.00    +0.210 C 
ATOM      5  C   UNL     1     -35.437  22.154   4.036  0.00  0.00    +0.246 C 
ATOM      6  C   UNL     1     -35.617  20.973   1.992  0.00  0.00    +0.318 C 
ENDROOT
BRANCH   2   7
ATOM      7  O   UNL     1     -37.767  24.054   1.814  0.00  0.00    -0.379 OA
ATOM      8  H   UNL     1     -38.443  23.894   2.492  0.00  0.00    +0.211 HD
ENDBRANCH   2   7
BRANCH   3   9
ATOM      9  O   UNL     1     -36.134  24.445   4.187  0.00  0.00    -0.379 OA
ATOM     10  H   UNL     1     -36.519  24.538   5.073  0.00  0.00    +0.211 HD
ENDBRANCH   3   9
BRANCH   4  11
ATOM     11  O   UNL     1     -36.509  22.059   0.052  0.00  0.00    -0.377 OA
ATOM     12  H   UNL     1     -37.246  21.635  -0.414  0.00  0.00    +0.211 HD
ENDBRANCH   4  11
BRANCH   5  14
ATOM     13  O   UNL     1     -35.854  22.622   6.366  0.00  0.00    -0.247 OA
ATOM     14  C   UNL     1     -35.514  21.837   5.494  0.00  0.00    +0.344 C 
BRANCH  14  15
ATOM     15  O   UNL     1     -35.149  20.552   5.724  0.00  0.00    -0.478 OA
ATOM     16  H   UNL     1     -35.143  20.215   6.599  0.00  0.00    +0.295 HD
ENDBRANCH  14  15
ENDBRANCH   5  14
BRANCH   6  17
ATOM     17  O   UNL     1     -35.847  19.682   1.430  0.00  0.00    -0.450 OA
BRANCH  17  18
ATOM     18  C   UNL     1     -34.770  19.061   0.860  0.00  0.00    +0.147 C 
ATOM     19  C   UNL     1     -34.876  18.395  -0.358  0.00  0.00    +0.061 C 
ATOM     20  C   UNL     1     -33.550  19.109   1.531  0.00  0.00    +0.039 C 
ATOM     21  C   UNL     1     -33.756  17.772  -0.908  0.00  0.00    +0.024 C 
ATOM     22  C   UNL     1     -32.430  18.486   0.981  0.00  0.00    +0.018 C 
ATOM     23  C   UNL     1     -32.533  17.818  -0.239  0.00  0.00    +0.051 C 
BRANCH  23  25
ATOM     24  O   UNL     1     -31.320  15.121   0.333  0.00  0.00    -0.275 OA
ATOM     25  N   UNL     1     -31.412  17.195  -0.788  0.00  0.00    -0.284 N 
ATOM     26  C   UNL     1     -30.887  15.931  -0.482  0.00  0.00    +0.227 C 
ATOM     27  C   UNL     1     -29.660  15.622  -1.300  0.00  0.00    +0.095 C 
ATOM     28  H   UNL     1     -30.928  17.706  -1.476  0.00  0.00    +0.155 HD
ENDBRANCH  23  25
BRANCH  19  29
ATOM     29  S   UNL     1     -36.425  18.313  -1.246  0.00  0.00    -0.110 S 
ATOM     30  C   UNL     1     -37.220  16.975  -0.332  0.00  0.00    +0.074 C 
ENDBRANCH  19  29
ENDBRANCH  17  18
ENDBRANCH   6  17
TORSDOF 9
ENDMDL
MODEL 7
REMARK VINA RESULT:      -5.7      4.951      8.440
REMARK  Name = 196070
REMARK  9 active torsions:
REMARK  status: ('A' for Active; 'I' for Inactive)
REMARK    1  A    between atoms: C_2  and  O_7
REMARK    2  A    between atoms: C_3  and  O_9
REMARK    3  A    between atoms: C_4  and  O_11
REMARK    4  A    between atoms: C_5  and  C_14
REMARK    5  A    between atoms: C_6  and  O_17
REMARK    6  A    between atoms: C_14  and  O_15
REMARK    7  A    between atoms: O_17  and  C_18
REMARK    8  A    between atoms: C_19  and  S_29
REMARK    9  A    between atoms: C_23  and  N_25
REMARK                            x       y       z     vdW  Elec       q    Type
REMARK                         _______ _______ _______ _____ _____    ______ ____
ROOT
ATOM      1  O   UNL     1     -35.000  23.352   1.415  0.00  0.00    -0.307 OA
ATOM      2  C   UNL     1     -35.703  20.871   2.682  0.00  0.00    +0.173 C 
ATOM      3  C   UNL     1     -35.287  20.947   1.213  0.00  0.00    +0.178 C 
ATOM      4  C   UNL     1     -36.209  22.222   3.189  0.00  0.00    +0.210 C 
ATOM      5  C   UNL     1     -34.384  22.150   0.968  0.00  0.00    +0.246 C 
ATOM      6  C   UNL     1     -35.244  23.349   2.819  0.00  0.00    +0.318 C 
ENDROOT
BRANCH   2   7
ATOM      7  O   UNL     1     -36.743  19.899   2.797  0.00  0.00    -0.379 OA
ATOM      8  H   UNL     1     -36.592  19.358   3.588  0.00  0.00    +0.211 HD
ENDBRANCH   2   7
BRANCH   3   9
ATOM      9  O   UNL     1     -34.572  19.760   0.868  0.00  0.00    -0.379 OA
ATOM     10  H   UNL     1     -34.914  19.015   1.386  0.00  0.00    +0.211 HD
ENDBRANCH   3   9
BRANCH   4  11
ATOM     11  O   UNL     1     -36.324  22.180   4.611  0.00  0.00    -0.377 OA
ATOM     12  H   UNL     1     -37.121  21.686   4.857  0.00  0.00    +0.211 HD
ENDBRANCH   4  11
BRANCH   5  14
ATOM     13  O   UNL     1     -34.263  21.526  -1.360  0.00  0.00    -0.247 OA
ATOM     14  C   UNL     1     -34.190  22.386  -0.495  0.00  0.00    +0.344 C 
BRANCH  14  15
ATOM     15  O   UNL     1     -33.916  23.691  -0.736  0.00  0.00    -0.478 OA
ATOM     16  H   UNL     1     -33.855  24.297  -0.024  0.00  0.00    +0.295 HD
ENDBRANCH  14  15
ENDBRANCH   5  14
BRANCH   6  17
ATOM     17  O   UNL     1     -35.841  24.585   3.208  0.00  0.00    -0.450 OA
BRANCH  17  18
ATOM     18  C   UNL     1     -35.023  25.493   3.824  0.00  0.00    +0.147 C 
ATOM     19  C   UNL     1     -34.586  26.639   3.166  0.00  0.00    +0.061 C 
ATOM     20  C   UNL     1     -34.632  25.243   5.137  0.00  0.00    +0.039 C 
ATOM     21  C   UNL     1     -33.751  27.542   3.825  0.00  0.00    +0.024 C 
ATOM     22  C   UNL     1     -33.797  26.146   5.796  0.00  0.00    +0.018 C 
ATOM     23  C   UNL     1     -33.357  27.295   5.140  0.00  0.00    +0.051 C 
BRANCH  23  25
ATOM     24  O   UNL     1     -30.410  27.823   4.821  0.00  0.00    -0.275 OA
ATOM     25  N   UNL     1     -32.523  28.197   5.800  0.00  0.00    -0.284 N 
ATOM     26  C   UNL     1     -31.148  28.401   5.613  0.00  0.00    +0.227 C 
ATOM     27  C   UNL     1     -30.612  29.474   6.527  0.00  0.00    +0.095 C 
ATOM     28  H   UNL     1     -32.951  28.761   6.484  0.00  0.00    +0.155 HD
ENDBRANCH  23  25
BRANCH  19  29
ATOM     29  S   UNL     1     -35.068  26.990   1.481  0.00  0.00    -0.110 S 
ATOM     30  C   UNL     1     -35.800  28.623   1.715  0.00  0.00    +0.074 C 
ENDBRANCH  19  29
ENDBRANCH  17  18
ENDBRANCH   6  17
TORSDOF 9
ENDMDL
MODEL 8
REMARK VINA RESULT:      -5.7      3.125      4.965
REMARK  Name = 196070
REMARK  9 active torsions:
REMARK  status: ('A' for Active; 'I' for Inactive)
REMARK    1  A    between atoms: C_2  and  O_7
REMARK    2  A    between atoms: C_3  and  O_9
REMARK    3  A    between atoms: C_4  and  O_11
REMARK    4  A    between atoms: C_5  and  C_14
REMARK    5  A    between atoms: C_6  and  O_17
REMARK    6  A    between atoms: C_14  and  O_15
REMARK    7  A    between atoms: O_17  and  C_18
REMARK    8  A    between atoms: C_19  and  S_29
REMARK    9  A    between atoms: C_23  and  N_25
REMARK                            x       y       z     vdW  Elec       q    Type
REMARK                         _______ _______ _______ _____ _____    ______ ____
ROOT
ATOM      1  O   UNL     1     -36.603  24.858   3.526  0.00  0.00    -0.307 OA
ATOM      2  C   UNL     1     -36.207  22.119   4.299  0.00  0.00    +0.173 C 
ATOM      3  C   UNL     1     -35.410  23.265   4.921  0.00  0.00    +0.178 C 
ATOM      4  C   UNL     1     -36.775  22.511   2.935  0.00  0.00    +0.210 C 
ATOM      5  C   UNL     1     -36.197  24.568   4.858  0.00  0.00    +0.246 C 
ATOM      6  C   UNL     1     -37.480  23.866   2.997  0.00  0.00    +0.318 C 
ENDROOT
BRANCH   2   7
ATOM      7  O   UNL     1     -35.330  21.002   4.146  0.00  0.00    -0.379 OA
ATOM      8  H   UNL     1     -35.114  20.888   3.208  0.00  0.00    +0.211 HD
ENDBRANCH   2   7
BRANCH   3   9
ATOM      9  O   UNL     1     -35.140  22.958   6.289  0.00  0.00    -0.379 OA
ATOM     10  H   UNL     1     -34.917  23.774   6.765  0.00  0.00    +0.211 HD
ENDBRANCH   3   9
BRANCH   4  11
ATOM     11  O   UNL     1     -37.726  21.531   2.519  0.00  0.00    -0.377 OA
ATOM     12  H   UNL     1     -37.267  20.702   2.314  0.00  0.00    +0.211 HD
ENDBRANCH   4  11
BRANCH   5  14
ATOM     13  O   UNL     1     -34.232  25.658   5.739  0.00  0.00    -0.247 OA
ATOM     14  C   UNL     1     -35.334  25.734   5.216  0.00  0.00    +0.344 C 
BRANCH  14  15
ATOM     15  O   UNL     1     -35.942  26.899   4.884  0.00  0.00    -0.478 OA
ATOM     16  H   UNL     1     -35.809  27.271   4.034  0.00  0.00    +0.295 HD
ENDBRANCH  14  15
ENDBRANCH   5  14
BRANCH   6  17
ATOM     17  O   UNL     1     -37.868  24.223   1.671  0.00  0.00    -0.450 OA
BRANCH  17  18
ATOM     18  C   UNL     1     -38.943  25.060   1.552  0.00  0.00    +0.147 C 
ATOM     19  C   UNL     1     -38.857  26.257   0.846  0.00  0.00    +0.061 C 
ATOM     20  C   UNL     1     -40.140  24.687   2.159  0.00  0.00    +0.039 C 
ATOM     21  C   UNL     1     -39.974  27.087   0.747  0.00  0.00    +0.024 C 
ATOM     22  C   UNL     1     -41.257  25.516   2.060  0.00  0.00    +0.018 C 
ATOM     23  C   UNL     1     -41.174  26.716   1.353  0.00  0.00    +0.051 C 
BRANCH  23  25
ATOM     24  O   UNL     1     -42.236  28.798   3.253  0.00  0.00    -0.275 OA
ATOM     25  N   UNL     1     -42.291  27.545   1.255  0.00  0.00    -0.284 N 
ATOM     26  C   UNL     1     -42.744  28.501   2.176  0.00  0.00    +0.227 C 
ATOM     27  C   UNL     1     -43.996  29.191   1.696  0.00  0.00    +0.095 C 
ATOM     28  H   UNL     1     -42.831  27.447   0.437  0.00  0.00    +0.155 HD
ENDBRANCH  23  25
BRANCH  19  29
ATOM     29  S   UNL     1     -37.337  26.768   0.056  0.00  0.00    -0.110 S 
ATOM     30  C   UNL     1     -36.619  27.743   1.395  0.00  0.00    +0.074 C 
ENDBRANCH  19  29
ENDBRANCH  17  18
ENDBRANCH   6  17
TORSDOF 9
ENDMDL
MODEL 9
REMARK VINA RESULT:      -5.6      2.963      3.424
REMARK  Name = 196070
REMARK  9 active torsions:
REMARK  status: ('A' for Active; 'I' for Inactive)
REMARK    1  A    between atoms: C_2  and  O_7
REMARK    2  A    between atoms: C_3  and  O_9
REMARK    3  A    between atoms: C_4  and  O_11
REMARK    4  A    between atoms: C_5  and  C_14
REMARK    5  A    between atoms: C_6  and  O_17
REMARK    6  A    between atoms: C_14  and  O_15
REMARK    7  A    between atoms: O_17  and  C_18
REMARK    8  A    between atoms: C_19  and  S_29
REMARK    9  A    between atoms: C_23  and  N_25
REMARK                            x       y       z     vdW  Elec       q    Type
REMARK                         _______ _______ _______ _____ _____    ______ ____
ROOT
ATOM      1  O   UNL     1     -36.695  22.313   4.053  0.00  0.00    -0.307 OA
ATOM      2  C   UNL     1     -36.406  25.172   4.096  0.00  0.00    +0.173 C 
ATOM      3  C   UNL     1     -35.858  24.280   5.210  0.00  0.00    +0.178 C 
ATOM      4  C   UNL     1     -37.525  24.473   3.322  0.00  0.00    +0.210 C 
ATOM      5  C   UNL     1     -35.554  22.883   4.683  0.00  0.00    +0.246 C 
ATOM      6  C   UNL     1     -37.115  23.058   2.912  0.00  0.00    +0.318 C 
ENDROOT
BRANCH   2   7
ATOM      7  O   UNL     1     -36.915  26.364   4.695  0.00  0.00    -0.379 OA
ATOM      8  H   UNL     1     -36.441  27.132   4.338  0.00  0.00    +0.211 HD
ENDBRANCH   2   7
BRANCH   3   9
ATOM      9  O   UNL     1     -34.651  24.852   5.714  0.00  0.00    -0.379 OA
ATOM     10  H   UNL     1     -33.975  24.160   5.795  0.00  0.00    +0.211 HD
ENDBRANCH   3   9
BRANCH   4  11
ATOM     11  O   UNL     1     -37.816  25.215   2.138  0.00  0.00    -0.377 OA
ATOM     12  H   UNL     1     -38.301  26.021   2.373  0.00  0.00    +0.211 HD
ENDBRANCH   4  11
BRANCH   5  14
ATOM     13  O   UNL     1     -35.163  22.253   6.980  0.00  0.00    -0.247 OA
ATOM     14  C   UNL     1     -35.272  21.937   5.805  0.00  0.00    +0.344 C 
BRANCH  14  15
ATOM     15  O   UNL     1     -35.150  20.668   5.342  0.00  0.00    -0.478 OA
ATOM     16  H   UNL     1     -34.778  20.512   4.496  0.00  0.00    +0.295 HD
ENDBRANCH  14  15
ENDBRANCH   5  14
BRANCH   6  17
ATOM     17  O   UNL     1     -38.245  22.427   2.313  0.00  0.00    -0.450 OA
BRANCH  17  18
ATOM     18  C   UNL     1     -37.988  21.378   1.474  0.00  0.00    +0.147 C 
ATOM     19  C   UNL     1     -38.848  21.057   0.427  0.00  0.00    +0.061 C 
ATOM     20  C   UNL     1     -36.835  20.628   1.692  0.00  0.00    +0.039 C 
ATOM     21  C   UNL     1     -38.553  19.979  -0.407  0.00  0.00    +0.024 C 
ATOM     22  C   UNL     1     -36.540  19.549   0.858  0.00  0.00    +0.018 C 
ATOM     23  C   UNL     1     -37.400  19.225  -0.192  0.00  0.00    +0.051 C 
BRANCH  23  25
ATOM     24  O   UNL     1     -37.814  16.270   0.215  0.00  0.00    -0.275 OA
ATOM     25  N   UNL     1     -37.105  18.146  -1.026  0.00  0.00    -0.284 N 
ATOM     26  C   UNL     1     -37.318  16.782  -0.784  0.00  0.00    +0.227 C 
ATOM     27  C   UNL     1     -36.859  15.931  -1.941  0.00  0.00    +0.095 C 
ATOM     28  H   UNL     1     -36.694  18.370  -1.892  0.00  0.00    +0.155 HD
ENDBRANCH  23  25
BRANCH  19  29
ATOM     29  S   UNL     1     -40.336  21.999   0.119  0.00  0.00    -0.110 S 
ATOM     30  C   UNL     1     -41.275  20.772  -0.813  0.00  0.00    +0.074 C 
ENDBRANCH  19  29
ENDBRANCH  17  18
ENDBRANCH   6  17
TORSDOF 9
ENDMDL
