MODEL 1
REMARK VINA RESULT:      -6.4      0.000      0.000
REMARK  Name = 5901
REMARK  5 active torsions:
REMARK  status: ('A' for Active; 'I' for Inactive)
REMARK    1  A    between atoms: C3*_2  and  O3*_17
REMARK    2  A    between atoms: C2*_3  and  O2*_15
REMARK    3  A    between atoms: C4*_4  and  C5*_19
REMARK    4  A    between atoms: C1*_5  and  N_8
REMARK    5  A    between atoms: C5*_19  and  O5*_20
REMARK                            x       y       z     vdW  Elec       q    Type
REMARK                         _______ _______ _______ _____ _____    ______ ____
ROOT
ATOM      1  O4* UNL     1     -35.222  22.845   4.022  0.00  0.00    -0.332 OA
ATOM      2  C3* UNL     1     -35.412  24.647   5.545  0.00  0.00    +0.171 C 
ATOM      3  C2* UNL     1     -36.677  24.580   4.716  0.00  0.00    +0.188 C 
ATOM      4  C4* UNL     1     -34.827  23.255   5.349  0.00  0.00    +0.176 C 
ATOM      5  C1* UNL     1     -36.233  23.739   3.532  0.00  0.00    +0.246 C 
ENDROOT
BRANCH   5   8
ATOM      6  O   UNL     1     -36.060  21.042   2.625  0.00  0.00    -0.250 OA
ATOM      7  O   UNL     1     -40.513  21.111   1.462  0.00  0.00    -0.268 OA
ATOM      8  N   UNL     1     -37.307  22.969   2.973  0.00  0.00    -0.136 N 
ATOM      9  N   UNL     1     -38.511  23.621   2.881  0.00  0.00    -0.166 NA
ATOM     10  N   UNL     1     -38.258  21.019   2.029  0.00  0.00    -0.233 N 
ATOM     11  C   UNL     1     -37.135  21.642   2.549  0.00  0.00    +0.331 C 
ATOM     12  C   UNL     1     -39.532  23.007   2.392  0.00  0.00    +0.176 C 
ATOM     13  C   UNL     1     -39.491  21.605   1.908  0.00  0.00    +0.274 C 
ATOM     14  H   UNL     1     -38.164  20.087   1.724  0.00  0.00    +0.159 HD
ENDBRANCH   5   8
BRANCH   3  15
ATOM     15  O2* UNL     1     -37.136  25.860   4.334  0.00  0.00    -0.378 OA
ATOM     16  H2* UNL     1     -37.574  26.286   5.087  0.00  0.00    +0.211 HD
ENDBRANCH   3  15
BRANCH   2  17
ATOM     17  O3* UNL     1     -34.501  25.591   4.983  0.00  0.00    -0.379 OA
ATOM     18  H3* UNL     1     -33.629  25.179   4.883  0.00  0.00    +0.211 HD
ENDBRANCH   2  17
BRANCH   4  19
ATOM     19  C5* UNL     1     -35.362  22.232   6.342  0.00  0.00    +0.169 C 
BRANCH  19  20
ATOM     20  O5* UNL     1     -35.408  20.966   5.707  0.00  0.00    -0.379 OA
ATOM     21  H5* UNL     1     -35.477  21.089   4.747  0.00  0.00    +0.211 HD
ENDBRANCH  19  20
ENDBRANCH   4  19
TORSDOF 5
ENDMDL
MODEL 2
REMARK VINA RESULT:      -6.1      1.320      2.236
REMARK  Name = 5901
REMARK  5 active torsions:
REMARK  status: ('A' for Active; 'I' for Inactive)
REMARK    1  A    between atoms: C3*_2  and  O3*_17
REMARK    2  A    between atoms: C2*_3  and  O2*_15
REMARK    3  A    between atoms: C4*_4  and  C5*_19
REMARK    4  A    between atoms: C1*_5  and  N_8
REMARK    5  A    between atoms: C5*_19  and  O5*_20
REMARK                            x       y       z     vdW  Elec       q    Type
REMARK                         _______ _______ _______ _____ _____    ______ ____
ROOT
ATOM      1  O4* UNL     1     -35.281  23.530   3.725  0.00  0.00    -0.332 OA
ATOM      2  C3* UNL     1     -34.935  24.737   5.733  0.00  0.00    +0.171 C 
ATOM      3  C2* UNL     1     -36.234  25.200   5.109  0.00  0.00    +0.188 C 
ATOM      4  C4* UNL     1     -34.710  23.397   5.045  0.00  0.00    +0.176 C 
ATOM      5  C1* UNL     1     -36.084  24.720   3.676  0.00  0.00    +0.246 C 
ENDROOT
BRANCH   5   8
ATOM      6  O   UNL     1     -37.897  26.598   2.528  0.00  0.00    -0.250 OA
ATOM      7  O   UNL     1     -40.793  23.189   1.441  0.00  0.00    -0.268 OA
ATOM      8  N   UNL     1     -37.345  24.408   3.067  0.00  0.00    -0.136 N 
ATOM      9  N   UNL     1     -37.676  23.075   3.052  0.00  0.00    -0.166 NA
ATOM     10  N   UNL     1     -39.369  24.952   1.968  0.00  0.00    -0.233 N 
ATOM     11  C   UNL     1     -38.181  25.397   2.525  0.00  0.00    +0.331 C 
ATOM     12  C   UNL     1     -38.790  22.702   2.526  0.00  0.00    +0.176 C 
ATOM     13  C   UNL     1     -39.765  23.641   1.917  0.00  0.00    +0.274 C 
ATOM     14  H   UNL     1     -39.974  25.626   1.581  0.00  0.00    +0.159 HD
ENDBRANCH   5   8
BRANCH   3  15
ATOM     15  O2* UNL     1     -36.404  26.600   5.199  0.00  0.00    -0.378 OA
ATOM     16  H2* UNL     1     -35.816  27.039   4.566  0.00  0.00    +0.211 HD
ENDBRANCH   3  15
BRANCH   2  17
ATOM     17  O3* UNL     1     -33.868  25.608   5.359  0.00  0.00    -0.379 OA
ATOM     18  H3* UNL     1     -33.943  25.826   4.417  0.00  0.00    +0.211 HD
ENDBRANCH   2  17
BRANCH   4  19
ATOM     19  C5* UNL     1     -35.402  22.236   5.747  0.00  0.00    +0.169 C 
BRANCH  19  20
ATOM     20  O5* UNL     1     -35.723  21.250   4.781  0.00  0.00    -0.379 OA
ATOM     21  H5* UNL     1     -35.018  20.584   4.753  0.00  0.00    +0.211 HD
ENDBRANCH  19  20
ENDBRANCH   4  19
TORSDOF 5
ENDMDL
MODEL 3
REMARK VINA RESULT:      -5.6      2.237      5.146
REMARK  Name = 5901
REMARK  5 active torsions:
REMARK  status: ('A' for Active; 'I' for Inactive)
REMARK    1  A    between atoms: C3*_2  and  O3*_17
REMARK    2  A    between atoms: C2*_3  and  O2*_15
REMARK    3  A    between atoms: C4*_4  and  C5*_19
REMARK    4  A    between atoms: C1*_5  and  N_8
REMARK    5  A    between atoms: C5*_19  and  O5*_20
REMARK                            x       y       z     vdW  Elec       q    Type
REMARK                         _______ _______ _______ _____ _____    ______ ____
ROOT
ATOM      1  O4* UNL     1     -34.817  20.309   2.699  0.00  0.00    -0.332 OA
ATOM      2  C3* UNL     1     -36.339  19.983   0.914  0.00  0.00    +0.171 C 
ATOM      3  C2* UNL     1     -36.893  21.052   1.831  0.00  0.00    +0.188 C 
ATOM      4  C4* UNL     1     -34.865  19.965   1.297  0.00  0.00    +0.176 C 
ATOM      5  C1* UNL     1     -36.098  20.818   3.104  0.00  0.00    +0.246 C 
ENDROOT
BRANCH   5   8
ATOM      6  O   UNL     1     -35.103  20.977   5.772  0.00  0.00    -0.250 OA
ATOM      7  O   UNL     1     -35.484  25.563   5.676  0.00  0.00    -0.268 OA
ATOM      8  N   UNL     1     -35.904  22.023   3.859  0.00  0.00    -0.136 N 
ATOM      9  N   UNL     1     -36.238  23.184   3.208  0.00  0.00    -0.166 NA
ATOM     10  N   UNL     1     -35.273  23.249   5.782  0.00  0.00    -0.233 N 
ATOM     11  C   UNL     1     -35.409  22.012   5.173  0.00  0.00    +0.331 C 
ATOM     12  C   UNL     1     -36.097  24.314   3.809  0.00  0.00    +0.176 C 
ATOM     13  C   UNL     1     -35.583  24.447   5.195  0.00  0.00    +0.274 C 
ATOM     14  H   UNL     1     -34.927  23.269   6.704  0.00  0.00    +0.159 HD
ENDBRANCH   5   8
BRANCH   3  15
ATOM     15  O2* UNL     1     -38.286  20.922   2.028  0.00  0.00    -0.378 OA
ATOM     16  H2* UNL     1     -38.650  21.767   2.333  0.00  0.00    +0.211 HD
ENDBRANCH   3  15
BRANCH   2  17
ATOM     17  O3* UNL     1     -36.894  18.710   1.245  0.00  0.00    -0.379 OA
ATOM     18  H3* UNL     1     -37.446  18.398   0.511  0.00  0.00    +0.211 HD
ENDBRANCH   2  17
BRANCH   4  19
ATOM     19  C5* UNL     1     -34.031  20.983   0.530  0.00  0.00    +0.169 C 
BRANCH  19  20
ATOM     20  O5* UNL     1     -32.701  20.506   0.442  0.00  0.00    -0.379 OA
ATOM     21  H5* UNL     1     -32.695  19.542   0.556  0.00  0.00    +0.211 HD
ENDBRANCH  19  20
ENDBRANCH   4  19
TORSDOF 5
ENDMDL
MODEL 4
REMARK VINA RESULT:      -5.6      4.185      6.854
REMARK  Name = 5901
REMARK  5 active torsions:
REMARK  status: ('A' for Active; 'I' for Inactive)
REMARK    1  A    between atoms: C3*_2  and  O3*_17
REMARK    2  A    between atoms: C2*_3  and  O2*_15
REMARK    3  A    between atoms: C4*_4  and  C5*_19
REMARK    4  A    between atoms: C1*_5  and  N_8
REMARK    5  A    between atoms: C5*_19  and  O5*_20
REMARK                            x       y       z     vdW  Elec       q    Type
REMARK                         _______ _______ _______ _____ _____    ______ ____
ROOT
ATOM      1  O4* UNL     1     -33.649  24.882   4.365  0.00  0.00    -0.332 OA
ATOM      2  C3* UNL     1     -35.994  24.618   4.172  0.00  0.00    +0.171 C 
ATOM      3  C2* UNL     1     -35.704  26.033   4.623  0.00  0.00    +0.188 C 
ATOM      4  C4* UNL     1     -34.653  24.183   3.597  0.00  0.00    +0.176 C 
ATOM      5  C1* UNL     1     -34.281  25.913   5.141  0.00  0.00    +0.246 C 
ENDROOT
BRANCH   5   8
ATOM      6  O   UNL     1     -32.419  26.976   7.021  0.00  0.00    -0.250 OA
ATOM      7  O   UNL     1     -31.627  30.570   4.255  0.00  0.00    -0.268 OA
ATOM      8  N   UNL     1     -33.538  27.131   4.992  0.00  0.00    -0.136 N 
ATOM      9  N   UNL     1     -33.768  27.821   3.827  0.00  0.00    -0.166 NA
ATOM     10  N   UNL     1     -31.989  28.778   5.694  0.00  0.00    -0.233 N 
ATOM     11  C   UNL     1     -32.639  27.585   5.970  0.00  0.00    +0.331 C 
ATOM     12  C   UNL     1     -33.145  28.926   3.608  0.00  0.00    +0.176 C 
ATOM     13  C   UNL     1     -32.168  29.518   4.555  0.00  0.00    +0.274 C 
ATOM     14  H   UNL     1     -31.353  29.118   6.364  0.00  0.00    +0.159 HD
ENDBRANCH   5   8
BRANCH   3  15
ATOM     15  O2* UNL     1     -36.608  26.477   5.613  0.00  0.00    -0.378 OA
ATOM     16  H2* UNL     1     -37.510  26.218   5.368  0.00  0.00    +0.211 HD
ENDBRANCH   3  15
BRANCH   2  17
ATOM     17  O3* UNL     1     -36.280  23.788   5.298  0.00  0.00    -0.379 OA
ATOM     18  H3* UNL     1     -37.190  23.945   5.592  0.00  0.00    +0.211 HD
ENDBRANCH   2  17
BRANCH   4  19
ATOM     19  C5* UNL     1     -34.475  24.560   2.131  0.00  0.00    +0.169 C 
BRANCH  19  20
ATOM     20  O5* UNL     1     -33.297  25.335   2.002  0.00  0.00    -0.379 OA
ATOM     21  H5* UNL     1     -33.523  26.277   2.049  0.00  0.00    +0.211 HD
ENDBRANCH  19  20
ENDBRANCH   4  19
TORSDOF 5
ENDMDL
MODEL 5
REMARK VINA RESULT:      -5.5      2.518      4.100
REMARK  Name = 5901
REMARK  5 active torsions:
REMARK  status: ('A' for Active; 'I' for Inactive)
REMARK    1  A    between atoms: C3*_2  and  O3*_17
REMARK    2  A    between atoms: C2*_3  and  O2*_15
REMARK    3  A    between atoms: C4*_4  and  C5*_19
REMARK    4  A    between atoms: C1*_5  and  N_8
REMARK    5  A    between atoms: C5*_19  and  O5*_20
REMARK                            x       y       z     vdW  Elec       q    Type
REMARK                         _______ _______ _______ _____ _____    ______ ____
ROOT
ATOM      1  O4* UNL     1     -36.303  25.544   5.280  0.00  0.00    -0.332 OA
ATOM      2  C3* UNL     1     -35.203  23.453   5.129  0.00  0.00    +0.171 C 
ATOM      3  C2* UNL     1     -36.184  23.566   3.982  0.00  0.00    +0.188 C 
ATOM      4  C4* UNL     1     -35.035  24.906   5.551  0.00  0.00    +0.176 C 
ATOM      5  C1* UNL     1     -37.103  24.676   4.462  0.00  0.00    +0.246 C 
ENDROOT
BRANCH   5   8
ATOM      6  O   UNL     1     -39.823  24.627   3.609  0.00  0.00    -0.250 OA
ATOM      7  O   UNL     1     -38.878  27.693   0.308  0.00  0.00    -0.268 OA
ATOM      8  N   UNL     1     -37.659  25.435   3.379  0.00  0.00    -0.136 N 
ATOM      9  N   UNL     1     -36.773  26.248   2.716  0.00  0.00    -0.166 NA
ATOM     10  N   UNL     1     -39.414  26.141   1.956  0.00  0.00    -0.233 N 
ATOM     11  C   UNL     1     -39.014  25.351   3.022  0.00  0.00    +0.331 C 
ATOM     12  C   UNL     1     -37.184  26.967   1.730  0.00  0.00    +0.176 C 
ATOM     13  C   UNL     1     -38.587  26.975   1.250  0.00  0.00    +0.274 C 
ATOM     14  H   UNL     1     -40.360  26.100   1.686  0.00  0.00    +0.159 HD
ENDBRANCH   5   8
BRANCH   3  15
ATOM     15  O2* UNL     1     -36.872  22.355   3.743  0.00  0.00    -0.378 OA
ATOM     16  H2* UNL     1     -37.486  22.472   3.001  0.00  0.00    +0.211 HD
ENDBRANCH   3  15
BRANCH   2  17
ATOM     17  O3* UNL     1     -35.793  22.743   6.218  0.00  0.00    -0.379 OA
ATOM     18  H3* UNL     1     -35.742  21.790   6.048  0.00  0.00    +0.211 HD
ENDBRANCH   2  17
BRANCH   4  19
ATOM     19  C5* UNL     1     -33.956  25.641   4.766  0.00  0.00    +0.169 C 
BRANCH  19  20
ATOM     20  O5* UNL     1     -34.385  26.973   4.545  0.00  0.00    -0.379 OA
ATOM     21  H5* UNL     1     -34.552  27.105   3.598  0.00  0.00    +0.211 HD
ENDBRANCH  19  20
ENDBRANCH   4  19
TORSDOF 5
ENDMDL
MODEL 6
REMARK VINA RESULT:      -5.5      1.726      5.010
REMARK  Name = 5901
REMARK  5 active torsions:
REMARK  status: ('A' for Active; 'I' for Inactive)
REMARK    1  A    between atoms: C3*_2  and  O3*_17
REMARK    2  A    between atoms: C2*_3  and  O2*_15
REMARK    3  A    between atoms: C4*_4  and  C5*_19
REMARK    4  A    between atoms: C1*_5  and  N_8
REMARK    5  A    between atoms: C5*_19  and  O5*_20
REMARK                            x       y       z     vdW  Elec       q    Type
REMARK                         _______ _______ _______ _____ _____    ______ ____
ROOT
ATOM      1  O4* UNL     1     -38.222  24.412   1.701  0.00  0.00    -0.332 OA
ATOM      2  C3* UNL     1     -40.434  23.585   1.529  0.00  0.00    +0.171 C 
ATOM      3  C2* UNL     1     -39.593  22.564   2.266  0.00  0.00    +0.188 C 
ATOM      4  C4* UNL     1     -39.598  24.850   1.669  0.00  0.00    +0.176 C 
ATOM      5  C1* UNL     1     -38.184  22.989   1.892  0.00  0.00    +0.246 C 
ENDROOT
BRANCH   5   8
ATOM      6  O   UNL     1     -36.694  20.568   2.115  0.00  0.00    -0.250 OA
ATOM      7  O   UNL     1     -34.628  22.149   5.912  0.00  0.00    -0.268 OA
ATOM      8  N   UNL     1     -37.227  22.681   2.916  0.00  0.00    -0.136 N 
ATOM      9  N   UNL     1     -37.037  23.663   3.856  0.00  0.00    -0.166 NA
ATOM     10  N   UNL     1     -35.642  21.297   3.999  0.00  0.00    -0.233 N 
ATOM     11  C   UNL     1     -36.536  21.460   2.953  0.00  0.00    +0.331 C 
ATOM     12  C   UNL     1     -36.197  23.473   4.813  0.00  0.00    +0.176 C 
ATOM     13  C   UNL     1     -35.400  22.232   4.971  0.00  0.00    +0.274 C 
ATOM     14  H   UNL     1     -35.144  20.449   4.048  0.00  0.00    +0.159 HD
ENDBRANCH   5   8
BRANCH   3  15
ATOM     15  O2* UNL     1     -39.886  21.240   1.870  0.00  0.00    -0.378 OA
ATOM     16  H2* UNL     1     -39.208  20.641   2.218  0.00  0.00    +0.211 HD
ENDBRANCH   3  15
BRANCH   2  17
ATOM     17  O3* UNL     1     -40.507  23.257   0.142  0.00  0.00    -0.379 OA
ATOM     18  H3* UNL     1     -41.424  23.042  -0.092  0.00  0.00    +0.211 HD
ENDBRANCH   2  17
BRANCH   4  19
ATOM     19  C5* UNL     1     -39.881  25.619   2.953  0.00  0.00    +0.169 C 
BRANCH  19  20
ATOM     20  O5* UNL     1     -38.702  26.303   3.340  0.00  0.00    -0.379 OA
ATOM     21  H5* UNL     1     -37.938  25.714   3.236  0.00  0.00    +0.211 HD
ENDBRANCH  19  20
ENDBRANCH   4  19
TORSDOF 5
ENDMDL
MODEL 7
REMARK VINA RESULT:      -5.5      2.109      5.171
REMARK  Name = 5901
REMARK  5 active torsions:
REMARK  status: ('A' for Active; 'I' for Inactive)
REMARK    1  A    between atoms: C3*_2  and  O3*_17
REMARK    2  A    between atoms: C2*_3  and  O2*_15
REMARK    3  A    between atoms: C4*_4  and  C5*_19
REMARK    4  A    between atoms: C1*_5  and  N_8
REMARK    5  A    between atoms: C5*_19  and  O5*_20
REMARK                            x       y       z     vdW  Elec       q    Type
REMARK                         _______ _______ _______ _____ _____    ______ ____
ROOT
ATOM      1  O4* UNL     1     -38.493  22.163   2.588  0.00  0.00    -0.332 OA
ATOM      2  C3* UNL     1     -38.323  22.242   0.227  0.00  0.00    +0.171 C 
ATOM      3  C2* UNL     1     -37.908  23.586   0.786  0.00  0.00    +0.188 C 
ATOM      4  C4* UNL     1     -38.191  21.335   1.443  0.00  0.00    +0.176 C 
ATOM      5  C1* UNL     1     -38.500  23.541   2.185  0.00  0.00    +0.246 C 
ENDROOT
BRANCH   5   8
ATOM      6  O   UNL     1     -38.678  26.359   2.584  0.00  0.00    -0.250 OA
ATOM      7  O   UNL     1     -35.452  26.133   5.859  0.00  0.00    -0.268 OA
ATOM      8  N   UNL     1     -37.736  24.307   3.128  0.00  0.00    -0.136 N 
ATOM      9  N   UNL     1     -36.851  23.587   3.890  0.00  0.00    -0.166 NA
ATOM     10  N   UNL     1     -37.085  26.308   4.211  0.00  0.00    -0.233 N 
ATOM     11  C   UNL     1     -37.886  25.697   3.260  0.00  0.00    +0.331 C 
ATOM     12  C   UNL     1     -36.124  24.192   4.763  0.00  0.00    +0.176 C 
ATOM     13  C   UNL     1     -36.181  25.654   5.007  0.00  0.00    +0.274 C 
ATOM     14  H   UNL     1     -37.170  27.283   4.324  0.00  0.00    +0.159 HD
ENDBRANCH   5   8
BRANCH   3  15
ATOM     15  O2* UNL     1     -38.406  24.663   0.019  0.00  0.00    -0.378 OA
ATOM     16  H2* UNL     1     -39.372  24.696   0.095  0.00  0.00    +0.211 HD
ENDBRANCH   3  15
BRANCH   2  17
ATOM     17  O3* UNL     1     -39.698  22.267  -0.155  0.00  0.00    -0.379 OA
ATOM     18  H3* UNL     1     -40.245  22.472   0.619  0.00  0.00    +0.211 HD
ENDBRANCH   2  17
BRANCH   4  19
ATOM     19  C5* UNL     1     -36.787  20.770   1.623  0.00  0.00    +0.169 C 
BRANCH  19  20
ATOM     20  O5* UNL     1     -36.819  19.798   2.653  0.00  0.00    -0.379 OA
ATOM     21  H5* UNL     1     -36.008  19.267   2.621  0.00  0.00    +0.211 HD
ENDBRANCH  19  20
ENDBRANCH   4  19
TORSDOF 5
ENDMDL
MODEL 8
REMARK VINA RESULT:      -5.5      2.699      4.042
REMARK  Name = 5901
REMARK  5 active torsions:
REMARK  status: ('A' for Active; 'I' for Inactive)
REMARK    1  A    between atoms: C3*_2  and  O3*_17
REMARK    2  A    between atoms: C2*_3  and  O2*_15
REMARK    3  A    between atoms: C4*_4  and  C5*_19
REMARK    4  A    between atoms: C1*_5  and  N_8
REMARK    5  A    between atoms: C5*_19  and  O5*_20
REMARK                            x       y       z     vdW  Elec       q    Type
REMARK                         _______ _______ _______ _____ _____    ______ ____
ROOT
ATOM      1  O4* UNL     1     -34.789  26.114   1.741  0.00  0.00    -0.332 OA
ATOM      2  C3* UNL     1     -34.291  27.532   3.571  0.00  0.00    +0.171 C 
ATOM      3  C2* UNL     1     -35.050  26.327   4.087  0.00  0.00    +0.188 C 
ATOM      4  C4* UNL     1     -33.790  27.041   2.220  0.00  0.00    +0.176 C 
ATOM      5  C1* UNL     1     -35.684  25.788   2.816  0.00  0.00    +0.246 C 
ENDROOT
BRANCH   5   8
ATOM      6  O   UNL     1     -37.784  24.411   4.167  0.00  0.00    -0.250 OA
ATOM      7  O   UNL     1     -36.086  20.371   2.759  0.00  0.00    -0.268 OA
ATOM      8  N   UNL     1     -35.868  24.366   2.856  0.00  0.00    -0.136 N 
ATOM      9  N   UNL     1     -34.931  23.633   2.171  0.00  0.00    -0.166 NA
ATOM     10  N   UNL     1     -36.988  22.383   3.501  0.00  0.00    -0.233 N 
ATOM     11  C   UNL     1     -36.933  23.767   3.548  0.00  0.00    +0.331 C 
ATOM     12  C   UNL     1     -35.017  22.349   2.152  0.00  0.00    +0.176 C 
ATOM     13  C   UNL     1     -36.090  21.588   2.838  0.00  0.00    +0.274 C 
ATOM     14  H   UNL     1     -37.726  21.938   3.979  0.00  0.00    +0.159 HD
ENDBRANCH   5   8
BRANCH   3  15
ATOM     15  O2* UNL     1     -36.005  26.674   5.068  0.00  0.00    -0.378 OA
ATOM     16  H2* UNL     1     -35.613  27.304   5.693  0.00  0.00    +0.211 HD
ENDBRANCH   3  15
BRANCH   2  17
ATOM     17  O3* UNL     1     -35.187  28.619   3.340  0.00  0.00    -0.379 OA
ATOM     18  H3* UNL     1     -34.698  29.455   3.380  0.00  0.00    +0.211 HD
ENDBRANCH   2  17
BRANCH   4  19
ATOM     19  C5* UNL     1     -32.460  26.303   2.304  0.00  0.00    +0.169 C 
BRANCH  19  20
ATOM     20  O5* UNL     1     -31.658  26.925   3.292  0.00  0.00    -0.379 OA
ATOM     21  H5* UNL     1     -30.722  26.828   3.057  0.00  0.00    +0.211 HD
ENDBRANCH  19  20
ENDBRANCH   4  19
TORSDOF 5
ENDMDL
MODEL 9
REMARK VINA RESULT:      -5.5      1.370      2.197
REMARK  Name = 5901
REMARK  5 active torsions:
REMARK  status: ('A' for Active; 'I' for Inactive)
REMARK    1  A    between atoms: C3*_2  and  O3*_17
REMARK    2  A    between atoms: C2*_3  and  O2*_15
REMARK    3  A    between atoms: C4*_4  and  C5*_19
REMARK    4  A    between atoms: C1*_5  and  N_8
REMARK    5  A    between atoms: C5*_19  and  O5*_20
REMARK                            x       y       z     vdW  Elec       q    Type
REMARK                         _______ _______ _______ _____ _____    ______ ____
ROOT
ATOM      1  O4* UNL     1     -35.347  23.400   4.539  0.00  0.00    -0.332 OA
ATOM      2  C3* UNL     1     -34.551  25.471   3.711  0.00  0.00    +0.171 C 
ATOM      3  C2* UNL     1     -35.397  24.816   2.640  0.00  0.00    +0.188 C 
ATOM      4  C4* UNL     1     -34.998  24.735   4.967  0.00  0.00    +0.176 C 
ATOM      5  C1* UNL     1     -35.430  23.370   3.106  0.00  0.00    +0.246 C 
ENDROOT
BRANCH   5   8
ATOM      6  O   UNL     1     -35.747  20.554   2.789  0.00  0.00    -0.250 OA
ATOM      7  O   UNL     1     -40.164  21.147   1.638  0.00  0.00    -0.268 OA
ATOM      8  N   UNL     1     -36.638  22.698   2.722  0.00  0.00    -0.136 N 
ATOM      9  N   UNL     1     -37.718  23.514   2.495  0.00  0.00    -0.166 NA
ATOM     10  N   UNL     1     -37.938  20.787   2.211  0.00  0.00    -0.233 N 
ATOM     11  C   UNL     1     -36.708  21.302   2.588  0.00  0.00    +0.331 C 
ATOM     12  C   UNL     1     -38.844  22.997   2.146  0.00  0.00    +0.176 C 
ATOM     13  C   UNL     1     -39.058  21.539   1.969  0.00  0.00    +0.274 C 
ATOM     14  H   UNL     1     -38.014  19.811   2.110  0.00  0.00    +0.159 HD
ENDBRANCH   5   8
BRANCH   3  15
ATOM     15  O2* UNL     1     -34.837  24.960   1.351  0.00  0.00    -0.378 OA
ATOM     16  H2* UNL     1     -33.952  25.348   1.425  0.00  0.00    +0.211 HD
ENDBRANCH   3  15
BRANCH   2  17
ATOM     17  O3* UNL     1     -33.170  25.180   3.499  0.00  0.00    -0.379 OA
ATOM     18  H3* UNL     1     -33.049  24.822   2.605  0.00  0.00    +0.211 HD
ENDBRANCH   2  17
BRANCH   4  19
ATOM     19  C5* UNL     1     -36.223  25.357   5.625  0.00  0.00    +0.169 C 
BRANCH  19  20
ATOM     20  O5* UNL     1     -36.292  26.722   5.255  0.00  0.00    -0.379 OA
ATOM     21  H5* UNL     1     -37.083  26.871   4.714  0.00  0.00    +0.211 HD
ENDBRANCH  19  20
ENDBRANCH   4  19
TORSDOF 5
ENDMDL
