MODEL 1
REMARK VINA RESULT:      -8.2      0.000      0.000
REMARK  Name = 50990924
REMARK  4 active torsions:
REMARK  status: ('A' for Active; 'I' for Inactive)
REMARK    1  A    between atoms: C_3  and  C_12
REMARK    2  A    between atoms: C_4  and  N_22
REMARK    3  A    between atoms: N_22  and  S_24
REMARK    4  A    between atoms: S_24  and  C_28
REMARK                            x       y       z     vdW  Elec       q    Type
REMARK                         _______ _______ _______ _____ _____    ______ ____
ROOT
ATOM      1 CL   UNL     1     -39.271  22.244   1.870  0.00  0.00    -0.060 Cl
ATOM      2  N   UNL     1     -38.285  24.060   3.414  0.00  0.00    -0.231 NA
ATOM      3  C   UNL     1     -35.947  24.651   3.584  0.00  0.00    +0.020 C 
ATOM      4  C   UNL     1     -36.636  22.916   2.066  0.00  0.00    +0.093 C 
ATOM      5  C   UNL     1     -35.628  23.691   2.630  0.00  0.00    +0.020 C 
ATOM      6  C   UNL     1     -37.279  24.794   3.938  0.00  0.00    +0.100 C 
ATOM      7  C   UNL     1     -37.937  23.138   2.489  0.00  0.00    +0.153 C 
ENDROOT
BRANCH   3  12
ATOM      8  S   UNL     1     -32.001  28.149   3.266  0.00  0.00    -0.038 S 
ATOM      9  O   UNL     1     -29.795  29.604   7.136  0.00  0.00    -0.275 OA
ATOM     10  N   UNL     1     -31.927  27.897   5.832  0.00  0.00    -0.384 NA
ATOM     11  N   UNL     1     -30.339  29.412   4.844  0.00  0.00    -0.254 N 
ATOM     12  C   UNL     1     -34.920  25.473   4.189  0.00  0.00    -0.002 C 
ATOM     13  C   UNL     1     -33.131  27.068   3.991  0.00  0.00    +0.059 C 
ATOM     14  C   UNL     1     -34.117  26.279   3.377  0.00  0.00    +0.009 C 
ATOM     15  C   UNL     1     -32.939  27.065   5.375  0.00  0.00    +0.122 C 
ATOM     16  C   UNL     1     -34.748  25.454   5.568  0.00  0.00    -0.019 C 
ATOM     17  C   UNL     1     -33.765  26.242   6.172  0.00  0.00    +0.086 C 
ATOM     18  C   UNL     1     -31.371  28.511   4.815  0.00  0.00    +0.217 C 
ATOM     19  C   UNL     1     -29.618  29.906   5.960  0.00  0.00    +0.229 C 
ATOM     20  C   UNL     1     -28.546  30.889   5.568  0.00  0.00    +0.095 C 
ATOM     21  H   UNL     1     -30.060  29.766   3.969  0.00  0.00    +0.158 HD
ENDBRANCH   3  12
BRANCH   4  22
ATOM     22  N   UNL     1     -36.308  21.931   1.085  0.00  0.00    -0.213 N 
ATOM     23  H   UNL     1     -36.291  22.163   0.128  0.00  0.00    +0.174 HD
BRANCH  22  24
ATOM     24  S   UNL     1     -35.945  20.331   1.607  0.00  0.00    +0.074 S 
ATOM     25  O   UNL     1     -36.739  19.391   0.837  0.00  0.00    -0.150 OA
ATOM     26  O   UNL     1     -35.956  20.265   3.056  0.00  0.00    -0.150 OA
BRANCH  24  28
ATOM     27  F   UNL     1     -30.355  19.716  -0.176  0.00  0.00    -0.204 F 
ATOM     28  C   UNL     1     -34.268  20.145   1.072  0.00  0.00    +0.125 C 
ATOM     29  C   UNL     1     -33.548  19.000   1.415  0.00  0.00    +0.022 C 
ATOM     30  C   UNL     1     -33.665  21.145   0.308  0.00  0.00    +0.022 C 
ATOM     31  C   UNL     1     -32.227  18.855   0.993  0.00  0.00    +0.031 C 
ATOM     32  C   UNL     1     -32.343  21.000  -0.114  0.00  0.00    +0.031 C 
ATOM     33  C   UNL     1     -31.624  19.855   0.229  0.00  0.00    +0.140 C 
ENDBRANCH  24  28
ENDBRANCH  22  24
ENDBRANCH   4  22
TORSDOF 4
ENDMDL
MODEL 2
REMARK VINA RESULT:      -7.9      1.561      1.807
REMARK  Name = 50990924
REMARK  4 active torsions:
REMARK  status: ('A' for Active; 'I' for Inactive)
REMARK    1  A    between atoms: C_3  and  C_12
REMARK    2  A    between atoms: C_4  and  N_22
REMARK    3  A    between atoms: N_22  and  S_24
REMARK    4  A    between atoms: S_24  and  C_28
REMARK                            x       y       z     vdW  Elec       q    Type
REMARK                         _______ _______ _______ _____ _____    ______ ____
ROOT
ATOM      1 CL   UNL     1     -39.954  21.375   1.563  0.00  0.00    -0.060 Cl
ATOM      2  N   UNL     1     -39.032  23.560   2.578  0.00  0.00    -0.231 NA
ATOM      3  C   UNL     1     -36.769  23.911   3.354  0.00  0.00    +0.020 C 
ATOM      4  C   UNL     1     -37.404  21.778   2.440  0.00  0.00    +0.093 C 
ATOM      5  C   UNL     1     -36.440  22.606   3.004  0.00  0.00    +0.020 C 
ATOM      6  C   UNL     1     -38.068  24.335   3.122  0.00  0.00    +0.100 C 
ATOM      7  C   UNL     1     -38.674  22.298   2.250  0.00  0.00    +0.153 C 
ENDROOT
BRANCH   3  12
ATOM      8  S   UNL     1     -33.221  27.810   3.008  0.00  0.00    -0.038 S 
ATOM      9  O   UNL     1     -30.896  29.254   6.812  0.00  0.00    -0.275 OA
ATOM     10  N   UNL     1     -32.937  27.416   5.541  0.00  0.00    -0.384 NA
ATOM     11  N   UNL     1     -31.582  29.141   4.552  0.00  0.00    -0.254 N 
ATOM     12  C   UNL     1     -35.788  24.797   3.943  0.00  0.00    -0.002 C 
ATOM     13  C   UNL     1     -34.183  26.576   3.732  0.00  0.00    +0.059 C 
ATOM     14  C   UNL     1     -35.129  25.728   3.135  0.00  0.00    +0.009 C 
ATOM     15  C   UNL     1     -33.893  26.512   5.098  0.00  0.00    +0.122 C 
ATOM     16  C   UNL     1     -35.515  24.715   5.304  0.00  0.00    -0.019 C 
ATOM     17  C   UNL     1     -34.573  25.563   5.892  0.00  0.00    +0.086 C 
ATOM     18  C   UNL     1     -32.519  28.143   4.532  0.00  0.00    +0.217 C 
ATOM     19  C   UNL     1     -30.834  29.640   5.649  0.00  0.00    +0.229 C 
ATOM     20  C   UNL     1     -29.895  30.750   5.252  0.00  0.00    +0.095 C 
ATOM     21  H   UNL     1     -31.403  29.573   3.686  0.00  0.00    +0.158 HD
ENDBRANCH   3  12
BRANCH   4  22
ATOM     22  N   UNL     1     -37.065  20.438   2.080  0.00  0.00    -0.213 N 
ATOM     23  H   UNL     1     -37.008  19.733   2.765  0.00  0.00    +0.174 HD
BRANCH  22  24
ATOM     24  S   UNL     1     -36.758  20.077   0.424  0.00  0.00    +0.074 S 
ATOM     25  O   UNL     1     -36.423  21.306  -0.272  0.00  0.00    -0.150 OA
ATOM     26  O   UNL     1     -37.800  19.214  -0.099  0.00  0.00    -0.150 OA
BRANCH  24  28
ATOM     27  F   UNL     1     -31.799  16.902   0.776  0.00  0.00    -0.204 F 
ATOM     28  C   UNL     1     -35.271  19.125   0.529  0.00  0.00    +0.125 C 
ATOM     29  C   UNL     1     -35.105  17.996  -0.276  0.00  0.00    +0.022 C 
ATOM     30  C   UNL     1     -34.263  19.501   1.417  0.00  0.00    +0.022 C 
ATOM     31  C   UNL     1     -33.933  17.246  -0.193  0.00  0.00    +0.031 C 
ATOM     32  C   UNL     1     -33.089  18.750   1.500  0.00  0.00    +0.031 C 
ATOM     33  C   UNL     1     -32.925  17.623   0.695  0.00  0.00    +0.140 C 
ENDBRANCH  24  28
ENDBRANCH  22  24
ENDBRANCH   4  22
TORSDOF 4
ENDMDL
MODEL 3
REMARK VINA RESULT:      -7.7      5.549      8.401
REMARK  Name = 50990924
REMARK  4 active torsions:
REMARK  status: ('A' for Active; 'I' for Inactive)
REMARK    1  A    between atoms: C_3  and  C_12
REMARK    2  A    between atoms: C_4  and  N_22
REMARK    3  A    between atoms: N_22  and  S_24
REMARK    4  A    between atoms: S_24  and  C_28
REMARK                            x       y       z     vdW  Elec       q    Type
REMARK                         _______ _______ _______ _____ _____    ______ ____
ROOT
ATOM      1 CL   UNL     1     -38.191  19.485  -0.377  0.00  0.00    -0.060 Cl
ATOM      2  N   UNL     1     -39.743  21.545  -0.417  0.00  0.00    -0.231 NA
ATOM      3  C   UNL     1     -39.946  23.194   1.339  0.00  0.00    +0.020 C 
ATOM      4  C   UNL     1     -38.424  21.350   1.599  0.00  0.00    +0.093 C 
ATOM      5  C   UNL     1     -39.000  22.513   2.097  0.00  0.00    +0.020 C 
ATOM      6  C   UNL     1     -40.280  22.672   0.099  0.00  0.00    +0.100 C 
ATOM      7  C   UNL     1     -38.827  20.911   0.348  0.00  0.00    +0.153 C 
ENDROOT
BRANCH   3  12
ATOM      8  S   UNL     1     -43.680  26.927   1.129  0.00  0.00    -0.038 S 
ATOM      9  O   UNL     1     -43.701  30.445   4.224  0.00  0.00    -0.275 OA
ATOM     10  N   UNL     1     -42.437  27.907   3.166  0.00  0.00    -0.384 NA
ATOM     11  N   UNL     1     -44.379  29.104   2.400  0.00  0.00    -0.254 N 
ATOM     12  C   UNL     1     -40.564  24.408   1.829  0.00  0.00    -0.002 C 
ATOM     13  C   UNL     1     -42.286  26.082   1.691  0.00  0.00    +0.059 C 
ATOM     14  C   UNL     1     -41.706  24.903   1.194  0.00  0.00    +0.009 C 
ATOM     15  C   UNL     1     -41.753  26.759   2.793  0.00  0.00    +0.122 C 
ATOM     16  C   UNL     1     -40.017  25.064   2.925  0.00  0.00    -0.019 C 
ATOM     17  C   UNL     1     -40.599  26.236   3.415  0.00  0.00    +0.086 C 
ATOM     18  C   UNL     1     -43.461  28.089   2.365  0.00  0.00    +0.217 C 
ATOM     19  C   UNL     1     -44.462  30.202   3.293  0.00  0.00    +0.229 C 
ATOM     20  C   UNL     1     -45.628  31.107   2.991  0.00  0.00    +0.095 C 
ATOM     21  H   UNL     1     -45.079  29.066   1.709  0.00  0.00    +0.158 HD
ENDBRANCH   3  12
BRANCH   4  22
ATOM     22  N   UNL     1     -37.452  20.651   2.378  0.00  0.00    -0.213 N 
ATOM     23  H   UNL     1     -37.717  19.896   2.952  0.00  0.00    +0.174 HD
BRANCH  22  24
ATOM     24  S   UNL     1     -35.806  21.153   2.294  0.00  0.00    +0.074 S 
ATOM     25  O   UNL     1     -35.551  21.714   0.980  0.00  0.00    -0.150 OA
ATOM     26  O   UNL     1     -34.941  20.111   2.813  0.00  0.00    -0.150 OA
BRANCH  24  28
ATOM     27  F   UNL     1     -35.706  25.640   6.122  0.00  0.00    -0.204 F 
ATOM     28  C   UNL     1     -35.777  22.499   3.441  0.00  0.00    +0.125 C 
ATOM     29  C   UNL     1     -35.998  23.803   2.995  0.00  0.00    +0.022 C 
ATOM     30  C   UNL     1     -35.532  22.258   4.794  0.00  0.00    +0.022 C 
ATOM     31  C   UNL     1     -35.975  24.864   3.900  0.00  0.00    +0.031 C 
ATOM     32  C   UNL     1     -35.509  23.319   5.699  0.00  0.00    +0.031 C 
ATOM     33  C   UNL     1     -35.730  24.622   5.253  0.00  0.00    +0.140 C 
ENDBRANCH  24  28
ENDBRANCH  22  24
ENDBRANCH   4  22
TORSDOF 4
ENDMDL
MODEL 4
REMARK VINA RESULT:      -7.5      4.667      9.592
REMARK  Name = 50990924
REMARK  4 active torsions:
REMARK  status: ('A' for Active; 'I' for Inactive)
REMARK    1  A    between atoms: C_3  and  C_12
REMARK    2  A    between atoms: C_4  and  N_22
REMARK    3  A    between atoms: N_22  and  S_24
REMARK    4  A    between atoms: S_24  and  C_28
REMARK                            x       y       z     vdW  Elec       q    Type
REMARK                         _______ _______ _______ _____ _____    ______ ____
ROOT
ATOM      1 CL   UNL     1     -39.854  21.822   0.906  0.00  0.00    -0.060 Cl
ATOM      2  N   UNL     1     -38.240  20.026  -0.003  0.00  0.00    -0.231 NA
ATOM      3  C   UNL     1     -36.028  19.553   0.851  0.00  0.00    +0.020 C 
ATOM      4  C   UNL     1     -37.358  21.283   1.864  0.00  0.00    +0.093 C 
ATOM      5  C   UNL     1     -36.178  20.549   1.810  0.00  0.00    +0.020 C 
ATOM      6  C   UNL     1     -37.081  19.333  -0.024  0.00  0.00    +0.100 C 
ATOM      7  C   UNL     1     -38.350  20.986   0.943  0.00  0.00    +0.153 C 
ENDROOT
BRANCH   3  12
ATOM      8  S   UNL     1     -33.275  15.404  -0.914  0.00  0.00    -0.038 S 
ATOM      9  O   UNL     1     -28.786  14.837   0.303  0.00  0.00    -0.275 OA
ATOM     10  N   UNL     1     -31.349  16.440   0.453  0.00  0.00    -0.384 NA
ATOM     11  N   UNL     1     -30.868  14.398  -0.726  0.00  0.00    -0.254 N 
ATOM     12  C   UNL     1     -34.813  18.772   0.769  0.00  0.00    -0.002 C 
ATOM     13  C   UNL     1     -33.603  16.867  -0.062  0.00  0.00    +0.059 C 
ATOM     14  C   UNL     1     -34.796  17.604   0.002  0.00  0.00    +0.009 C 
ATOM     15  C   UNL     1     -32.448  17.271   0.614  0.00  0.00    +0.122 C 
ATOM     16  C   UNL     1     -33.676  19.194   1.450  0.00  0.00    -0.019 C 
ATOM     17  C   UNL     1     -32.492  18.456   1.381  0.00  0.00    +0.086 C 
ATOM     18  C   UNL     1     -31.669  15.434  -0.326  0.00  0.00    +0.217 C 
ATOM     19  C   UNL     1     -29.509  14.148  -0.409  0.00  0.00    +0.229 C 
ATOM     20  C   UNL     1     -28.987  12.888  -1.051  0.00  0.00    +0.095 C 
ATOM     21  H   UNL     1     -31.294  13.735  -1.316  0.00  0.00    +0.158 HD
ENDBRANCH   3  12
BRANCH   4  22
ATOM     22  N   UNL     1     -37.513  22.306   2.850  0.00  0.00    -0.213 N 
ATOM     23  H   UNL     1     -37.711  22.074   3.786  0.00  0.00    +0.174 HD
BRANCH  22  24
ATOM     24  S   UNL     1     -37.344  23.951   2.370  0.00  0.00    +0.074 S 
ATOM     25  O   UNL     1     -38.619  24.624   2.536  0.00  0.00    -0.150 OA
ATOM     26  O   UNL     1     -36.648  24.031   1.100  0.00  0.00    -0.150 OA
BRANCH  24  28
ATOM     27  F   UNL     1     -33.736  26.067   6.531  0.00  0.00    -0.204 F 
ATOM     28  C   UNL     1     -36.263  24.585   3.619  0.00  0.00    +0.125 C 
ATOM     29  C   UNL     1     -36.762  25.427   4.614  0.00  0.00    +0.022 C 
ATOM     30  C   UNL     1     -34.910  24.245   3.609  0.00  0.00    +0.022 C 
ATOM     31  C   UNL     1     -35.909  25.927   5.598  0.00  0.00    +0.031 C 
ATOM     32  C   UNL     1     -34.056  24.745   4.593  0.00  0.00    +0.031 C 
ATOM     33  C   UNL     1     -34.556  25.586   5.587  0.00  0.00    +0.140 C 
ENDBRANCH  24  28
ENDBRANCH  22  24
ENDBRANCH   4  22
TORSDOF 4
ENDMDL
MODEL 5
REMARK VINA RESULT:      -7.4      3.537      5.469
REMARK  Name = 50990924
REMARK  4 active torsions:
REMARK  status: ('A' for Active; 'I' for Inactive)
REMARK    1  A    between atoms: C_3  and  C_12
REMARK    2  A    between atoms: C_4  and  N_22
REMARK    3  A    between atoms: N_22  and  S_24
REMARK    4  A    between atoms: S_24  and  C_28
REMARK                            x       y       z     vdW  Elec       q    Type
REMARK                         _______ _______ _______ _____ _____    ______ ____
ROOT
ATOM      1 CL   UNL     1     -37.217  19.096   0.450  0.00  0.00    -0.060 Cl
ATOM      2  N   UNL     1     -35.325  20.623   1.314  0.00  0.00    -0.231 NA
ATOM      3  C   UNL     1     -35.617  22.599   2.676  0.00  0.00    +0.020 C 
ATOM      4  C   UNL     1     -37.538  21.326   1.987  0.00  0.00    +0.093 C 
ATOM      5  C   UNL     1     -36.994  22.408   2.669  0.00  0.00    +0.020 C 
ATOM      6  C   UNL     1     -34.833  21.685   1.988  0.00  0.00    +0.100 C 
ATOM      7  C   UNL     1     -36.668  20.470   1.330  0.00  0.00    +0.153 C 
ENDROOT
BRANCH   3  12
ATOM      8  S   UNL     1     -32.964  27.168   2.744  0.00  0.00    -0.038 S 
ATOM      9  O   UNL     1     -32.037  29.319   6.803  0.00  0.00    -0.275 OA
ATOM     10  N   UNL     1     -33.267  26.998   5.300  0.00  0.00    -0.384 NA
ATOM     11  N   UNL     1     -32.083  28.922   4.473  0.00  0.00    -0.254 N 
ATOM     12  C   UNL     1     -35.020  23.716   3.377  0.00  0.00    -0.002 C 
ATOM     13  C   UNL     1     -33.811  25.795   3.354  0.00  0.00    +0.059 C 
ATOM     14  C   UNL     1     -34.378  24.722   2.648  0.00  0.00    +0.009 C 
ATOM     15  C   UNL     1     -33.874  25.878   4.748  0.00  0.00    +0.122 C 
ATOM     16  C   UNL     1     -35.096  23.778   4.764  0.00  0.00    -0.019 C 
ATOM     17  C   UNL     1     -34.529  24.849   5.459  0.00  0.00    +0.086 C 
ATOM     18  C   UNL     1     -32.760  27.739   4.343  0.00  0.00    +0.217 C 
ATOM     19  C   UNL     1     -31.759  29.640   5.652  0.00  0.00    +0.229 C 
ATOM     20  C   UNL     1     -30.994  30.907   5.366  0.00  0.00    +0.095 C 
ATOM     21  H   UNL     1     -31.778  29.331   3.631  0.00  0.00    +0.158 HD
ENDBRANCH   3  12
BRANCH   4  22
ATOM     22  N   UNL     1     -38.953  21.129   1.981  0.00  0.00    -0.213 N 
ATOM     23  H   UNL     1     -39.395  20.643   2.715  0.00  0.00    +0.174 HD
BRANCH  22  24
ATOM     24  S   UNL     1     -39.872  21.758   0.668  0.00  0.00    +0.074 S 
ATOM     25  O   UNL     1     -41.067  20.951   0.499  0.00  0.00    -0.150 OA
ATOM     26  O   UNL     1     -39.007  22.010  -0.469  0.00  0.00    -0.150 OA
BRANCH  24  28
ATOM     27  F   UNL     1     -41.612  26.978   2.794  0.00  0.00    -0.204 F 
ATOM     28  C   UNL     1     -40.395  23.323   1.305  0.00  0.00    +0.125 C 
ATOM     29  C   UNL     1     -41.392  24.047   0.649  0.00  0.00    +0.022 C 
ATOM     30  C   UNL     1     -39.810  23.835   2.464  0.00  0.00    +0.022 C 
ATOM     31  C   UNL     1     -41.803  25.281   1.152  0.00  0.00    +0.031 C 
ATOM     32  C   UNL     1     -40.222  25.070   2.967  0.00  0.00    +0.031 C 
ATOM     33  C   UNL     1     -41.218  25.793   2.311  0.00  0.00    +0.140 C 
ENDBRANCH  24  28
ENDBRANCH  22  24
ENDBRANCH   4  22
TORSDOF 4
ENDMDL
MODEL 6
REMARK VINA RESULT:      -7.4      1.912      2.471
REMARK  Name = 50990924
REMARK  4 active torsions:
REMARK  status: ('A' for Active; 'I' for Inactive)
REMARK    1  A    between atoms: C_3  and  C_12
REMARK    2  A    between atoms: C_4  and  N_22
REMARK    3  A    between atoms: N_22  and  S_24
REMARK    4  A    between atoms: S_24  and  C_28
REMARK                            x       y       z     vdW  Elec       q    Type
REMARK                         _______ _______ _______ _____ _____    ______ ____
ROOT
ATOM      1 CL   UNL     1     -39.568  20.298  -0.051  0.00  0.00    -0.060 Cl
ATOM      2  N   UNL     1     -38.796  22.501   1.047  0.00  0.00    -0.231 NA
ATOM      3  C   UNL     1     -36.752  22.813   2.300  0.00  0.00    +0.020 C 
ATOM      4  C   UNL     1     -37.264  20.658   1.362  0.00  0.00    +0.093 C 
ATOM      5  C   UNL     1     -36.413  21.480   2.092  0.00  0.00    +0.020 C 
ATOM      6  C   UNL     1     -37.944  23.270   1.760  0.00  0.00    +0.100 C 
ATOM      7  C   UNL     1     -38.434  21.211   0.866  0.00  0.00    +0.153 C 
ENDROOT
BRANCH   3  12
ATOM      8  S   UNL     1     -34.371  27.468   3.056  0.00  0.00    -0.038 S 
ATOM      9  O   UNL     1     -31.604  28.147   6.776  0.00  0.00    -0.275 OA
ATOM     10  N   UNL     1     -33.414  26.334   5.165  0.00  0.00    -0.384 NA
ATOM     11  N   UNL     1     -32.761  28.616   4.769  0.00  0.00    -0.254 N 
ATOM     12  C   UNL     1     -35.888  23.695   3.055  0.00  0.00    -0.002 C 
ATOM     13  C   UNL     1     -34.828  25.833   3.355  0.00  0.00    +0.059 C 
ATOM     14  C   UNL     1     -35.669  24.998   2.601  0.00  0.00    +0.009 C 
ATOM     15  C   UNL     1     -34.215  25.394   4.532  0.00  0.00    +0.122 C 
ATOM     16  C   UNL     1     -35.289  23.237   4.224  0.00  0.00    -0.019 C 
ATOM     17  C   UNL     1     -34.454  24.073   4.969  0.00  0.00    +0.086 C 
ATOM     18  C   UNL     1     -33.424  27.453   4.480  0.00  0.00    +0.217 C 
ATOM     19  C   UNL     1     -31.909  28.909   5.864  0.00  0.00    +0.229 C 
ATOM     20  C   UNL     1     -31.370  30.315   5.818  0.00  0.00    +0.095 C 
ATOM     21  H   UNL     1     -32.896  29.351   4.129  0.00  0.00    +0.158 HD
ENDBRANCH   3  12
BRANCH   4  22
ATOM     22  N   UNL     1     -36.916  19.289   1.148  0.00  0.00    -0.213 N 
ATOM     23  H   UNL     1     -37.088  18.613   1.843  0.00  0.00    +0.174 HD
BRANCH  22  24
ATOM     24  S   UNL     1     -36.188  18.843  -0.348  0.00  0.00    +0.074 S 
ATOM     25  O   UNL     1     -36.223  19.981  -1.247  0.00  0.00    -0.150 OA
ATOM     26  O   UNL     1     -36.703  17.560  -0.788  0.00  0.00    -0.150 OA
BRANCH  24  28
ATOM     27  F   UNL     1     -30.554  18.078   1.225  0.00  0.00    -0.204 F 
ATOM     28  C   UNL     1     -34.498  18.612   0.123  0.00  0.00    +0.125 C 
ATOM     29  C   UNL     1     -33.956  17.327   0.176  0.00  0.00    +0.022 C 
ATOM     30  C   UNL     1     -33.707  19.716   0.444  0.00  0.00    +0.022 C 
ATOM     31  C   UNL     1     -32.624  17.147   0.547  0.00  0.00    +0.031 C 
ATOM     32  C   UNL     1     -32.374  19.535   0.816  0.00  0.00    +0.031 C 
ATOM     33  C   UNL     1     -31.833  18.251   0.868  0.00  0.00    +0.140 C 
ENDBRANCH  24  28
ENDBRANCH  22  24
ENDBRANCH   4  22
TORSDOF 4
ENDMDL
MODEL 7
REMARK VINA RESULT:      -7.3      6.908      9.405
REMARK  Name = 50990924
REMARK  4 active torsions:
REMARK  status: ('A' for Active; 'I' for Inactive)
REMARK    1  A    between atoms: C_3  and  C_12
REMARK    2  A    between atoms: C_4  and  N_22
REMARK    3  A    between atoms: N_22  and  S_24
REMARK    4  A    between atoms: S_24  and  C_28
REMARK                            x       y       z     vdW  Elec       q    Type
REMARK                         _______ _______ _______ _____ _____    ______ ____
ROOT
ATOM      1 CL   UNL     1     -39.603  21.739   1.085  0.00  0.00    -0.060 Cl
ATOM      2  N   UNL     1     -41.371  23.587   0.752  0.00  0.00    -0.231 NA
ATOM      3  C   UNL     1     -41.462  25.686   1.949  0.00  0.00    +0.020 C 
ATOM      4  C   UNL     1     -39.711  24.108   2.430  0.00  0.00    +0.093 C 
ATOM      5  C   UNL     1     -40.326  25.332   2.669  0.00  0.00    +0.020 C 
ATOM      6  C   UNL     1     -41.940  24.786   1.010  0.00  0.00    +0.100 C 
ATOM      7  C   UNL     1     -40.269  23.278   1.470  0.00  0.00    +0.153 C 
ENDROOT
BRANCH   3  12
ATOM      8  S   UNL     1     -44.197  29.031   4.989  0.00  0.00    -0.038 S 
ATOM      9  O   UNL     1     -45.433  33.250   3.368  0.00  0.00    -0.275 OA
ATOM     10  N   UNL     1     -44.062  30.587   2.936  0.00  0.00    -0.384 NA
ATOM     11  N   UNL     1     -45.224  31.434   4.866  0.00  0.00    -0.254 N 
ATOM     12  C   UNL     1     -42.124  26.953   2.174  0.00  0.00    -0.002 C 
ATOM     13  C   UNL     1     -43.368  28.439   3.598  0.00  0.00    +0.059 C 
ATOM     14  C   UNL     1     -42.735  27.201   3.406  0.00  0.00    +0.009 C 
ATOM     15  C   UNL     1     -43.400  29.415   2.597  0.00  0.00    +0.122 C 
ATOM     16  C   UNL     1     -42.143  27.908   1.164  0.00  0.00    -0.019 C 
ATOM     17  C   UNL     1     -42.775  29.139   1.361  0.00  0.00    +0.086 C 
ATOM     18  C   UNL     1     -44.518  30.494   4.163  0.00  0.00    +0.217 C 
ATOM     19  C   UNL     1     -45.640  32.726   4.457  0.00  0.00    +0.229 C 
ATOM     20  C   UNL     1     -46.406  33.454   5.532  0.00  0.00    +0.095 C 
ATOM     21  H   UNL     1     -45.479  31.176   5.781  0.00  0.00    +0.158 HD
ENDBRANCH   3  12
BRANCH   4  22
ATOM     22  N   UNL     1     -38.544  23.745   3.169  0.00  0.00    -0.213 N 
ATOM     23  H   UNL     1     -38.617  23.424   4.097  0.00  0.00    +0.174 HD
BRANCH  22  24
ATOM     24  S   UNL     1     -37.006  23.879   2.407  0.00  0.00    +0.074 S 
ATOM     25  O   UNL     1     -37.099  24.837   1.321  0.00  0.00    -0.150 OA
ATOM     26  O   UNL     1     -36.457  22.559   2.158  0.00  0.00    -0.150 OA
BRANCH  24  28
ATOM     27  F   UNL     1     -33.770  26.402   6.646  0.00  0.00    -0.204 F 
ATOM     28  C   UNL     1     -36.034  24.636   3.678  0.00  0.00    +0.125 C 
ATOM     29  C   UNL     1     -34.642  24.554   3.635  0.00  0.00    +0.022 C 
ATOM     30  C   UNL     1     -36.661  25.314   4.724  0.00  0.00    +0.022 C 
ATOM     31  C   UNL     1     -33.877  25.151   4.637  0.00  0.00    +0.031 C 
ATOM     32  C   UNL     1     -35.895  25.911   5.726  0.00  0.00    +0.031 C 
ATOM     33  C   UNL     1     -34.504  25.829   5.683  0.00  0.00    +0.140 C 
ENDBRANCH  24  28
ENDBRANCH  22  24
ENDBRANCH   4  22
TORSDOF 4
ENDMDL
MODEL 8
REMARK VINA RESULT:      -7.1      1.849      2.173
REMARK  Name = 50990924
REMARK  4 active torsions:
REMARK  status: ('A' for Active; 'I' for Inactive)
REMARK    1  A    between atoms: C_3  and  C_12
REMARK    2  A    between atoms: C_4  and  N_22
REMARK    3  A    between atoms: N_22  and  S_24
REMARK    4  A    between atoms: S_24  and  C_28
REMARK                            x       y       z     vdW  Elec       q    Type
REMARK                         _______ _______ _______ _____ _____    ______ ____
ROOT
ATOM      1 CL   UNL     1     -40.864  24.041   1.523  0.00  0.00    -0.060 Cl
ATOM      2  N   UNL     1     -39.222  25.825   2.405  0.00  0.00    -0.231 NA
ATOM      3  C   UNL     1     -37.039  25.391   3.348  0.00  0.00    +0.020 C 
ATOM      4  C   UNL     1     -38.400  23.559   2.587  0.00  0.00    +0.093 C 
ATOM      5  C   UNL     1     -37.220  24.026   3.155  0.00  0.00    +0.020 C 
ATOM      6  C   UNL     1     -38.062  26.241   2.958  0.00  0.00    +0.100 C 
ATOM      7  C   UNL     1     -39.362  24.492   2.233  0.00  0.00    +0.153 C 
ENDROOT
BRANCH   3  12
ATOM      8  S   UNL     1     -32.837  28.593   3.287  0.00  0.00    -0.038 S 
ATOM      9  O   UNL     1     -29.756  28.541   6.818  0.00  0.00    -0.275 OA
ATOM     10  N   UNL     1     -32.293  27.483   5.551  0.00  0.00    -0.384 NA
ATOM     11  N   UNL     1     -30.758  29.163   4.770  0.00  0.00    -0.254 N 
ATOM     12  C   UNL     1     -35.822  25.908   3.937  0.00  0.00    -0.002 C 
ATOM     13  C   UNL     1     -33.926  27.386   3.862  0.00  0.00    +0.059 C 
ATOM     14  C   UNL     1     -35.102  26.901   3.267  0.00  0.00    +0.009 C 
ATOM     15  C   UNL     1     -33.469  26.905   5.092  0.00  0.00    +0.122 C 
ATOM     16  C   UNL     1     -35.386  25.415   5.161  0.00  0.00    -0.019 C 
ATOM     17  C   UNL     1     -34.216  25.902   5.748  0.00  0.00    +0.086 C 
ATOM     18  C   UNL     1     -31.877  28.378   4.686  0.00  0.00    +0.217 C 
ATOM     19  C   UNL     1     -29.778  29.213   5.793  0.00  0.00    +0.229 C 
ATOM     20  C   UNL     1     -28.692  30.218   5.505  0.00  0.00    +0.095 C 
ATOM     21  H   UNL     1     -30.615  29.779   4.015  0.00  0.00    +0.158 HD
ENDBRANCH   3  12
BRANCH   4  22
ATOM     22  N   UNL     1     -38.585  22.157   2.388  0.00  0.00    -0.213 N 
ATOM     23  H   UNL     1     -38.890  21.582   3.127  0.00  0.00    +0.174 HD
BRANCH  22  24
ATOM     24  S   UNL     1     -38.263  21.490   0.833  0.00  0.00    +0.074 S 
ATOM     25  O   UNL     1     -38.039  22.573  -0.107  0.00  0.00    -0.150 OA
ATOM     26  O   UNL     1     -39.234  20.458   0.524  0.00  0.00    -0.150 OA
BRANCH  24  28
ATOM     27  F   UNL     1     -33.054  18.860   1.695  0.00  0.00    -0.204 F 
ATOM     28  C   UNL     1     -36.700  20.702   1.091  0.00  0.00    +0.125 C 
ATOM     29  C   UNL     1     -36.144  19.908   0.086  0.00  0.00    +0.022 C 
ATOM     30  C   UNL     1     -36.024  20.872   2.299  0.00  0.00    +0.022 C 
ATOM     31  C   UNL     1     -34.913  19.287   0.290  0.00  0.00    +0.031 C 
ATOM     32  C   UNL     1     -34.791  20.251   2.503  0.00  0.00    +0.031 C 
ATOM     33  C   UNL     1     -34.236  19.457   1.499  0.00  0.00    +0.140 C 
ENDBRANCH  24  28
ENDBRANCH  22  24
ENDBRANCH   4  22
TORSDOF 4
ENDMDL
MODEL 9
REMARK VINA RESULT:      -7.1      3.012      3.397
REMARK  Name = 50990924
REMARK  4 active torsions:
REMARK  status: ('A' for Active; 'I' for Inactive)
REMARK    1  A    between atoms: C_3  and  C_12
REMARK    2  A    between atoms: C_4  and  N_22
REMARK    3  A    between atoms: N_22  and  S_24
REMARK    4  A    between atoms: S_24  and  C_28
REMARK                            x       y       z     vdW  Elec       q    Type
REMARK                         _______ _______ _______ _____ _____    ______ ____
ROOT
ATOM      1 CL   UNL     1     -39.948  21.678   1.662  0.00  0.00    -0.060 Cl
ATOM      2  N   UNL     1     -38.948  23.847   2.639  0.00  0.00    -0.231 NA
ATOM      3  C   UNL     1     -36.686  24.119   3.447  0.00  0.00    +0.020 C 
ATOM      4  C   UNL     1     -37.398  21.993   2.574  0.00  0.00    +0.093 C 
ATOM      5  C   UNL     1     -36.408  22.793   3.135  0.00  0.00    +0.020 C 
ATOM      6  C   UNL     1     -37.961  24.593   3.181  0.00  0.00    +0.100 C 
ATOM      7  C   UNL     1     -38.641  22.563   2.349  0.00  0.00    +0.153 C 
ENDROOT
BRANCH   3  12
ATOM      8  S   UNL     1     -32.889  27.772   3.051  0.00  0.00    -0.038 S 
ATOM      9  O   UNL     1     -30.641  29.287   6.874  0.00  0.00    -0.275 OA
ATOM     10  N   UNL     1     -32.738  27.506   5.613  0.00  0.00    -0.384 NA
ATOM     11  N   UNL     1     -31.237  29.088   4.595  0.00  0.00    -0.254 N 
ATOM     12  C   UNL     1     -35.677  24.977   4.031  0.00  0.00    -0.002 C 
ATOM     13  C   UNL     1     -33.957  26.642   3.797  0.00  0.00    +0.059 C 
ATOM     14  C   UNL     1     -34.927  25.819   3.204  0.00  0.00    +0.009 C 
ATOM     15  C   UNL     1     -33.728  26.638   5.177  0.00  0.00    +0.122 C 
ATOM     16  C   UNL     1     -35.467  24.956   5.405  0.00  0.00    -0.019 C 
ATOM     17  C   UNL     1     -34.500  25.778   5.988  0.00  0.00    +0.086 C 
ATOM     18  C   UNL     1     -32.233  28.148   4.586  0.00  0.00    +0.217 C 
ATOM     19  C   UNL     1     -30.506  29.603   5.696  0.00  0.00    +0.229 C 
ATOM     20  C   UNL     1     -29.484  30.630   5.282  0.00  0.00    +0.095 C 
ATOM     21  H   UNL     1     -30.995  29.459   3.716  0.00  0.00    +0.158 HD
ENDBRANCH   3  12
BRANCH   4  22
ATOM     22  N   UNL     1     -37.112  20.631   2.253  0.00  0.00    -0.213 N 
ATOM     23  H   UNL     1     -37.400  19.904   2.851  0.00  0.00    +0.174 HD
BRANCH  22  24
ATOM     24  S   UNL     1     -36.253  20.284   0.801  0.00  0.00    +0.074 S 
ATOM     25  O   UNL     1     -35.073  19.504   1.125  0.00  0.00    -0.150 OA
ATOM     26  O   UNL     1     -36.124  21.487   0.000  0.00  0.00    -0.150 OA
BRANCH  24  28
ATOM     27  F   UNL     1     -39.988  16.666  -1.985  0.00  0.00    -0.204 F 
ATOM     28  C   UNL     1     -37.373  19.198  -0.034  0.00  0.00    +0.125 C 
ATOM     29  C   UNL     1     -37.168  17.818   0.005  0.00  0.00    +0.022 C 
ATOM     30  C   UNL     1     -38.462  19.722  -0.732  0.00  0.00    +0.022 C 
ATOM     31  C   UNL     1     -38.051  16.963  -0.654  0.00  0.00    +0.031 C 
ATOM     32  C   UNL     1     -39.346  18.866  -1.391  0.00  0.00    +0.031 C 
ATOM     33  C   UNL     1     -39.140  17.487  -1.352  0.00  0.00    +0.140 C 
ENDBRANCH  24  28
ENDBRANCH  22  24
ENDBRANCH   4  22
TORSDOF 4
ENDMDL
