MODEL 1
REMARK VINA RESULT:      -5.9      0.000      0.000
REMARK  Name = 21117441
REMARK  11 active torsions:
REMARK  status: ('A' for Active; 'I' for Inactive)
REMARK    1  A    between atoms: CA_1  and  N_3
REMARK    2  A    between atoms: CA_1  and  C_13
REMARK    3  A    between atoms: CA_1  and  C_14
REMARK    4  A    between atoms: C_4  and  C_6
REMARK    5  A    between atoms: C_14  and  O_15
REMARK    6  A    between atoms: C_14  and  C_17
REMARK    7  A    between atoms: C_17  and  O_18
REMARK    8  A    between atoms: C_17  and  C_20
REMARK    9  A    between atoms: C_20  and  O_21
REMARK   10  A    between atoms: C_20  and  C_23
REMARK   11  A    between atoms: C_23  and  O_24
REMARK                            x       y       z     vdW  Elec       q    Type
REMARK                         _______ _______ _______ _____ _____    ______ ____
ROOT
ATOM      1  CA  UNL     1     -36.234  23.157   4.420  0.00  0.00    +0.167 C 
ENDROOT
BRANCH   1   3
ATOM      2  O   UNL     1     -36.918  21.374   2.277  0.00  0.00    -0.270 OA
ATOM      3  N   UNL     1     -35.321  22.532   3.496  0.00  0.00    -0.294 N 
ATOM      4  C   UNL     1     -35.747  21.680   2.487  0.00  0.00    +0.246 C 
ATOM      5  H   UNL     1     -34.359  22.716   3.585  0.00  0.00    +0.150 HD
BRANCH   4   6
ATOM      6  C   UNL     1     -34.680  21.095   1.635  0.00  0.00    +0.053 C 
ATOM      7  C   UNL     1     -34.092  21.883   0.668  0.00  0.00    +0.005 C 
ATOM      8  C   UNL     1     -34.311  19.781   1.839  0.00  0.00    +0.005 C 
ATOM      9  C   UNL     1     -33.090  21.334  -0.131  0.00  0.00    +0.000 C 
ATOM     10  C   UNL     1     -33.308  19.232   1.040  0.00  0.00    +0.000 C 
ATOM     11  C   UNL     1     -32.698  20.008   0.054  0.00  0.00    +0.000 C 
ENDBRANCH   4   6
ENDBRANCH   1   3
BRANCH   1  13
ATOM     12  O   UNL     1     -35.989  22.001   6.532  0.00  0.00    -0.286 OA
ATOM     13  C   UNL     1     -35.667  22.942   5.810  0.00  0.00    +0.229 C 
ENDBRANCH   1  13
BRANCH   1  14
ATOM     14  C   UNL     1     -36.469  24.645   4.130  0.00  0.00    +0.165 C 
BRANCH  14  15
ATOM     15  O   UNL     1     -37.858  24.931   4.350  0.00  0.00    -0.380 OA
ATOM     16  H   UNL     1     -38.400  24.292   3.861  0.00  0.00    +0.211 HD
ENDBRANCH  14  15
BRANCH  14  17
ATOM     17  C   UNL     1     -35.645  25.621   4.995  0.00  0.00    +0.168 C 
BRANCH  17  18
ATOM     18  O   UNL     1     -36.540  26.645   5.449  0.00  0.00    -0.379 OA
ATOM     19  H   UNL     1     -37.124  26.911   4.722  0.00  0.00    +0.211 HD
ENDBRANCH  17  18
BRANCH  17  20
ATOM     20  C   UNL     1     -34.445  26.278   4.293  0.00  0.00    +0.169 C 
BRANCH  20  21
ATOM     21  O   UNL     1     -33.775  27.165   5.190  0.00  0.00    -0.379 OA
ATOM     22  H   UNL     1     -33.958  28.083   4.934  0.00  0.00    +0.211 HD
ENDBRANCH  20  21
BRANCH  20  23
ATOM     23  C   UNL     1     -34.871  27.099   3.075  0.00  0.00    +0.169 C 
BRANCH  23  24
ATOM     24  O   UNL     1     -35.313  28.379   3.515  0.00  0.00    -0.379 OA
ATOM     25  H   UNL     1     -34.560  28.878   3.867  0.00  0.00    +0.211 HD
ENDBRANCH  23  24
ENDBRANCH  20  23
ENDBRANCH  17  20
ENDBRANCH  14  17
ENDBRANCH   1  14
TORSDOF 11
ENDMDL
MODEL 2
REMARK VINA RESULT:      -5.7      2.426      3.996
REMARK  Name = 21117441
REMARK  11 active torsions:
REMARK  status: ('A' for Active; 'I' for Inactive)
REMARK    1  A    between atoms: CA_1  and  N_3
REMARK    2  A    between atoms: CA_1  and  C_13
REMARK    3  A    between atoms: CA_1  and  C_14
REMARK    4  A    between atoms: C_4  and  C_6
REMARK    5  A    between atoms: C_14  and  O_15
REMARK    6  A    between atoms: C_14  and  C_17
REMARK    7  A    between atoms: C_17  and  O_18
REMARK    8  A    between atoms: C_17  and  C_20
REMARK    9  A    between atoms: C_20  and  O_21
REMARK   10  A    between atoms: C_20  and  C_23
REMARK   11  A    between atoms: C_23  and  O_24
REMARK                            x       y       z     vdW  Elec       q    Type
REMARK                         _______ _______ _______ _____ _____    ______ ____
ROOT
ATOM      1  CA  UNL     1     -36.175  22.258   1.340  0.00  0.00    +0.167 C 
ENDROOT
BRANCH   1   3
ATOM      2  O   UNL     1     -33.811  22.258  -0.289  0.00  0.00    -0.270 OA
ATOM      3  N   UNL     1     -35.134  21.261   1.334  0.00  0.00    -0.294 N 
ATOM      4  C   UNL     1     -34.023  21.347   0.506  0.00  0.00    +0.246 C 
ATOM      5  H   UNL     1     -35.214  20.490   1.939  0.00  0.00    +0.150 HD
BRANCH   4   6
ATOM      6  C   UNL     1     -33.053  20.225   0.600  0.00  0.00    +0.053 C 
ATOM      7  C   UNL     1     -31.832  20.345  -0.032  0.00  0.00    +0.005 C 
ATOM      8  C   UNL     1     -33.405  19.099   1.315  0.00  0.00    +0.005 C 
ATOM      9  C   UNL     1     -30.923  19.292   0.057  0.00  0.00    +0.000 C 
ATOM     10  C   UNL     1     -32.494  18.046   1.404  0.00  0.00    +0.000 C 
ATOM     11  C   UNL     1     -31.253  18.142   0.774  0.00  0.00    +0.000 C 
ENDBRANCH   4   6
ENDBRANCH   1   3
BRANCH   1  13
ATOM     12  O   UNL     1     -37.668  20.433   0.797  0.00  0.00    -0.286 OA
ATOM     13  C   UNL     1     -37.391  21.626   0.692  0.00  0.00    +0.229 C 
ENDBRANCH   1  13
BRANCH   1  14
ATOM     14  C   UNL     1     -36.495  22.794   2.742  0.00  0.00    +0.165 C 
BRANCH  14  15
ATOM     15  O   UNL     1     -37.825  22.380   3.087  0.00  0.00    -0.380 OA
ATOM     16  H   UNL     1     -38.442  23.112   2.929  0.00  0.00    +0.211 HD
ENDBRANCH  14  15
BRANCH  14  17
ATOM     17  C   UNL     1     -35.547  22.316   3.860  0.00  0.00    +0.168 C 
BRANCH  17  18
ATOM     18  O   UNL     1     -35.810  20.922   4.071  0.00  0.00    -0.379 OA
ATOM     19  H   UNL     1     -35.762  20.723   5.019  0.00  0.00    +0.211 HD
ENDBRANCH  17  18
BRANCH  17  20
ATOM     20  C   UNL     1     -35.674  23.058   5.200  0.00  0.00    +0.169 C 
BRANCH  20  21
ATOM     21  O   UNL     1     -34.617  24.010   5.337  0.00  0.00    -0.379 OA
ATOM     22  H   UNL     1     -34.518  24.251   6.272  0.00  0.00    +0.211 HD
ENDBRANCH  20  21
BRANCH  20  23
ATOM     23  C   UNL     1     -35.588  22.108   6.394  0.00  0.00    +0.169 C 
BRANCH  23  24
ATOM     24  O   UNL     1     -34.368  21.376   6.313  0.00  0.00    -0.379 OA
ATOM     25  H   UNL     1     -33.892  21.447   7.155  0.00  0.00    +0.211 HD
ENDBRANCH  23  24
ENDBRANCH  20  23
ENDBRANCH  17  20
ENDBRANCH  14  17
ENDBRANCH   1  14
TORSDOF 11
ENDMDL
MODEL 3
REMARK VINA RESULT:      -5.7      1.265      1.889
REMARK  Name = 21117441
REMARK  11 active torsions:
REMARK  status: ('A' for Active; 'I' for Inactive)
REMARK    1  A    between atoms: CA_1  and  N_3
REMARK    2  A    between atoms: CA_1  and  C_13
REMARK    3  A    between atoms: CA_1  and  C_14
REMARK    4  A    between atoms: C_4  and  C_6
REMARK    5  A    between atoms: C_14  and  O_15
REMARK    6  A    between atoms: C_14  and  C_17
REMARK    7  A    between atoms: C_17  and  O_18
REMARK    8  A    between atoms: C_17  and  C_20
REMARK    9  A    between atoms: C_20  and  O_21
REMARK   10  A    between atoms: C_20  and  C_23
REMARK   11  A    between atoms: C_23  and  O_24
REMARK                            x       y       z     vdW  Elec       q    Type
REMARK                         _______ _______ _______ _____ _____    ______ ____
ROOT
ATOM      1  CA  UNL     1     -36.122  22.222   3.891  0.00  0.00    +0.167 C 
ENDROOT
BRANCH   1   3
ATOM      2  O   UNL     1     -36.324  20.055   2.018  0.00  0.00    -0.270 OA
ATOM      3  N   UNL     1     -35.066  21.702   3.060  0.00  0.00    -0.294 N 
ATOM      4  C   UNL     1     -35.259  20.646   2.180  0.00  0.00    +0.246 C 
ATOM      5  H   UNL     1     -34.173  22.111   3.118  0.00  0.00    +0.150 HD
BRANCH   4   6
ATOM      6  C   UNL     1     -34.064  20.209   1.413  0.00  0.00    +0.053 C 
ATOM      7  C   UNL     1     -33.541  18.956   1.651  0.00  0.00    +0.005 C 
ATOM      8  C   UNL     1     -33.516  21.073   0.488  0.00  0.00    +0.005 C 
ATOM      9  C   UNL     1     -32.419  18.547   0.930  0.00  0.00    +0.000 C 
ATOM     10  C   UNL     1     -32.393  20.664  -0.233  0.00  0.00    +0.000 C 
ATOM     11  C   UNL     1     -31.845  19.400  -0.011  0.00  0.00    +0.000 C 
ENDBRANCH   4   6
ENDBRANCH   1   3
BRANCH   1  13
ATOM     12  O   UNL     1     -36.008  22.119   6.307  0.00  0.00    -0.286 OA
ATOM     13  C   UNL     1     -35.512  22.504   5.250  0.00  0.00    +0.229 C 
ENDBRANCH   1  13
BRANCH   1  14
ATOM     14  C   UNL     1     -36.800  23.468   3.306  0.00  0.00    +0.165 C 
BRANCH  14  15
ATOM     15  O   UNL     1     -38.184  23.163   3.083  0.00  0.00    -0.380 OA
ATOM     16  H   UNL     1     -38.294  22.791   2.193  0.00  0.00    +0.211 HD
ENDBRANCH  14  15
BRANCH  14  17
ATOM     17  C   UNL     1     -36.732  24.729   4.191  0.00  0.00    +0.168 C 
BRANCH  17  18
ATOM     18  O   UNL     1     -38.078  25.186   4.382  0.00  0.00    -0.379 OA
ATOM     19  H   UNL     1     -38.334  25.061   5.309  0.00  0.00    +0.211 HD
ENDBRANCH  17  18
BRANCH  17  20
ATOM     20  C   UNL     1     -35.883  25.885   3.636  0.00  0.00    +0.169 C 
BRANCH  20  21
ATOM     21  O   UNL     1     -35.968  27.018   4.502  0.00  0.00    -0.379 OA
ATOM     22  H   UNL     1     -36.826  27.013   4.957  0.00  0.00    +0.211 HD
ENDBRANCH  20  21
BRANCH  20  23
ATOM     23  C   UNL     1     -36.357  26.332   2.253  0.00  0.00    +0.169 C 
BRANCH  23  24
ATOM     24  O   UNL     1     -37.590  27.030   2.392  0.00  0.00    -0.379 OA
ATOM     25  H   UNL     1     -37.467  27.788   2.985  0.00  0.00    +0.211 HD
ENDBRANCH  23  24
ENDBRANCH  20  23
ENDBRANCH  17  20
ENDBRANCH  14  17
ENDBRANCH   1  14
TORSDOF 11
ENDMDL
MODEL 4
REMARK VINA RESULT:      -5.6      1.649      2.816
REMARK  Name = 21117441
REMARK  11 active torsions:
REMARK  status: ('A' for Active; 'I' for Inactive)
REMARK    1  A    between atoms: CA_1  and  N_3
REMARK    2  A    between atoms: CA_1  and  C_13
REMARK    3  A    between atoms: CA_1  and  C_14
REMARK    4  A    between atoms: C_4  and  C_6
REMARK    5  A    between atoms: C_14  and  O_15
REMARK    6  A    between atoms: C_14  and  C_17
REMARK    7  A    between atoms: C_17  and  O_18
REMARK    8  A    between atoms: C_17  and  C_20
REMARK    9  A    between atoms: C_20  and  O_21
REMARK   10  A    between atoms: C_20  and  C_23
REMARK   11  A    between atoms: C_23  and  O_24
REMARK                            x       y       z     vdW  Elec       q    Type
REMARK                         _______ _______ _______ _____ _____    ______ ____
ROOT
ATOM      1  CA  UNL     1     -36.571  24.711   2.263  0.00  0.00    +0.167 C 
ENDROOT
BRANCH   1   3
ATOM      2  O   UNL     1     -35.171  23.854  -0.092  0.00  0.00    -0.270 OA
ATOM      3  N   UNL     1     -35.806  23.498   2.109  0.00  0.00    -0.294 N 
ATOM      4  C   UNL     1     -35.161  23.168   0.926  0.00  0.00    +0.246 C 
ATOM      5  H   UNL     1     -35.740  22.881   2.873  0.00  0.00    +0.150 HD
BRANCH   4   6
ATOM      6  C   UNL     1     -34.438  21.870   0.919  0.00  0.00    +0.053 C 
ATOM      7  C   UNL     1     -33.319  21.735   0.124  0.00  0.00    +0.005 C 
ATOM      8  C   UNL     1     -34.908  20.842   1.709  0.00  0.00    +0.005 C 
ATOM      9  C   UNL     1     -32.639  20.518   0.119  0.00  0.00    +0.000 C 
ATOM     10  C   UNL     1     -34.228  19.623   1.703  0.00  0.00    +0.000 C 
ATOM     11  C   UNL     1     -33.094  19.461   0.908  0.00  0.00    +0.000 C 
ENDBRANCH   4   6
ENDBRANCH   1   3
BRANCH   1  13
ATOM     12  O   UNL     1     -38.279  23.176   3.030  0.00  0.00    -0.286 OA
ATOM     13  C   UNL     1     -37.986  24.295   2.612  0.00  0.00    +0.229 C 
ENDBRANCH   1  13
BRANCH   1  14
ATOM     14  C   UNL     1     -35.988  25.668   3.312  0.00  0.00    +0.165 C 
BRANCH  14  15
ATOM     15  O   UNL     1     -36.577  26.961   3.115  0.00  0.00    -0.380 OA
ATOM     16  H   UNL     1     -36.850  27.326   3.972  0.00  0.00    +0.211 HD
ENDBRANCH  14  15
BRANCH  14  17
ATOM     17  C   UNL     1     -36.229  25.259   4.780  0.00  0.00    +0.168 C 
BRANCH  17  18
ATOM     18  O   UNL     1     -36.521  26.457   5.512  0.00  0.00    -0.379 OA
ATOM     19  H   UNL     1     -36.395  26.296   6.460  0.00  0.00    +0.211 HD
ENDBRANCH  17  18
BRANCH  17  20
ATOM     20  C   UNL     1     -35.065  24.524   5.464  0.00  0.00    +0.169 C 
BRANCH  20  21
ATOM     21  O   UNL     1     -33.989  24.339   4.541  0.00  0.00    -0.379 OA
ATOM     22  H   UNL     1     -34.256  23.705   3.857  0.00  0.00    +0.211 HD
ENDBRANCH  20  21
BRANCH  20  23
ATOM     23  C   UNL     1     -35.475  23.141   5.968  0.00  0.00    +0.169 C 
BRANCH  23  24
ATOM     24  O   UNL     1     -36.256  22.498   4.966  0.00  0.00    -0.379 OA
ATOM     25  H   UNL     1     -35.686  21.922   4.432  0.00  0.00    +0.211 HD
ENDBRANCH  23  24
ENDBRANCH  20  23
ENDBRANCH  17  20
ENDBRANCH  14  17
ENDBRANCH   1  14
TORSDOF 11
ENDMDL
MODEL 5
REMARK VINA RESULT:      -5.6      1.529      2.236
REMARK  Name = 21117441
REMARK  11 active torsions:
REMARK  status: ('A' for Active; 'I' for Inactive)
REMARK    1  A    between atoms: CA_1  and  N_3
REMARK    2  A    between atoms: CA_1  and  C_13
REMARK    3  A    between atoms: CA_1  and  C_14
REMARK    4  A    between atoms: C_4  and  C_6
REMARK    5  A    between atoms: C_14  and  O_15
REMARK    6  A    between atoms: C_14  and  C_17
REMARK    7  A    between atoms: C_17  and  O_18
REMARK    8  A    between atoms: C_17  and  C_20
REMARK    9  A    between atoms: C_20  and  O_21
REMARK   10  A    between atoms: C_20  and  C_23
REMARK   11  A    between atoms: C_23  and  O_24
REMARK                            x       y       z     vdW  Elec       q    Type
REMARK                         _______ _______ _______ _____ _____    ______ ____
ROOT
ATOM      1  CA  UNL     1     -37.295  23.571   2.241  0.00  0.00    +0.167 C 
ENDROOT
BRANCH   1   3
ATOM      2  O   UNL     1     -36.391  22.408  -0.223  0.00  0.00    -0.270 OA
ATOM      3  N   UNL     1     -36.177  22.678   2.070  0.00  0.00    -0.294 N 
ATOM      4  C   UNL     1     -35.814  22.164   0.833  0.00  0.00    +0.246 C 
ATOM      5  H   UNL     1     -35.650  22.423   2.861  0.00  0.00    +0.150 HD
BRANCH   4   6
ATOM      6  C   UNL     1     -34.654  21.235   0.829  0.00  0.00    +0.053 C 
ATOM      7  C   UNL     1     -33.539  21.565   0.088  0.00  0.00    +0.005 C 
ATOM      8  C   UNL     1     -34.731  20.072   1.566  0.00  0.00    +0.005 C 
ATOM      9  C   UNL     1     -32.450  20.694   0.085  0.00  0.00    +0.000 C 
ATOM     10  C   UNL     1     -33.641  19.200   1.563  0.00  0.00    +0.000 C 
ATOM     11  C   UNL     1     -32.501  19.511   0.822  0.00  0.00    +0.000 C 
ENDBRANCH   4   6
ENDBRANCH   1   3
BRANCH   1  13
ATOM     12  O   UNL     1     -39.641  22.976   2.244  0.00  0.00    -0.286 OA
ATOM     13  C   UNL     1     -38.493  22.711   2.594  0.00  0.00    +0.229 C 
ENDBRANCH   1  13
BRANCH   1  14
ATOM     14  C   UNL     1     -37.050  24.659   3.295  0.00  0.00    +0.165 C 
BRANCH  14  15
ATOM     15  O   UNL     1     -38.235  24.786   4.093  0.00  0.00    -0.380 OA
ATOM     16  H   UNL     1     -38.569  25.695   4.033  0.00  0.00    +0.211 HD
ENDBRANCH  14  15
BRANCH  14  17
ATOM     17  C   UNL     1     -35.866  24.395   4.248  0.00  0.00    +0.168 C 
BRANCH  17  18
ATOM     18  O   UNL     1     -36.295  23.405   5.192  0.00  0.00    -0.379 OA
ATOM     19  H   UNL     1     -35.983  23.646   6.078  0.00  0.00    +0.211 HD
ENDBRANCH  17  18
BRANCH  17  20
ATOM     20  C   UNL     1     -35.341  25.622   5.011  0.00  0.00    +0.169 C 
BRANCH  20  21
ATOM     21  O   UNL     1     -36.434  26.401   5.502  0.00  0.00    -0.379 OA
ATOM     22  H   UNL     1     -36.952  26.738   4.754  0.00  0.00    +0.211 HD
ENDBRANCH  20  21
BRANCH  20  23
ATOM     23  C   UNL     1     -34.497  26.533   4.121  0.00  0.00    +0.169 C 
BRANCH  23  24
ATOM     24  O   UNL     1     -35.219  27.736   3.875  0.00  0.00    -0.379 OA
ATOM     25  H   UNL     1     -35.711  27.986   4.672  0.00  0.00    +0.211 HD
ENDBRANCH  23  24
ENDBRANCH  20  23
ENDBRANCH  17  20
ENDBRANCH  14  17
ENDBRANCH   1  14
TORSDOF 11
ENDMDL
MODEL 6
REMARK VINA RESULT:      -5.5      3.062      7.033
REMARK  Name = 21117441
REMARK  11 active torsions:
REMARK  status: ('A' for Active; 'I' for Inactive)
REMARK    1  A    between atoms: CA_1  and  N_3
REMARK    2  A    between atoms: CA_1  and  C_13
REMARK    3  A    between atoms: CA_1  and  C_14
REMARK    4  A    between atoms: C_4  and  C_6
REMARK    5  A    between atoms: C_14  and  O_15
REMARK    6  A    between atoms: C_14  and  C_17
REMARK    7  A    between atoms: C_17  and  O_18
REMARK    8  A    between atoms: C_17  and  C_20
REMARK    9  A    between atoms: C_20  and  O_21
REMARK   10  A    between atoms: C_20  and  C_23
REMARK   11  A    between atoms: C_23  and  O_24
REMARK                            x       y       z     vdW  Elec       q    Type
REMARK                         _______ _______ _______ _____ _____    ______ ____
ROOT
ATOM      1  CA  UNL     1     -34.568  26.601   3.990  0.00  0.00    +0.167 C 
ENDROOT
BRANCH   1   3
ATOM      2  O   UNL     1     -34.877  27.343   1.234  0.00  0.00    -0.270 OA
ATOM      3  N   UNL     1     -35.161  27.815   3.487  0.00  0.00    -0.294 N 
ATOM      4  C   UNL     1     -35.266  28.087   2.130  0.00  0.00    +0.246 C 
ATOM      5  H   UNL     1     -35.504  28.476   4.130  0.00  0.00    +0.150 HD
BRANCH   4   6
ATOM      6  C   UNL     1     -35.877  29.394   1.774  0.00  0.00    +0.053 C 
ATOM      7  C   UNL     1     -35.591  30.497   2.550  0.00  0.00    +0.005 C 
ATOM      8  C   UNL     1     -36.712  29.460   0.678  0.00  0.00    +0.005 C 
ATOM      9  C   UNL     1     -36.164  31.723   2.214  0.00  0.00    +0.000 C 
ATOM     10  C   UNL     1     -37.286  30.687   0.342  0.00  0.00    +0.000 C 
ATOM     11  C   UNL     1     -37.012  31.819   1.111  0.00  0.00    +0.000 C 
ENDBRANCH   4   6
ENDBRANCH   1   3
BRANCH   1  13
ATOM     12  O   UNL     1     -33.396  27.025   6.065  0.00  0.00    -0.286 OA
ATOM     13  C   UNL     1     -33.379  27.012   4.836  0.00  0.00    +0.229 C 
ENDBRANCH   1  13
BRANCH   1  14
ATOM     14  C   UNL     1     -35.551  25.728   4.783  0.00  0.00    +0.165 C 
BRANCH  14  15
ATOM     15  O   UNL     1     -36.433  26.593   5.511  0.00  0.00    -0.380 OA
ATOM     16  H   UNL     1     -37.343  26.461   5.202  0.00  0.00    +0.211 HD
ENDBRANCH  14  15
BRANCH  14  17
ATOM     17  C   UNL     1     -36.418  24.778   3.932  0.00  0.00    +0.168 C 
BRANCH  17  18
ATOM     18  O   UNL     1     -37.740  24.798   4.489  0.00  0.00    -0.379 OA
ATOM     19  H   UNL     1     -38.393  24.722   3.775  0.00  0.00    +0.211 HD
ENDBRANCH  17  18
BRANCH  17  20
ATOM     20  C   UNL     1     -35.929  23.323   3.854  0.00  0.00    +0.169 C 
BRANCH  20  21
ATOM     21  O   UNL     1     -37.032  22.444   3.628  0.00  0.00    -0.379 OA
ATOM     22  H   UNL     1     -36.991  22.100   2.721  0.00  0.00    +0.211 HD
ENDBRANCH  20  21
BRANCH  20  23
ATOM     23  C   UNL     1     -35.249  22.876   5.148  0.00  0.00    +0.169 C 
BRANCH  23  24
ATOM     24  O   UNL     1     -36.242  22.399   6.050  0.00  0.00    -0.379 OA
ATOM     25  H   UNL     1     -36.896  23.098   6.209  0.00  0.00    +0.211 HD
ENDBRANCH  23  24
ENDBRANCH  20  23
ENDBRANCH  17  20
ENDBRANCH  14  17
ENDBRANCH   1  14
TORSDOF 11
ENDMDL
MODEL 7
REMARK VINA RESULT:      -5.5      4.322      6.858
REMARK  Name = 21117441
REMARK  11 active torsions:
REMARK  status: ('A' for Active; 'I' for Inactive)
REMARK    1  A    between atoms: CA_1  and  N_3
REMARK    2  A    between atoms: CA_1  and  C_13
REMARK    3  A    between atoms: CA_1  and  C_14
REMARK    4  A    between atoms: C_4  and  C_6
REMARK    5  A    between atoms: C_14  and  O_15
REMARK    6  A    between atoms: C_14  and  C_17
REMARK    7  A    between atoms: C_17  and  O_18
REMARK    8  A    between atoms: C_17  and  C_20
REMARK    9  A    between atoms: C_20  and  O_21
REMARK   10  A    between atoms: C_20  and  C_23
REMARK   11  A    between atoms: C_23  and  O_24
REMARK                            x       y       z     vdW  Elec       q    Type
REMARK                         _______ _______ _______ _____ _____    ______ ____
ROOT
ATOM      1  CA  UNL     1     -32.336  29.261   4.108  0.00  0.00    +0.167 C 
ENDROOT
BRANCH   1   3
ATOM      2  O   UNL     1     -32.175  26.553   3.171  0.00  0.00    -0.270 OA
ATOM      3  N   UNL     1     -33.229  28.180   4.442  0.00  0.00    -0.294 N 
ATOM      4  C   UNL     1     -33.071  26.898   3.937  0.00  0.00    +0.246 C 
ATOM      5  H   UNL     1     -33.981  28.359   5.052  0.00  0.00    +0.150 HD
BRANCH   4   6
ATOM      6  C   UNL     1     -34.091  25.902   4.355  0.00  0.00    +0.053 C 
ATOM      7  C   UNL     1     -35.100  26.300   5.208  0.00  0.00    +0.005 C 
ATOM      8  C   UNL     1     -33.996  24.611   3.878  0.00  0.00    +0.005 C 
ATOM      9  C   UNL     1     -36.058  25.365   5.599  0.00  0.00    +0.000 C 
ATOM     10  C   UNL     1     -34.955  23.676   4.270  0.00  0.00    +0.000 C 
ATOM     11  C   UNL     1     -35.986  24.054   5.131  0.00  0.00    +0.000 C 
ENDBRANCH   4   6
ENDBRANCH   1   3
BRANCH   1  13
ATOM     12  O   UNL     1     -34.286  30.658   3.786  0.00  0.00    -0.286 OA
ATOM     13  C   UNL     1     -33.168  30.317   3.406  0.00  0.00    +0.229 C 
ENDBRANCH   1  13
BRANCH   1  14
ATOM     14  C   UNL     1     -31.599  29.839   5.324  0.00  0.00    +0.165 C 
BRANCH  14  15
ATOM     15  O   UNL     1     -32.478  30.760   5.985  0.00  0.00    -0.380 OA
ATOM     16  H   UNL     1     -32.220  30.840   6.917  0.00  0.00    +0.211 HD
ENDBRANCH  14  15
BRANCH  14  17
ATOM     17  C   UNL     1     -31.135  28.800   6.365  0.00  0.00    +0.168 C 
BRANCH  17  18
ATOM     18  O   UNL     1     -31.475  29.316   7.660  0.00  0.00    -0.379 OA
ATOM     19  H   UNL     1     -31.537  30.283   7.616  0.00  0.00    +0.211 HD
ENDBRANCH  17  18
BRANCH  17  20
ATOM     20  C   UNL     1     -29.637  28.457   6.339  0.00  0.00    +0.169 C 
BRANCH  20  21
ATOM     21  O   UNL     1     -29.406  27.208   6.992  0.00  0.00    -0.379 OA
ATOM     22  H   UNL     1     -30.159  27.000   7.567  0.00  0.00    +0.211 HD
ENDBRANCH  20  21
BRANCH  20  23
ATOM     23  C   UNL     1     -28.795  29.510   7.060  0.00  0.00    +0.169 C 
BRANCH  23  24
ATOM     24  O   UNL     1     -28.704  29.163   8.438  0.00  0.00    -0.379 OA
ATOM     25  H   UNL     1     -28.840  28.208   8.541  0.00  0.00    +0.211 HD
ENDBRANCH  23  24
ENDBRANCH  20  23
ENDBRANCH  17  20
ENDBRANCH  14  17
ENDBRANCH   1  14
TORSDOF 11
ENDMDL
MODEL 8
REMARK VINA RESULT:      -5.4      1.501      2.678
REMARK  Name = 21117441
REMARK  11 active torsions:
REMARK  status: ('A' for Active; 'I' for Inactive)
REMARK    1  A    between atoms: CA_1  and  N_3
REMARK    2  A    between atoms: CA_1  and  C_13
REMARK    3  A    between atoms: CA_1  and  C_14
REMARK    4  A    between atoms: C_4  and  C_6
REMARK    5  A    between atoms: C_14  and  O_15
REMARK    6  A    between atoms: C_14  and  C_17
REMARK    7  A    between atoms: C_17  and  O_18
REMARK    8  A    between atoms: C_17  and  C_20
REMARK    9  A    between atoms: C_20  and  O_21
REMARK   10  A    between atoms: C_20  and  C_23
REMARK   11  A    between atoms: C_23  and  O_24
REMARK                            x       y       z     vdW  Elec       q    Type
REMARK                         _______ _______ _______ _____ _____    ______ ____
ROOT
ATOM      1  CA  UNL     1     -37.012  23.004   2.006  0.00  0.00    +0.167 C 
ENDROOT
BRANCH   1   3
ATOM      2  O   UNL     1     -35.848  22.004  -0.419  0.00  0.00    -0.270 OA
ATOM      3  N   UNL     1     -35.878  22.121   1.896  0.00  0.00    -0.294 N 
ATOM      4  C   UNL     1     -35.385  21.688   0.673  0.00  0.00    +0.246 C 
ATOM      5  H   UNL     1     -35.438  21.812   2.720  0.00  0.00    +0.150 HD
BRANCH   4   6
ATOM      6  C   UNL     1     -34.228  20.758   0.730  0.00  0.00    +0.053 C 
ATOM      7  C   UNL     1     -34.351  19.584   1.443  0.00  0.00    +0.005 C 
ATOM      8  C   UNL     1     -33.067  21.100   0.067  0.00  0.00    +0.005 C 
ATOM      9  C   UNL     1     -33.264  18.712   1.495  0.00  0.00    +0.000 C 
ATOM     10  C   UNL     1     -31.980  20.226   0.120  0.00  0.00    +0.000 C 
ATOM     11  C   UNL     1     -32.079  19.032   0.834  0.00  0.00    +0.000 C 
ENDBRANCH   4   6
ENDBRANCH   1   3
BRANCH   1  13
ATOM     12  O   UNL     1     -39.372  22.467   1.971  0.00  0.00    -0.286 OA
ATOM     13  C   UNL     1     -38.225  22.131   2.260  0.00  0.00    +0.229 C 
ENDBRANCH   1  13
BRANCH   1  14
ATOM     14  C   UNL     1     -36.847  24.073   3.096  0.00  0.00    +0.165 C 
BRANCH  14  15
ATOM     15  O   UNL     1     -38.110  24.240   3.754  0.00  0.00    -0.380 OA
ATOM     16  H   UNL     1     -38.690  23.493   3.536  0.00  0.00    +0.211 HD
ENDBRANCH  14  15
BRANCH  14  17
ATOM     17  C   UNL     1     -35.792  23.753   4.174  0.00  0.00    +0.168 C 
BRANCH  17  18
ATOM     18  O   UNL     1     -36.330  22.710   4.998  0.00  0.00    -0.379 OA
ATOM     19  H   UNL     1     -35.640  22.381   5.596  0.00  0.00    +0.211 HD
ENDBRANCH  17  18
BRANCH  17  20
ATOM     20  C   UNL     1     -35.377  24.934   5.067  0.00  0.00    +0.169 C 
BRANCH  20  21
ATOM     21  O   UNL     1     -36.527  25.503   5.696  0.00  0.00    -0.379 OA
ATOM     22  H   UNL     1     -36.343  26.427   5.931  0.00  0.00    +0.211 HD
ENDBRANCH  20  21
BRANCH  20  23
ATOM     23  C   UNL     1     -34.697  26.046   4.270  0.00  0.00    +0.169 C 
BRANCH  23  24
ATOM     24  O   UNL     1     -35.488  27.227   4.359  0.00  0.00    -0.379 OA
ATOM     25  H   UNL     1     -36.260  27.144   3.778  0.00  0.00    +0.211 HD
ENDBRANCH  23  24
ENDBRANCH  20  23
ENDBRANCH  17  20
ENDBRANCH  14  17
ENDBRANCH   1  14
TORSDOF 11
ENDMDL
MODEL 9
REMARK VINA RESULT:      -5.4      2.548      4.437
REMARK  Name = 21117441
REMARK  11 active torsions:
REMARK  status: ('A' for Active; 'I' for Inactive)
REMARK    1  A    between atoms: CA_1  and  N_3
REMARK    2  A    between atoms: CA_1  and  C_13
REMARK    3  A    between atoms: CA_1  and  C_14
REMARK    4  A    between atoms: C_4  and  C_6
REMARK    5  A    between atoms: C_14  and  O_15
REMARK    6  A    between atoms: C_14  and  C_17
REMARK    7  A    between atoms: C_17  and  O_18
REMARK    8  A    between atoms: C_17  and  C_20
REMARK    9  A    between atoms: C_20  and  O_21
REMARK   10  A    between atoms: C_20  and  C_23
REMARK   11  A    between atoms: C_23  and  O_24
REMARK                            x       y       z     vdW  Elec       q    Type
REMARK                         _______ _______ _______ _____ _____    ______ ____
ROOT
ATOM      1  CA  UNL     1     -36.677  20.767   0.552  0.00  0.00    +0.167 C 
ENDROOT
BRANCH   1   3
ATOM      2  O   UNL     1     -34.097  22.025   0.549  0.00  0.00    -0.270 OA
ATOM      3  N   UNL     1     -35.397  20.105   0.569  0.00  0.00    -0.294 N 
ATOM      4  C   UNL     1     -34.197  20.801   0.566  0.00  0.00    +0.246 C 
ATOM      5  H   UNL     1     -35.374  19.122   0.583  0.00  0.00    +0.150 HD
BRANCH   4   6
ATOM      6  C   UNL     1     -32.963  19.973   0.557  0.00  0.00    +0.053 C 
ATOM      7  C   UNL     1     -32.965  18.768   1.229  0.00  0.00    +0.005 C 
ATOM      8  C   UNL     1     -31.856  20.436  -0.122  0.00  0.00    +0.005 C 
ATOM      9  C   UNL     1     -31.808  17.991   1.220  0.00  0.00    +0.000 C 
ATOM     10  C   UNL     1     -30.698  19.658  -0.131  0.00  0.00    +0.000 C 
ATOM     11  C   UNL     1     -30.674  18.435   0.540  0.00  0.00    +0.000 C 
ENDBRANCH   4   6
ENDBRANCH   1   3
BRANCH   1  13
ATOM     12  O   UNL     1     -37.765  18.736  -0.190  0.00  0.00    -0.286 OA
ATOM     13  C   UNL     1     -37.585  19.943  -0.340  0.00  0.00    +0.229 C 
ENDBRANCH   1  13
BRANCH   1  14
ATOM     14  C   UNL     1     -37.281  20.959   1.950  0.00  0.00    +0.165 C 
BRANCH  14  15
ATOM     15  O   UNL     1     -36.711  19.974   2.824  0.00  0.00    -0.380 OA
ATOM     16  H   UNL     1     -36.344  20.412   3.608  0.00  0.00    +0.211 HD
ENDBRANCH  14  15
BRANCH  14  17
ATOM     17  C   UNL     1     -37.043  22.345   2.583  0.00  0.00    +0.168 C 
BRANCH  17  18
ATOM     18  O   UNL     1     -36.834  23.272   1.509  0.00  0.00    -0.379 OA
ATOM     19  H   UNL     1     -36.632  24.148   1.872  0.00  0.00    +0.211 HD
ENDBRANCH  17  18
BRANCH  17  20
ATOM     20  C   UNL     1     -35.859  22.434   3.560  0.00  0.00    +0.169 C 
BRANCH  20  21
ATOM     21  O   UNL     1     -36.278  22.068   4.876  0.00  0.00    -0.379 OA
ATOM     22  H   UNL     1     -35.546  21.629   5.337  0.00  0.00    +0.211 HD
ENDBRANCH  20  21
BRANCH  20  23
ATOM     23  C   UNL     1     -35.286  23.849   3.641  0.00  0.00    +0.169 C 
BRANCH  23  24
ATOM     24  O   UNL     1     -34.397  24.050   2.547  0.00  0.00    -0.379 OA
ATOM     25  H   UNL     1     -34.630  24.872   2.089  0.00  0.00    +0.211 HD
ENDBRANCH  23  24
ENDBRANCH  20  23
ENDBRANCH  17  20
ENDBRANCH  14  17
ENDBRANCH   1  14
TORSDOF 11
ENDMDL
