MODEL 1
REMARK VINA RESULT:      -5.4      0.000      0.000
REMARK  Name = 191781
REMARK  11 active torsions:
REMARK  status: ('A' for Active; 'I' for Inactive)
REMARK    1  A    between atoms: N_2  and  C1*_13
REMARK    2  A    between atoms: N_4  and  C_22
REMARK    3  A    between atoms: C2*_11  and  O2*_15
REMARK    4  A    between atoms: C3*_12  and  O3*_17
REMARK    5  A    between atoms: C4*_14  and  C5*_19
REMARK    6  A    between atoms: C5*_19  and  O5*_20
REMARK    7  A    between atoms: C_22  and  C_23
REMARK    8  A    between atoms: C_23  and  C_24
REMARK    9  A    between atoms: C_24  and  C_25
REMARK   10  A    between atoms: C_25  and  C_26
REMARK   11  A    between atoms: C_26  and  N_27
REMARK                            x       y       z     vdW  Elec       q    Type
REMARK                         _______ _______ _______ _____ _____    ______ ____
ROOT
ATOM      1  O   UNL     1     -33.489  25.518   2.283  0.00  0.00    -0.193 OA
ATOM      2  N   UNL     1     -35.074  24.935   3.853  0.00  0.00    -0.178 N 
ATOM      3  N   UNL     1     -33.239  26.382   4.368  0.00  0.00    -0.306 NA
ATOM      4  N   UNL     1     -33.003  27.247   6.485  0.00  0.00    -0.308 N 
ATOM      5  C   UNL     1     -35.529  25.043   5.147  0.00  0.00    +0.083 C 
ATOM      6  C   UNL     1     -33.911  25.607   3.438  0.00  0.00    +0.276 C 
ATOM      7  C   UNL     1     -34.897  25.783   6.056  0.00  0.00    +0.065 C 
ATOM      8  C   UNL     1     -33.671  26.487   5.597  0.00  0.00    +0.196 C 
ATOM      9  H   UNL     1     -33.350  27.308   7.404  0.00  0.00    +0.149 HD
ENDROOT
BRANCH   2  13
ATOM     10  O4* UNL     1     -36.792  24.929   2.267  0.00  0.00    -0.332 OA
ATOM     11  C2* UNL     1     -36.602  23.021   3.659  0.00  0.00    +0.188 C 
ATOM     12  C3* UNL     1     -37.794  22.836   2.745  0.00  0.00    +0.171 C 
ATOM     13  C1* UNL     1     -35.823  24.113   2.946  0.00  0.00    +0.236 C 
ATOM     14  C4* UNL     1     -38.073  24.263   2.294  0.00  0.00    +0.175 C 
BRANCH  11  15
ATOM     15  O2* UNL     1     -35.854  21.831   3.812  0.00  0.00    -0.378 OA
ATOM     16  H2* UNL     1     -36.225  21.140   3.241  0.00  0.00    +0.211 HD
ENDBRANCH  11  15
BRANCH  12  17
ATOM     17  O3* UNL     1     -37.424  22.076   1.595  0.00  0.00    -0.379 OA
ATOM     18  H3* UNL     1     -37.694  22.548   0.794  0.00  0.00    +0.211 HD
ENDBRANCH  12  17
BRANCH  14  19
ATOM     19  C5* UNL     1     -38.985  25.028   3.244  0.00  0.00    +0.169 C 
BRANCH  19  20
ATOM     20  O5* UNL     1     -38.519  26.362   3.344  0.00  0.00    -0.379 OA
ATOM     21  H5* UNL     1     -37.550  26.363   3.401  0.00  0.00    +0.211 HD
ENDBRANCH  19  20
ENDBRANCH  14  19
ENDBRANCH   2  13
BRANCH   4  22
ATOM     22  C   UNL     1     -31.802  27.975   6.153  0.00  0.00    +0.089 C 
BRANCH  22  23
ATOM     23  C   UNL     1     -31.796  29.325   6.865  0.00  0.00    +0.021 C 
BRANCH  23  24
ATOM     24  C   UNL     1     -31.740  30.481   5.865  0.00  0.00    -0.000 C 
BRANCH  24  25
ATOM     25  C   UNL     1     -31.876  29.981   4.426  0.00  0.00    -0.024 C 
BRANCH  25  26
ATOM     26  C   UNL     1     -33.174  30.472   3.791  0.00  0.00    -0.086 C 
BRANCH  26  27
ATOM     27  N   UNL     1     -34.026  29.341   3.439  0.00  0.00    +0.380 N 
ATOM     28  H   UNL     1     -34.934  29.685   3.126  0.00  0.00    -0.089 HD
ATOM     29  H   UNL     1     -34.150  28.743   4.255  0.00  0.00    -0.089 HD
ATOM     30  H   UNL     1     -33.587  28.807   2.689  0.00  0.00    -0.089 HD
ENDBRANCH  26  27
ENDBRANCH  25  26
ENDBRANCH  24  25
ENDBRANCH  23  24
ENDBRANCH  22  23
ENDBRANCH   4  22
TORSDOF 11
ENDMDL
MODEL 2
REMARK VINA RESULT:      -5.4      3.744      7.446
REMARK  Name = 191781
REMARK  11 active torsions:
REMARK  status: ('A' for Active; 'I' for Inactive)
REMARK    1  A    between atoms: N_2  and  C1*_13
REMARK    2  A    between atoms: N_4  and  C_22
REMARK    3  A    between atoms: C2*_11  and  O2*_15
REMARK    4  A    between atoms: C3*_12  and  O3*_17
REMARK    5  A    between atoms: C4*_14  and  C5*_19
REMARK    6  A    between atoms: C5*_19  and  O5*_20
REMARK    7  A    between atoms: C_22  and  C_23
REMARK    8  A    between atoms: C_23  and  C_24
REMARK    9  A    between atoms: C_24  and  C_25
REMARK   10  A    between atoms: C_25  and  C_26
REMARK   11  A    between atoms: C_26  and  N_27
REMARK                            x       y       z     vdW  Elec       q    Type
REMARK                         _______ _______ _______ _____ _____    ______ ____
ROOT
ATOM      1  O   UNL     1     -37.711  26.864   2.352  0.00  0.00    -0.193 OA
ATOM      2  N   UNL     1     -37.417  24.643   2.896  0.00  0.00    -0.178 N 
ATOM      3  N   UNL     1     -39.380  25.435   1.779  0.00  0.00    -0.306 NA
ATOM      4  N   UNL     1     -41.060  23.973   1.209  0.00  0.00    -0.308 N 
ATOM      5  C   UNL     1     -37.919  23.362   2.879  0.00  0.00    +0.083 C 
ATOM      6  C   UNL     1     -38.145  25.711   2.342  0.00  0.00    +0.276 C 
ATOM      7  C   UNL     1     -39.104  23.077   2.343  0.00  0.00    +0.065 C 
ATOM      8  C   UNL     1     -39.858  24.219   1.762  0.00  0.00    +0.196 C 
ATOM      9  H   UNL     1     -41.396  23.048   1.209  0.00  0.00    +0.149 HD
ENDROOT
BRANCH   2  13
ATOM     10  O4* UNL     1     -35.396  23.617   3.468  0.00  0.00    -0.332 OA
ATOM     11  C2* UNL     1     -36.231  25.259   4.957  0.00  0.00    +0.188 C 
ATOM     12  C3* UNL     1     -34.951  24.691   5.531  0.00  0.00    +0.171 C 
ATOM     13  C1* UNL     1     -36.131  24.851   3.497  0.00  0.00    +0.236 C 
ATOM     14  C4* UNL     1     -34.814  23.381   4.769  0.00  0.00    +0.175 C 
BRANCH  11  15
ATOM     15  O2* UNL     1     -36.320  26.660   5.125  0.00  0.00    -0.378 OA
ATOM     16  H2* UNL     1     -37.248  26.936   5.057  0.00  0.00    +0.211 HD
ENDBRANCH  11  15
BRANCH  12  17
ATOM     17  O3* UNL     1     -33.843  25.521   5.185  0.00  0.00    -0.379 OA
ATOM     18  H3* UNL     1     -33.542  25.302   4.291  0.00  0.00    +0.211 HD
ENDBRANCH  12  17
BRANCH  14  19
ATOM     19  C5* UNL     1     -35.559  22.224   5.419  0.00  0.00    +0.169 C 
BRANCH  19  20
ATOM     20  O5* UNL     1     -35.516  21.109   4.546  0.00  0.00    -0.379 OA
ATOM     21  H5* UNL     1     -34.612  20.993   4.215  0.00  0.00    +0.211 HD
ENDBRANCH  19  20
ENDBRANCH  14  19
ENDBRANCH   2  13
BRANCH   4  22
ATOM     22  C   UNL     1     -41.880  25.002   0.615  0.00  0.00    +0.089 C 
BRANCH  22  23
ATOM     23  C   UNL     1     -43.327  24.845   1.071  0.00  0.00    +0.021 C 
BRANCH  23  24
ATOM     24  C   UNL     1     -43.795  26.064   1.868  0.00  0.00    -0.000 C 
BRANCH  24  25
ATOM     25  C   UNL     1     -42.640  27.028   2.141  0.00  0.00    -0.024 C 
BRANCH  25  26
ATOM     26  C   UNL     1     -42.422  27.218   3.640  0.00  0.00    -0.086 C 
BRANCH  26  27
ATOM     27  N   UNL     1     -41.259  26.458   4.084  0.00  0.00    +0.380 N 
ATOM     28  H   UNL     1     -41.425  26.101   5.024  0.00  0.00    -0.089 HD
ATOM     29  H   UNL     1     -40.439  27.065   4.090  0.00  0.00    -0.089 HD
ATOM     30  H   UNL     1     -41.100  25.678   3.447  0.00  0.00    -0.089 HD
ENDBRANCH  26  27
ENDBRANCH  25  26
ENDBRANCH  24  25
ENDBRANCH  23  24
ENDBRANCH  22  23
ENDBRANCH   4  22
TORSDOF 11
ENDMDL
MODEL 3
REMARK VINA RESULT:      -5.2      1.818      2.677
REMARK  Name = 191781
REMARK  11 active torsions:
REMARK  status: ('A' for Active; 'I' for Inactive)
REMARK    1  A    between atoms: N_2  and  C1*_13
REMARK    2  A    between atoms: N_4  and  C_22
REMARK    3  A    between atoms: C2*_11  and  O2*_15
REMARK    4  A    between atoms: C3*_12  and  O3*_17
REMARK    5  A    between atoms: C4*_14  and  C5*_19
REMARK    6  A    between atoms: C5*_19  and  O5*_20
REMARK    7  A    between atoms: C_22  and  C_23
REMARK    8  A    between atoms: C_23  and  C_24
REMARK    9  A    between atoms: C_24  and  C_25
REMARK   10  A    between atoms: C_25  and  C_26
REMARK   11  A    between atoms: C_26  and  N_27
REMARK                            x       y       z     vdW  Elec       q    Type
REMARK                         _______ _______ _______ _____ _____    ______ ____
ROOT
ATOM      1  O   UNL     1     -34.119  26.998   2.709  0.00  0.00    -0.193 OA
ATOM      2  N   UNL     1     -34.465  25.925   4.721  0.00  0.00    -0.178 N 
ATOM      3  N   UNL     1     -32.957  27.771   4.500  0.00  0.00    -0.306 NA
ATOM      4  N   UNL     1     -31.788  28.538   6.326  0.00  0.00    -0.308 N 
ATOM      5  C   UNL     1     -34.163  25.833   6.060  0.00  0.00    +0.083 C 
ATOM      6  C   UNL     1     -33.861  26.903   3.911  0.00  0.00    +0.276 C 
ATOM      7  C   UNL     1     -33.296  26.657   6.645  0.00  0.00    +0.065 C 
ATOM      8  C   UNL     1     -32.670  27.685   5.772  0.00  0.00    +0.196 C 
ATOM      9  H   UNL     1     -31.591  28.451   7.286  0.00  0.00    +0.149 HD
ENDROOT
BRANCH   2  13
ATOM     10  O4* UNL     1     -36.118  24.363   5.263  0.00  0.00    -0.332 OA
ATOM     11  C2* UNL     1     -34.744  23.876   3.395  0.00  0.00    +0.188 C 
ATOM     12  C3* UNL     1     -35.706  22.726   3.601  0.00  0.00    +0.171 C 
ATOM     13  C1* UNL     1     -35.411  24.992   4.181  0.00  0.00    +0.236 C 
ATOM     14  C4* UNL     1     -36.149  22.936   5.042  0.00  0.00    +0.175 C 
BRANCH  11  15
ATOM     15  O2* UNL     1     -34.576  24.199   2.029  0.00  0.00    -0.378 OA
ATOM     16  H2* UNL     1     -35.438  24.422   1.642  0.00  0.00    +0.211 HD
ENDBRANCH  11  15
BRANCH  12  17
ATOM     17  O3* UNL     1     -36.850  22.882   2.761  0.00  0.00    -0.379 OA
ATOM     18  H3* UNL     1     -37.654  22.865   3.303  0.00  0.00    +0.211 HD
ENDBRANCH  12  17
BRANCH  14  19
ATOM     19  C5* UNL     1     -35.226  22.278   6.058  0.00  0.00    +0.169 C 
BRANCH  19  20
ATOM     20  O5* UNL     1     -35.266  20.875   5.865  0.00  0.00    -0.379 OA
ATOM     21  H5* UNL     1     -34.541  20.460   6.359  0.00  0.00    +0.211 HD
ENDBRANCH  19  20
ENDBRANCH  14  19
ENDBRANCH   2  13
BRANCH   4  22
ATOM     22  C   UNL     1     -31.119  29.575   5.577  0.00  0.00    +0.089 C 
BRANCH  22  23
ATOM     23  C   UNL     1     -32.053  30.766   5.386  0.00  0.00    +0.021 C 
BRANCH  23  24
ATOM     24  C   UNL     1     -31.883  31.390   4.000  0.00  0.00    -0.000 C 
BRANCH  24  25
ATOM     25  C   UNL     1     -32.871  30.794   2.996  0.00  0.00    -0.024 C 
BRANCH  25  26
ATOM     26  C   UNL     1     -34.311  31.143   3.364  0.00  0.00    -0.086 C 
BRANCH  26  27
ATOM     27  N   UNL     1     -35.171  29.975   3.211  0.00  0.00    +0.380 N 
ATOM     28  H   UNL     1     -36.133  30.230   3.432  0.00  0.00    -0.089 HD
ATOM     29  H   UNL     1     -34.859  29.238   3.844  0.00  0.00    -0.089 HD
ATOM     30  H   UNL     1     -35.120  29.640   2.249  0.00  0.00    -0.089 HD
ENDBRANCH  26  27
ENDBRANCH  25  26
ENDBRANCH  24  25
ENDBRANCH  23  24
ENDBRANCH  22  23
ENDBRANCH   4  22
TORSDOF 11
ENDMDL
MODEL 4
REMARK VINA RESULT:      -5.2      2.395      3.593
REMARK  Name = 191781
REMARK  11 active torsions:
REMARK  status: ('A' for Active; 'I' for Inactive)
REMARK    1  A    between atoms: N_2  and  C1*_13
REMARK    2  A    between atoms: N_4  and  C_22
REMARK    3  A    between atoms: C2*_11  and  O2*_15
REMARK    4  A    between atoms: C3*_12  and  O3*_17
REMARK    5  A    between atoms: C4*_14  and  C5*_19
REMARK    6  A    between atoms: C5*_19  and  O5*_20
REMARK    7  A    between atoms: C_22  and  C_23
REMARK    8  A    between atoms: C_23  and  C_24
REMARK    9  A    between atoms: C_24  and  C_25
REMARK   10  A    between atoms: C_25  and  C_26
REMARK   11  A    between atoms: C_26  and  N_27
REMARK                            x       y       z     vdW  Elec       q    Type
REMARK                         _______ _______ _______ _____ _____    ______ ____
ROOT
ATOM      1  O   UNL     1     -34.470  27.218   2.755  0.00  0.00    -0.193 OA
ATOM      2  N   UNL     1     -34.574  25.933   4.667  0.00  0.00    -0.178 N 
ATOM      3  N   UNL     1     -33.223  27.903   4.525  0.00  0.00    -0.306 NA
ATOM      4  N   UNL     1     -31.967  28.580   6.328  0.00  0.00    -0.308 N 
ATOM      5  C   UNL     1     -34.159  25.736   5.963  0.00  0.00    +0.083 C 
ATOM      6  C   UNL     1     -34.109  27.028   3.918  0.00  0.00    +0.276 C 
ATOM      7  C   UNL     1     -33.307  26.565   6.564  0.00  0.00    +0.065 C 
ATOM      8  C   UNL     1     -32.828  27.718   5.757  0.00  0.00    +0.196 C 
ATOM      9  H   UNL     1     -31.686  28.416   7.256  0.00  0.00    +0.149 HD
ENDROOT
BRANCH   2  13
ATOM     10  O4* UNL     1     -36.194  24.325   5.174  0.00  0.00    -0.332 OA
ATOM     11  C2* UNL     1     -34.793  23.896   3.312  0.00  0.00    +0.188 C 
ATOM     12  C3* UNL     1     -35.730  22.720   3.494  0.00  0.00    +0.171 C 
ATOM     13  C1* UNL     1     -35.493  24.984   4.106  0.00  0.00    +0.236 C 
ATOM     14  C4* UNL     1     -36.190  22.900   4.934  0.00  0.00    +0.175 C 
BRANCH  11  15
ATOM     15  O2* UNL     1     -34.621  24.240   1.952  0.00  0.00    -0.378 OA
ATOM     16  H2* UNL     1     -35.415  23.991   1.453  0.00  0.00    +0.211 HD
ENDBRANCH  11  15
BRANCH  12  17
ATOM     17  O3* UNL     1     -36.869  22.860   2.646  0.00  0.00    -0.379 OA
ATOM     18  H3* UNL     1     -37.562  23.351   3.113  0.00  0.00    +0.211 HD
ENDBRANCH  12  17
BRANCH  14  19
ATOM     19  C5* UNL     1     -35.260  22.251   5.949  0.00  0.00    +0.169 C 
BRANCH  19  20
ATOM     20  O5* UNL     1     -35.295  20.847   5.762  0.00  0.00    -0.379 OA
ATOM     21  H5* UNL     1     -34.390  20.513   5.656  0.00  0.00    +0.211 HD
ENDBRANCH  19  20
ENDBRANCH  14  19
ENDBRANCH   2  13
BRANCH   4  22
ATOM     22  C   UNL     1     -31.436  29.733   5.641  0.00  0.00    +0.089 C 
BRANCH  22  23
ATOM     23  C   UNL     1     -29.926  29.815   5.847  0.00  0.00    +0.021 C 
BRANCH  23  24
ATOM     24  C   UNL     1     -29.330  28.438   6.146  0.00  0.00    -0.000 C 
BRANCH  24  25
ATOM     25  C   UNL     1     -28.163  28.538   7.130  0.00  0.00    -0.024 C 
BRANCH  25  26
ATOM     26  C   UNL     1     -28.409  29.630   8.169  0.00  0.00    -0.086 C 
BRANCH  26  27
ATOM     27  N   UNL     1     -27.285  30.558   8.205  0.00  0.00    +0.380 N 
ATOM     28  H   UNL     1     -26.708  30.362   9.023  0.00  0.00    -0.089 HD
ATOM     29  H   UNL     1     -27.636  31.514   8.256  0.00  0.00    -0.089 HD
ATOM     30  H   UNL     1     -26.725  30.446   7.359  0.00  0.00    -0.089 HD
ENDBRANCH  26  27
ENDBRANCH  25  26
ENDBRANCH  24  25
ENDBRANCH  23  24
ENDBRANCH  22  23
ENDBRANCH   4  22
TORSDOF 11
ENDMDL
MODEL 5
REMARK VINA RESULT:      -5.2      1.482      2.188
REMARK  Name = 191781
REMARK  11 active torsions:
REMARK  status: ('A' for Active; 'I' for Inactive)
REMARK    1  A    between atoms: N_2  and  C1*_13
REMARK    2  A    between atoms: N_4  and  C_22
REMARK    3  A    between atoms: C2*_11  and  O2*_15
REMARK    4  A    between atoms: C3*_12  and  O3*_17
REMARK    5  A    between atoms: C4*_14  and  C5*_19
REMARK    6  A    between atoms: C5*_19  and  O5*_20
REMARK    7  A    between atoms: C_22  and  C_23
REMARK    8  A    between atoms: C_23  and  C_24
REMARK    9  A    between atoms: C_24  and  C_25
REMARK   10  A    between atoms: C_25  and  C_26
REMARK   11  A    between atoms: C_26  and  N_27
REMARK                            x       y       z     vdW  Elec       q    Type
REMARK                         _______ _______ _______ _____ _____    ______ ____
ROOT
ATOM      1  O   UNL     1     -33.587  25.262   2.195  0.00  0.00    -0.193 OA
ATOM      2  N   UNL     1     -35.284  24.862   3.704  0.00  0.00    -0.178 N 
ATOM      3  N   UNL     1     -33.363  26.178   4.260  0.00  0.00    -0.306 NA
ATOM      4  N   UNL     1     -33.155  27.095   6.358  0.00  0.00    -0.308 N 
ATOM      5  C   UNL     1     -35.787  25.053   4.970  0.00  0.00    +0.083 C 
ATOM      6  C   UNL     1     -34.052  25.425   3.324  0.00  0.00    +0.276 C 
ATOM      7  C   UNL     1     -35.139  25.772   5.884  0.00  0.00    +0.065 C 
ATOM      8  C   UNL     1     -33.841  26.360   5.463  0.00  0.00    +0.196 C 
ATOM      9  H   UNL     1     -33.538  27.217   7.257  0.00  0.00    +0.149 HD
ENDROOT
BRANCH   2  13
ATOM     10  O4* UNL     1     -37.033  24.910   2.154  0.00  0.00    -0.332 OA
ATOM     11  C2* UNL     1     -36.822  22.960   3.484  0.00  0.00    +0.188 C 
ATOM     12  C3* UNL     1     -38.034  22.808   2.589  0.00  0.00    +0.171 C 
ATOM     13  C1* UNL     1     -36.054  24.071   2.788  0.00  0.00    +0.236 C 
ATOM     14  C4* UNL     1     -38.317  24.248   2.188  0.00  0.00    +0.175 C 
BRANCH  11  15
ATOM     15  O2* UNL     1     -36.076  21.764   3.586  0.00  0.00    -0.378 OA
ATOM     16  H2* UNL     1     -36.510  21.068   3.068  0.00  0.00    +0.211 HD
ENDBRANCH  11  15
BRANCH  12  17
ATOM     17  O3* UNL     1     -37.690  22.080   1.410  0.00  0.00    -0.379 OA
ATOM     18  H3* UNL     1     -38.499  21.784   0.966  0.00  0.00    +0.211 HD
ENDBRANCH  12  17
BRANCH  14  19
ATOM     19  C5* UNL     1     -39.206  24.987   3.179  0.00  0.00    +0.169 C 
BRANCH  19  20
ATOM     20  O5* UNL     1     -38.722  26.311   3.322  0.00  0.00    -0.379 OA
ATOM     21  H5* UNL     1     -37.807  26.357   3.002  0.00  0.00    +0.211 HD
ENDBRANCH  19  20
ENDBRANCH  14  19
ENDBRANCH   2  13
BRANCH   4  22
ATOM     22  C   UNL     1     -31.885  27.714   6.062  0.00  0.00    +0.089 C 
BRANCH  22  23
ATOM     23  C   UNL     1     -31.800  29.080   6.736  0.00  0.00    +0.021 C 
BRANCH  23  24
ATOM     24  C   UNL     1     -30.396  29.675   6.615  0.00  0.00    -0.000 C 
BRANCH  24  25
ATOM     25  C   UNL     1     -29.378  28.617   6.185  0.00  0.00    -0.024 C 
BRANCH  25  26
ATOM     26  C   UNL     1     -28.334  28.381   7.274  0.00  0.00    -0.086 C 
BRANCH  26  27
ATOM     27  N   UNL     1     -28.554  29.289   8.394  0.00  0.00    +0.380 N 
ATOM     28  H   UNL     1     -29.462  29.093   8.815  0.00  0.00    -0.089 HD
ATOM     29  H   UNL     1     -28.534  30.252   8.059  0.00  0.00    -0.089 HD
ATOM     30  H   UNL     1     -27.821  29.154   9.089  0.00  0.00    -0.089 HD
ENDBRANCH  26  27
ENDBRANCH  25  26
ENDBRANCH  24  25
ENDBRANCH  23  24
ENDBRANCH  22  23
ENDBRANCH   4  22
TORSDOF 11
ENDMDL
MODEL 6
REMARK VINA RESULT:      -5.0      2.450      4.094
REMARK  Name = 191781
REMARK  11 active torsions:
REMARK  status: ('A' for Active; 'I' for Inactive)
REMARK    1  A    between atoms: N_2  and  C1*_13
REMARK    2  A    between atoms: N_4  and  C_22
REMARK    3  A    between atoms: C2*_11  and  O2*_15
REMARK    4  A    between atoms: C3*_12  and  O3*_17
REMARK    5  A    between atoms: C4*_14  and  C5*_19
REMARK    6  A    between atoms: C5*_19  and  O5*_20
REMARK    7  A    between atoms: C_22  and  C_23
REMARK    8  A    between atoms: C_23  and  C_24
REMARK    9  A    between atoms: C_24  and  C_25
REMARK   10  A    between atoms: C_25  and  C_26
REMARK   11  A    between atoms: C_26  and  N_27
REMARK                            x       y       z     vdW  Elec       q    Type
REMARK                         _______ _______ _______ _____ _____    ______ ____
ROOT
ATOM      1  O   UNL     1     -32.436  27.046   6.883  0.00  0.00    -0.193 OA
ATOM      2  N   UNL     1     -33.539  27.109   4.859  0.00  0.00    -0.178 N 
ATOM      3  N   UNL     1     -31.998  28.814   5.528  0.00  0.00    -0.306 NA
ATOM      4  N   UNL     1     -31.568  30.598   4.142  0.00  0.00    -0.308 N 
ATOM      5  C   UNL     1     -33.763  27.770   3.674  0.00  0.00    +0.083 C 
ATOM      6  C   UNL     1     -32.646  27.624   5.815  0.00  0.00    +0.276 C 
ATOM      7  C   UNL     1     -33.150  28.916   3.379  0.00  0.00    +0.065 C 
ATOM      8  C   UNL     1     -32.209  29.443   4.402  0.00  0.00    +0.196 C 
ATOM      9  H   UNL     1     -31.746  31.050   3.286  0.00  0.00    +0.149 HD
ENDROOT
BRANCH   2  13
ATOM     10  O4* UNL     1     -33.620  24.834   4.330  0.00  0.00    -0.332 OA
ATOM     11  C2* UNL     1     -35.690  25.949   4.619  0.00  0.00    +0.188 C 
ATOM     12  C3* UNL     1     -35.964  24.510   4.237  0.00  0.00    +0.171 C 
ATOM     13  C1* UNL     1     -34.247  25.882   5.086  0.00  0.00    +0.236 C 
ATOM     14  C4* UNL     1     -34.636  24.083   3.629  0.00  0.00    +0.175 C 
BRANCH  11  15
ATOM     15  O2* UNL     1     -36.567  26.414   5.625  0.00  0.00    -0.378 OA
ATOM     16  H2* UNL     1     -37.241  25.739   5.804  0.00  0.00    +0.211 HD
ENDBRANCH  11  15
BRANCH  12  17
ATOM     17  O3* UNL     1     -36.188  23.722   5.407  0.00  0.00    -0.379 OA
ATOM     18  H3* UNL     1     -37.007  24.009   5.838  0.00  0.00    +0.211 HD
ENDBRANCH  12  17
BRANCH  14  19
ATOM     19  C5* UNL     1     -34.522  24.401   2.145  0.00  0.00    +0.169 C 
BRANCH  19  20
ATOM     20  O5* UNL     1     -35.796  24.236   1.547  0.00  0.00    -0.379 OA
ATOM     21  H5* UNL     1     -35.717  24.333   0.585  0.00  0.00    +0.211 HD
ENDBRANCH  19  20
ENDBRANCH  14  19
ENDBRANCH   2  13
BRANCH   4  22
ATOM     22  C   UNL     1     -30.633  31.204   5.060  0.00  0.00    +0.089 C 
BRANCH  22  23
ATOM     23  C   UNL     1     -29.211  31.060   4.526  0.00  0.00    +0.021 C 
BRANCH  23  24
ATOM     24  C   UNL     1     -28.483  29.891   5.190  0.00  0.00    -0.000 C 
BRANCH  24  25
ATOM     25  C   UNL     1     -28.012  30.255   6.599  0.00  0.00    -0.024 C 
BRANCH  25  26
ATOM     26  C   UNL     1     -28.636  29.334   7.645  0.00  0.00    -0.086 C 
BRANCH  26  27
ATOM     27  N   UNL     1     -29.346  28.237   6.997  0.00  0.00    +0.380 N 
ATOM     28  H   UNL     1     -30.287  28.166   7.383  0.00  0.00    -0.089 HD
ATOM     29  H   UNL     1     -28.844  27.364   7.159  0.00  0.00    -0.089 HD
ATOM     30  H   UNL     1     -29.403  28.416   5.994  0.00  0.00    -0.089 HD
ENDBRANCH  26  27
ENDBRANCH  25  26
ENDBRANCH  24  25
ENDBRANCH  23  24
ENDBRANCH  22  23
ENDBRANCH   4  22
TORSDOF 11
ENDMDL
MODEL 7
REMARK VINA RESULT:      -5.0      1.842      3.343
REMARK  Name = 191781
REMARK  11 active torsions:
REMARK  status: ('A' for Active; 'I' for Inactive)
REMARK    1  A    between atoms: N_2  and  C1*_13
REMARK    2  A    between atoms: N_4  and  C_22
REMARK    3  A    between atoms: C2*_11  and  O2*_15
REMARK    4  A    between atoms: C3*_12  and  O3*_17
REMARK    5  A    between atoms: C4*_14  and  C5*_19
REMARK    6  A    between atoms: C5*_19  and  O5*_20
REMARK    7  A    between atoms: C_22  and  C_23
REMARK    8  A    between atoms: C_23  and  C_24
REMARK    9  A    between atoms: C_24  and  C_25
REMARK   10  A    between atoms: C_25  and  C_26
REMARK   11  A    between atoms: C_26  and  N_27
REMARK                            x       y       z     vdW  Elec       q    Type
REMARK                         _______ _______ _______ _____ _____    ______ ____
ROOT
ATOM      1  O   UNL     1     -34.144  26.649   5.858  0.00  0.00    -0.193 OA
ATOM      2  N   UNL     1     -34.668  26.180   3.662  0.00  0.00    -0.178 N 
ATOM      3  N   UNL     1     -32.570  27.141   4.297  0.00  0.00    -0.306 NA
ATOM      4  N   UNL     1     -30.990  27.634   2.701  0.00  0.00    -0.308 N 
ATOM      5  C   UNL     1     -34.282  26.198   2.342  0.00  0.00    +0.083 C 
ATOM      6  C   UNL     1     -33.812  26.656   4.671  0.00  0.00    +0.276 C 
ATOM      7  C   UNL     1     -33.092  26.661   1.962  0.00  0.00    +0.065 C 
ATOM      8  C   UNL     1     -32.202  27.158   3.043  0.00  0.00    +0.196 C 
ATOM      9  H   UNL     1     -30.738  27.635   1.750  0.00  0.00    +0.149 HD
ENDROOT
BRANCH   2  13
ATOM     10  O4* UNL     1     -35.840  24.297   4.404  0.00  0.00    -0.332 OA
ATOM     11  C2* UNL     1     -36.893  25.648   2.767  0.00  0.00    +0.188 C 
ATOM     12  C3* UNL     1     -37.790  24.468   3.071  0.00  0.00    +0.171 C 
ATOM     13  C1* UNL     1     -35.970  25.662   3.973  0.00  0.00    +0.236 C 
ATOM     14  C4* UNL     1     -36.820  23.489   3.718  0.00  0.00    +0.175 C 
BRANCH  11  15
ATOM     15  O2* UNL     1     -37.619  26.852   2.624  0.00  0.00    -0.378 OA
ATOM     16  H2* UNL     1     -38.301  26.740   1.943  0.00  0.00    +0.211 HD
ENDBRANCH  11  15
BRANCH  12  17
ATOM     17  O3* UNL     1     -38.769  24.828   4.045  0.00  0.00    -0.379 OA
ATOM     18  H3* UNL     1     -38.553  24.408   4.891  0.00  0.00    +0.211 HD
ENDBRANCH  12  17
BRANCH  14  19
ATOM     19  C5* UNL     1     -36.091  22.609   2.712  0.00  0.00    +0.169 C 
BRANCH  19  20
ATOM     20  O5* UNL     1     -36.509  21.268   2.894  0.00  0.00    -0.379 OA
ATOM     21  H5* UNL     1     -37.478  21.235   2.931  0.00  0.00    +0.211 HD
ENDBRANCH  19  20
ENDBRANCH  14  19
ENDBRANCH   2  13
BRANCH   4  22
ATOM     22  C   UNL     1     -30.042  28.142   3.665  0.00  0.00    +0.089 C 
BRANCH  22  23
ATOM     23  C   UNL     1     -29.902  29.653   3.511  0.00  0.00    +0.021 C 
BRANCH  23  24
ATOM     24  C   UNL     1     -30.549  30.395   4.682  0.00  0.00    -0.000 C 
BRANCH  24  25
ATOM     25  C   UNL     1     -30.348  29.642   5.998  0.00  0.00    -0.024 C 
BRANCH  25  26
ATOM     26  C   UNL     1     -31.633  29.616   6.822  0.00  0.00    -0.086 C 
BRANCH  26  27
ATOM     27  N   UNL     1     -31.958  28.250   7.213  0.00  0.00    +0.380 N 
ATOM     28  H   UNL     1     -31.147  27.824   7.663  0.00  0.00    -0.089 HD
ATOM     29  H   UNL     1     -32.211  27.710   6.386  0.00  0.00    -0.089 HD
ATOM     30  H   UNL     1     -32.741  28.261   7.866  0.00  0.00    -0.089 HD
ENDBRANCH  26  27
ENDBRANCH  25  26
ENDBRANCH  24  25
ENDBRANCH  23  24
ENDBRANCH  22  23
ENDBRANCH   4  22
TORSDOF 11
ENDMDL
MODEL 8
REMARK VINA RESULT:      -4.9      3.763      7.998
REMARK  Name = 191781
REMARK  11 active torsions:
REMARK  status: ('A' for Active; 'I' for Inactive)
REMARK    1  A    between atoms: N_2  and  C1*_13
REMARK    2  A    between atoms: N_4  and  C_22
REMARK    3  A    between atoms: C2*_11  and  O2*_15
REMARK    4  A    between atoms: C3*_12  and  O3*_17
REMARK    5  A    between atoms: C4*_14  and  C5*_19
REMARK    6  A    between atoms: C5*_19  and  O5*_20
REMARK    7  A    between atoms: C_22  and  C_23
REMARK    8  A    between atoms: C_23  and  C_24
REMARK    9  A    between atoms: C_24  and  C_25
REMARK   10  A    between atoms: C_25  and  C_26
REMARK   11  A    between atoms: C_26  and  N_27
REMARK                            x       y       z     vdW  Elec       q    Type
REMARK                         _______ _______ _______ _____ _____    ______ ____
ROOT
ATOM      1  O   UNL     1     -32.735  27.098   7.109  0.00  0.00    -0.193 OA
ATOM      2  N   UNL     1     -31.891  28.398   5.402  0.00  0.00    -0.178 N 
ATOM      3  N   UNL     1     -33.766  26.943   5.092  0.00  0.00    -0.306 NA
ATOM      4  N   UNL     1     -34.797  26.799   3.042  0.00  0.00    -0.308 N 
ATOM      5  C   UNL     1     -31.971  28.788   4.085  0.00  0.00    +0.083 C 
ATOM      6  C   UNL     1     -32.795  27.460   5.933  0.00  0.00    +0.276 C 
ATOM      7  C   UNL     1     -32.898  28.303   3.261  0.00  0.00    +0.065 C 
ATOM      8  C   UNL     1     -33.844  27.314   3.841  0.00  0.00    +0.196 C 
ATOM      9  H   UNL     1     -34.832  27.096   2.104  0.00  0.00    +0.149 HD
ENDROOT
BRANCH   2  13
ATOM     10  O4* UNL     1     -30.603  30.316   5.758  0.00  0.00    -0.332 OA
ATOM     11  C2* UNL     1     -29.542  28.225   6.099  0.00  0.00    +0.188 C 
ATOM     12  C3* UNL     1     -28.530  29.326   6.334  0.00  0.00    +0.171 C 
ATOM     13  C1* UNL     1     -30.858  28.977   6.211  0.00  0.00    +0.236 C 
ATOM     14  C4* UNL     1     -29.177  30.510   5.629  0.00  0.00    +0.175 C 
BRANCH  11  15
ATOM     15  O2* UNL     1     -29.430  27.182   7.046  0.00  0.00    -0.378 OA
ATOM     16  H2* UNL     1     -30.081  27.315   7.753  0.00  0.00    +0.211 HD
ENDBRANCH  11  15
BRANCH  12  17
ATOM     17  O3* UNL     1     -28.446  29.633   7.725  0.00  0.00    -0.379 OA
ATOM     18  H3* UNL     1     -27.646  30.153   7.894  0.00  0.00    +0.211 HD
ENDBRANCH  12  17
BRANCH  14  19
ATOM     19  C5* UNL     1     -28.841  30.586   4.146  0.00  0.00    +0.169 C 
BRANCH  19  20
ATOM     20  O5* UNL     1     -29.729  31.499   3.526  0.00  0.00    -0.379 OA
ATOM     21  H5* UNL     1     -30.596  31.450   3.958  0.00  0.00    +0.211 HD
ENDBRANCH  19  20
ENDBRANCH  14  19
ENDBRANCH   2  13
BRANCH   4  22
ATOM     22  C   UNL     1     -35.768  25.833   3.495  0.00  0.00    +0.089 C 
BRANCH  22  23
ATOM     23  C   UNL     1     -35.267  24.419   3.218  0.00  0.00    +0.021 C 
BRANCH  23  24
ATOM     24  C   UNL     1     -35.849  23.416   4.216  0.00  0.00    -0.000 C 
BRANCH  24  25
ATOM     25  C   UNL     1     -35.050  23.399   5.520  0.00  0.00    -0.024 C 
BRANCH  25  26
ATOM     26  C   UNL     1     -35.466  22.229   6.407  0.00  0.00    -0.086 C 
BRANCH  26  27
ATOM     27  N   UNL     1     -35.138  20.962   5.763  0.00  0.00    +0.380 N 
ATOM     28  H   UNL     1     -34.147  20.761   5.896  0.00  0.00    -0.089 HD
ATOM     29  H   UNL     1     -35.343  21.025   4.766  0.00  0.00    -0.089 HD
ATOM     30  H   UNL     1     -35.695  20.216   6.179  0.00  0.00    -0.089 HD
ENDBRANCH  26  27
ENDBRANCH  25  26
ENDBRANCH  24  25
ENDBRANCH  23  24
ENDBRANCH  22  23
ENDBRANCH   4  22
TORSDOF 11
ENDMDL
MODEL 9
REMARK VINA RESULT:      -4.8      2.021      2.678
REMARK  Name = 191781
REMARK  11 active torsions:
REMARK  status: ('A' for Active; 'I' for Inactive)
REMARK    1  A    between atoms: N_2  and  C1*_13
REMARK    2  A    between atoms: N_4  and  C_22
REMARK    3  A    between atoms: C2*_11  and  O2*_15
REMARK    4  A    between atoms: C3*_12  and  O3*_17
REMARK    5  A    between atoms: C4*_14  and  C5*_19
REMARK    6  A    between atoms: C5*_19  and  O5*_20
REMARK    7  A    between atoms: C_22  and  C_23
REMARK    8  A    between atoms: C_23  and  C_24
REMARK    9  A    between atoms: C_24  and  C_25
REMARK   10  A    between atoms: C_25  and  C_26
REMARK   11  A    between atoms: C_26  and  N_27
REMARK                            x       y       z     vdW  Elec       q    Type
REMARK                         _______ _______ _______ _____ _____    ______ ____
ROOT
ATOM      1  O   UNL     1     -34.102  24.247   1.412  0.00  0.00    -0.193 OA
ATOM      2  N   UNL     1     -35.396  22.990   2.848  0.00  0.00    -0.178 N 
ATOM      3  N   UNL     1     -34.199  24.931   3.575  0.00  0.00    -0.306 NA
ATOM      4  N   UNL     1     -34.309  25.606   5.770  0.00  0.00    -0.308 N 
ATOM      5  C   UNL     1     -35.875  22.802   4.124  0.00  0.00    +0.083 C 
ATOM      6  C   UNL     1     -34.541  24.066   2.549  0.00  0.00    +0.276 C 
ATOM      7  C   UNL     1     -35.557  23.622   5.124  0.00  0.00    +0.065 C 
ATOM      8  C   UNL     1     -34.654  24.754   4.787  0.00  0.00    +0.196 C 
ATOM      9  H   UNL     1     -34.666  25.450   6.673  0.00  0.00    +0.149 HD
ENDROOT
BRANCH   2  13
ATOM     10  O4* UNL     1     -36.973  22.547   1.179  0.00  0.00    -0.332 OA
ATOM     11  C2* UNL     1     -36.159  20.695   2.414  0.00  0.00    +0.188 C 
ATOM     12  C3* UNL     1     -37.195  20.202   1.427  0.00  0.00    +0.171 C 
ATOM     13  C1* UNL     1     -35.794  22.052   1.837  0.00  0.00    +0.236 C 
ATOM     14  C4* UNL     1     -37.944  21.482   1.084  0.00  0.00    +0.175 C 
BRANCH  11  15
ATOM     15  O2* UNL     1     -35.047  19.827   2.506  0.00  0.00    -0.378 OA
ATOM     16  H2* UNL     1     -34.968  19.316   1.685  0.00  0.00    +0.211 HD
ENDBRANCH  11  15
BRANCH  12  17
ATOM     17  O3* UNL     1     -36.560  19.730   0.239  0.00  0.00    -0.379 OA
ATOM     18  H3* UNL     1     -37.150  19.864  -0.518  0.00  0.00    +0.211 HD
ENDBRANCH  12  17
BRANCH  14  19
ATOM     19  C5* UNL     1     -39.082  21.790   2.046  0.00  0.00    +0.169 C 
BRANCH  19  20
ATOM     20  O5* UNL     1     -40.160  20.914   1.769  0.00  0.00    -0.379 OA
ATOM     21  H5* UNL     1     -40.179  20.715   0.820  0.00  0.00    +0.211 HD
ENDBRANCH  19  20
ENDBRANCH  14  19
ENDBRANCH   2  13
BRANCH   4  22
ATOM     22  C   UNL     1     -33.440  26.740   5.560  0.00  0.00    +0.089 C 
BRANCH  22  23
ATOM     23  C   UNL     1     -32.772  27.136   6.874  0.00  0.00    +0.021 C 
BRANCH  23  24
ATOM     24  C   UNL     1     -31.916  28.392   6.707  0.00  0.00    -0.000 C 
BRANCH  24  25
ATOM     25  C   UNL     1     -31.308  28.469   5.306  0.00  0.00    -0.024 C 
BRANCH  25  26
ATOM     26  C   UNL     1     -31.798  29.708   4.559  0.00  0.00    -0.086 C 
BRANCH  26  27
ATOM     27  N   UNL     1     -32.594  30.551   5.443  0.00  0.00    +0.380 N 
ATOM     28  H   UNL     1     -32.954  29.989   6.215  0.00  0.00    -0.089 HD
ATOM     29  H   UNL     1     -33.374  30.950   4.920  0.00  0.00    -0.089 HD
ATOM     30  H   UNL     1     -32.012  31.302   5.812  0.00  0.00    -0.089 HD
ENDBRANCH  26  27
ENDBRANCH  25  26
ENDBRANCH  24  25
ENDBRANCH  23  24
ENDBRANCH  22  23
ENDBRANCH   4  22
TORSDOF 11
ENDMDL
