MODEL 1
REMARK VINA RESULT:      -6.0      0.000      0.000
REMARK  Name = 5215
REMARK  3 active torsions:
REMARK  status: ('A' for Active; 'I' for Inactive)
REMARK    1  A    between atoms: S_1  and  N_4
REMARK    2  A    between atoms: S_1  and  C_12
REMARK    3  A    between atoms: C_15  and  N_18
REMARK                            x       y       z     vdW  Elec       q    Type
REMARK                         _______ _______ _______ _____ _____    ______ ____
ROOT
ATOM      1  S   UNL     1     -33.700  27.003   4.039  0.00  0.00    +0.081 S 
ATOM      2  O   UNL     1     -34.821  27.895   3.767  0.00  0.00    -0.149 OA
ATOM      3  O   UNL     1     -32.575  26.988   3.112  0.00  0.00    -0.149 OA
ENDROOT
BRANCH   1   4
ATOM      4  N   UNL     1     -33.131  27.328   5.632  0.00  0.00    -0.158 N 
ATOM      5  N   UNL     1     -30.884  27.745   6.216  0.00  0.00    -0.202 NA
ATOM      6  N   UNL     1     -32.317  29.537   5.481  0.00  0.00    -0.180 NA
ATOM      7  C   UNL     1     -32.045  28.260   5.787  0.00  0.00    +0.106 C 
ATOM      8  C   UNL     1     -29.887  28.645   6.349  0.00  0.00    +0.165 C 
ATOM      9  C   UNL     1     -31.277  30.383   5.636  0.00  0.00    +0.108 C 
ATOM     10  C   UNL     1     -30.027  29.990   6.071  0.00  0.00    +0.022 C 
ATOM     11  H   UNL     1     -33.537  26.889   6.415  0.00  0.00    +0.186 HD
ENDBRANCH   1   4
BRANCH   1  12
ATOM     12  C   UNL     1     -34.333  25.381   4.177  0.00  0.00    +0.126 C 
ATOM     13  C   UNL     1     -34.622  24.646   3.027  0.00  0.00    +0.021 C 
ATOM     14  C   UNL     1     -34.549  24.822   5.435  0.00  0.00    +0.021 C 
ATOM     15  C   UNL     1     -35.345  22.791   4.396  0.00  0.00    +0.042 C 
ATOM     16  C   UNL     1     -35.128  23.351   3.137  0.00  0.00    +0.015 C 
ATOM     17  C   UNL     1     -35.055  23.527   5.546  0.00  0.00    +0.015 C 
BRANCH  15  18
ATOM     18  N   UNL     1     -35.855  21.481   4.507  0.00  0.00    -0.357 N 
ATOM     19  H   UNL     1     -36.824  21.322   4.435  0.00  0.00    +0.142 HD
ATOM     20  H   UNL     1     -35.242  20.725   4.656  0.00  0.00    +0.142 HD
ENDBRANCH  15  18
ENDBRANCH   1  12
TORSDOF 3
ENDMDL
MODEL 2
REMARK VINA RESULT:      -5.7      4.651      6.843
REMARK  Name = 5215
REMARK  3 active torsions:
REMARK  status: ('A' for Active; 'I' for Inactive)
REMARK    1  A    between atoms: S_1  and  N_4
REMARK    2  A    between atoms: S_1  and  C_12
REMARK    3  A    between atoms: C_15  and  N_18
REMARK                            x       y       z     vdW  Elec       q    Type
REMARK                         _______ _______ _______ _____ _____    ______ ____
ROOT
ATOM      1  S   UNL     1     -36.371  25.915   3.021  0.00  0.00    +0.081 S 
ATOM      2  O   UNL     1     -36.432  25.605   1.597  0.00  0.00    -0.149 OA
ATOM      3  O   UNL     1     -35.465  26.965   3.471  0.00  0.00    -0.149 OA
ENDROOT
BRANCH   1   4
ATOM      4  N   UNL     1     -37.969  26.259   3.564  0.00  0.00    -0.158 N 
ATOM      5  N   UNL     1     -39.822  26.674   2.166  0.00  0.00    -0.202 NA
ATOM      6  N   UNL     1     -39.221  24.422   2.776  0.00  0.00    -0.180 NA
ATOM      7  C   UNL     1     -39.071  25.755   2.789  0.00  0.00    +0.106 C 
ATOM      8  C   UNL     1     -40.846  26.167   1.447  0.00  0.00    +0.165 C 
ATOM      9  C   UNL     1     -40.263  23.983   2.040  0.00  0.00    +0.108 C 
ATOM     10  C   UNL     1     -41.117  24.817   1.347  0.00  0.00    +0.022 C 
ATOM     11  H   UNL     1     -38.123  26.786   4.381  0.00  0.00    +0.186 HD
ENDBRANCH   1   4
BRANCH   1  12
ATOM     12  C   UNL     1     -35.981  24.440   3.870  0.00  0.00    +0.126 C 
ATOM     13  C   UNL     1     -35.764  24.466   5.248  0.00  0.00    +0.021 C 
ATOM     14  C   UNL     1     -35.887  23.237   3.172  0.00  0.00    +0.021 C 
ATOM     15  C   UNL     1     -35.358  22.085   5.228  0.00  0.00    +0.042 C 
ATOM     16  C   UNL     1     -35.452  23.289   5.927  0.00  0.00    +0.015 C 
ATOM     17  C   UNL     1     -35.575  22.059   3.851  0.00  0.00    +0.015 C 
BRANCH  15  18
ATOM     18  N   UNL     1     -35.044  20.893   5.915  0.00  0.00    -0.357 N 
ATOM     19  H   UNL     1     -34.388  20.264   5.535  0.00  0.00    +0.142 HD
ATOM     20  H   UNL     1     -35.480  20.691   6.774  0.00  0.00    +0.142 HD
ENDBRANCH  15  18
ENDBRANCH   1  12
TORSDOF 3
ENDMDL
MODEL 3
REMARK VINA RESULT:      -5.6      5.548      7.353
REMARK  Name = 5215
REMARK  3 active torsions:
REMARK  status: ('A' for Active; 'I' for Inactive)
REMARK    1  A    between atoms: S_1  and  N_4
REMARK    2  A    between atoms: S_1  and  C_12
REMARK    3  A    between atoms: C_15  and  N_18
REMARK                            x       y       z     vdW  Elec       q    Type
REMARK                         _______ _______ _______ _____ _____    ______ ____
ROOT
ATOM      1  S   UNL     1     -34.792  21.493   0.814  0.00  0.00    +0.081 S 
ATOM      2  O   UNL     1     -35.542  21.350  -0.428  0.00  0.00    -0.149 OA
ATOM      3  O   UNL     1     -34.204  22.788   1.133  0.00  0.00    -0.149 OA
ENDROOT
BRANCH   1   4
ATOM      4  N   UNL     1     -35.802  20.982   2.112  0.00  0.00    -0.158 N 
ATOM      5  N   UNL     1     -35.171  20.915   4.383  0.00  0.00    -0.202 NA
ATOM      6  N   UNL     1     -36.052  22.935   3.411  0.00  0.00    -0.180 NA
ATOM      7  C   UNL     1     -35.668  21.651   3.379  0.00  0.00    +0.106 C 
ATOM      8  C   UNL     1     -35.056  21.573   5.557  0.00  0.00    +0.165 C 
ATOM      9  C   UNL     1     -35.912  23.532   4.613  0.00  0.00    +0.108 C 
ATOM     10  C   UNL     1     -35.415  22.894   5.732  0.00  0.00    +0.022 C 
ATOM     11  H   UNL     1     -36.454  20.253   1.991  0.00  0.00    +0.186 HD
ENDBRANCH   1   4
BRANCH   1  12
ATOM     12  C   UNL     1     -33.526  20.290   0.812  0.00  0.00    +0.126 C 
ATOM     13  C   UNL     1     -32.330  20.538   0.137  0.00  0.00    +0.021 C 
ATOM     14  C   UNL     1     -33.710  19.082   1.483  0.00  0.00    +0.021 C 
ATOM     15  C   UNL     1     -31.503  18.369   0.806  0.00  0.00    +0.042 C 
ATOM     16  C   UNL     1     -31.319  19.578   0.134  0.00  0.00    +0.015 C 
ATOM     17  C   UNL     1     -32.699  18.121   1.481  0.00  0.00    +0.015 C 
BRANCH  15  18
ATOM     18  N   UNL     1     -30.480  17.398   0.804  0.00  0.00    -0.357 N 
ATOM     19  H   UNL     1     -29.998  17.192  -0.029  0.00  0.00    +0.142 HD
ATOM     20  H   UNL     1     -30.249  16.926   1.637  0.00  0.00    +0.142 HD
ENDBRANCH  15  18
ENDBRANCH   1  12
TORSDOF 3
ENDMDL
MODEL 4
REMARK VINA RESULT:      -5.5      3.569      6.724
REMARK  Name = 5215
REMARK  3 active torsions:
REMARK  status: ('A' for Active; 'I' for Inactive)
REMARK    1  A    between atoms: S_1  and  N_4
REMARK    2  A    between atoms: S_1  and  C_12
REMARK    3  A    between atoms: C_15  and  N_18
REMARK                            x       y       z     vdW  Elec       q    Type
REMARK                         _______ _______ _______ _____ _____    ______ ____
ROOT
ATOM      1  S   UNL     1     -35.637  22.135   3.399  0.00  0.00    +0.081 S 
ATOM      2  O   UNL     1     -35.349  21.157   4.442  0.00  0.00    -0.149 OA
ATOM      3  O   UNL     1     -35.175  21.870   2.042  0.00  0.00    -0.149 OA
ENDROOT
BRANCH   1   4
ATOM      4  N   UNL     1     -37.336  22.417   3.385  0.00  0.00    -0.158 N 
ATOM      5  N   UNL     1     -38.369  24.522   3.642  0.00  0.00    -0.202 NA
ATOM      6  N   UNL     1     -37.651  23.762   1.472  0.00  0.00    -0.180 NA
ATOM      7  C   UNL     1     -37.815  23.640   2.798  0.00  0.00    +0.106 C 
ATOM      8  C   UNL     1     -38.806  25.658   3.059  0.00  0.00    +0.165 C 
ATOM      9  C   UNL     1     -38.109  24.920   0.955  0.00  0.00    +0.108 C 
ATOM     10  C   UNL     1     -38.701  25.915   1.707  0.00  0.00    +0.022 C 
ATOM     11  H   UNL     1     -37.963  21.760   3.767  0.00  0.00    +0.186 HD
ENDBRANCH   1   4
BRANCH   1  12
ATOM     12  C   UNL     1     -34.993  23.673   3.918  0.00  0.00    +0.126 C 
ATOM     13  C   UNL     1     -35.090  24.052   5.257  0.00  0.00    +0.021 C 
ATOM     14  C   UNL     1     -34.383  24.521   2.995  0.00  0.00    +0.021 C 
ATOM     15  C   UNL     1     -33.966  26.130   4.748  0.00  0.00    +0.042 C 
ATOM     16  C   UNL     1     -34.576  25.281   5.672  0.00  0.00    +0.015 C 
ATOM     17  C   UNL     1     -33.869  25.749   3.409  0.00  0.00    +0.015 C 
BRANCH  15  18
ATOM     18  N   UNL     1     -33.445  27.372   5.168  0.00  0.00    -0.357 N 
ATOM     19  H   UNL     1     -32.892  27.907   4.553  0.00  0.00    +0.142 HD
ATOM     20  H   UNL     1     -33.634  27.703   6.075  0.00  0.00    +0.142 HD
ENDBRANCH  15  18
ENDBRANCH   1  12
TORSDOF 3
ENDMDL
MODEL 5
REMARK VINA RESULT:      -5.5      4.317      5.904
REMARK  Name = 5215
REMARK  3 active torsions:
REMARK  status: ('A' for Active; 'I' for Inactive)
REMARK    1  A    between atoms: S_1  and  N_4
REMARK    2  A    between atoms: S_1  and  C_12
REMARK    3  A    between atoms: C_15  and  N_18
REMARK                            x       y       z     vdW  Elec       q    Type
REMARK                         _______ _______ _______ _____ _____    ______ ____
ROOT
ATOM      1  S   UNL     1     -37.183  22.515   2.444  0.00  0.00    +0.081 S 
ATOM      2  O   UNL     1     -38.618  22.253   2.435  0.00  0.00    -0.149 OA
ATOM      3  O   UNL     1     -36.683  23.707   1.770  0.00  0.00    -0.149 OA
ENDROOT
BRANCH   1   4
ATOM      4  N   UNL     1     -36.648  22.510   4.081  0.00  0.00    -0.158 N 
ATOM      5  N   UNL     1     -34.734  23.626   4.891  0.00  0.00    -0.202 NA
ATOM      6  N   UNL     1     -36.848  24.770   4.728  0.00  0.00    -0.180 NA
ATOM      7  C   UNL     1     -36.040  23.707   4.599  0.00  0.00    +0.106 C 
ATOM      8  C   UNL     1     -34.195  24.766   5.372  0.00  0.00    +0.165 C 
ATOM      9  C   UNL     1     -36.246  25.875   5.214  0.00  0.00    +0.108 C 
ATOM     10  C   UNL     1     -34.910  25.933   5.557  0.00  0.00    +0.022 C 
ATOM     11  H   UNL     1     -36.755  21.712   4.647  0.00  0.00    +0.186 HD
ENDBRANCH   1   4
BRANCH   1  12
ATOM     12  C   UNL     1     -36.384  21.115   1.771  0.00  0.00    +0.126 C 
ATOM     13  C   UNL     1     -37.065  20.284   0.882  0.00  0.00    +0.021 C 
ATOM     14  C   UNL     1     -35.066  20.829   2.123  0.00  0.00    +0.021 C 
ATOM     15  C   UNL     1     -35.108  18.879   0.698  0.00  0.00    +0.042 C 
ATOM     16  C   UNL     1     -36.427  19.166   0.345  0.00  0.00    +0.015 C 
ATOM     17  C   UNL     1     -34.427  19.711   1.586  0.00  0.00    +0.015 C 
BRANCH  15  18
ATOM     18  N   UNL     1     -34.462  17.749   0.153  0.00  0.00    -0.357 N 
ATOM     19  H   UNL     1     -34.678  17.452  -0.760  0.00  0.00    +0.142 HD
ATOM     20  H   UNL     1     -33.796  17.259   0.687  0.00  0.00    +0.142 HD
ENDBRANCH  15  18
ENDBRANCH   1  12
TORSDOF 3
ENDMDL
MODEL 6
REMARK VINA RESULT:      -5.4      3.720      7.000
REMARK  Name = 5215
REMARK  3 active torsions:
REMARK  status: ('A' for Active; 'I' for Inactive)
REMARK    1  A    between atoms: S_1  and  N_4
REMARK    2  A    between atoms: S_1  and  C_12
REMARK    3  A    between atoms: C_15  and  N_18
REMARK                            x       y       z     vdW  Elec       q    Type
REMARK                         _______ _______ _______ _____ _____    ______ ____
ROOT
ATOM      1  S   UNL     1     -35.910  24.933   4.288  0.00  0.00    +0.081 S 
ATOM      2  O   UNL     1     -36.127  24.008   5.394  0.00  0.00    -0.149 OA
ATOM      3  O   UNL     1     -35.627  24.390   2.965  0.00  0.00    -0.149 OA
ENDROOT
BRANCH   1   4
ATOM      4  N   UNL     1     -37.268  25.989   4.200  0.00  0.00    -0.158 N 
ATOM      5  N   UNL     1     -38.434  26.545   2.227  0.00  0.00    -0.202 NA
ATOM      6  N   UNL     1     -39.015  24.575   3.485  0.00  0.00    -0.180 NA
ATOM      7  C   UNL     1     -38.302  25.686   3.247  0.00  0.00    +0.106 C 
ATOM      8  C   UNL     1     -39.412  26.230   1.351  0.00  0.00    +0.165 C 
ATOM      9  C   UNL     1     -39.975  24.320   2.573  0.00  0.00    +0.108 C 
ATOM     10  C   UNL     1     -40.222  25.119   1.475  0.00  0.00    +0.022 C 
ATOM     11  H   UNL     1     -37.334  26.779   4.785  0.00  0.00    +0.186 HD
ENDBRANCH   1   4
BRANCH   1  12
ATOM     12  C   UNL     1     -34.611  26.008   4.740  0.00  0.00    +0.126 C 
ATOM     13  C   UNL     1     -34.148  26.027   6.056  0.00  0.00    +0.021 C 
ATOM     14  C   UNL     1     -34.037  26.848   3.787  0.00  0.00    +0.021 C 
ATOM     15  C   UNL     1     -32.537  27.727   5.465  0.00  0.00    +0.042 C 
ATOM     16  C   UNL     1     -33.111  26.886   6.419  0.00  0.00    +0.015 C 
ATOM     17  C   UNL     1     -32.999  27.707   4.149  0.00  0.00    +0.015 C 
BRANCH  15  18
ATOM     18  N   UNL     1     -31.486  28.595   5.830  0.00  0.00    -0.357 N 
ATOM     19  H   UNL     1     -31.341  28.819   6.778  0.00  0.00    +0.142 HD
ATOM     20  H   UNL     1     -30.900  28.976   5.138  0.00  0.00    +0.142 HD
ENDBRANCH  15  18
ENDBRANCH   1  12
TORSDOF 3
ENDMDL
MODEL 7
REMARK VINA RESULT:      -5.4      1.391      1.810
REMARK  Name = 5215
REMARK  3 active torsions:
REMARK  status: ('A' for Active; 'I' for Inactive)
REMARK    1  A    between atoms: S_1  and  N_4
REMARK    2  A    between atoms: S_1  and  C_12
REMARK    3  A    between atoms: C_15  and  N_18
REMARK                            x       y       z     vdW  Elec       q    Type
REMARK                         _______ _______ _______ _____ _____    ______ ____
ROOT
ATOM      1  S   UNL     1     -34.796  26.383   3.335  0.00  0.00    +0.081 S 
ATOM      2  O   UNL     1     -35.416  27.362   4.221  0.00  0.00    -0.149 OA
ATOM      3  O   UNL     1     -35.230  26.322   1.944  0.00  0.00    -0.149 OA
ENDROOT
BRANCH   1   4
ATOM      4  N   UNL     1     -33.089  26.611   3.396  0.00  0.00    -0.158 N 
ATOM      5  N   UNL     1     -32.003  28.663   3.810  0.00  0.00    -0.202 NA
ATOM      6  N   UNL     1     -32.704  27.253   5.633  0.00  0.00    -0.180 NA
ATOM      7  C   UNL     1     -32.566  27.566   4.336  0.00  0.00    +0.106 C 
ATOM      8  C   UNL     1     -31.524  29.538   4.719  0.00  0.00    +0.165 C 
ATOM      9  C   UNL     1     -32.204  28.170   6.487  0.00  0.00    +0.108 C 
ATOM     10  C   UNL     1     -31.598  29.343   6.083  0.00  0.00    +0.022 C 
ATOM     11  H   UNL     1     -32.489  26.101   2.805  0.00  0.00    +0.186 HD
ENDBRANCH   1   4
BRANCH   1  12
ATOM     12  C   UNL     1     -35.003  24.806   4.055  0.00  0.00    +0.126 C 
ATOM     13  C   UNL     1     -35.168  23.685   3.241  0.00  0.00    +0.021 C 
ATOM     14  C   UNL     1     -35.005  24.668   5.442  0.00  0.00    +0.021 C 
ATOM     15  C   UNL     1     -35.336  22.287   5.204  0.00  0.00    +0.042 C 
ATOM     16  C   UNL     1     -35.334  22.425   3.816  0.00  0.00    +0.015 C 
ATOM     17  C   UNL     1     -35.171  23.408   6.017  0.00  0.00    +0.015 C 
BRANCH  15  18
ATOM     18  N   UNL     1     -35.503  21.012   5.786  0.00  0.00    -0.357 N 
ATOM     19  H   UNL     1     -36.362  20.770   6.202  0.00  0.00    +0.142 HD
ATOM     20  H   UNL     1     -34.761  20.366   5.775  0.00  0.00    +0.142 HD
ENDBRANCH  15  18
ENDBRANCH   1  12
TORSDOF 3
ENDMDL
MODEL 8
REMARK VINA RESULT:      -5.4      5.155      9.152
REMARK  Name = 5215
REMARK  3 active torsions:
REMARK  status: ('A' for Active; 'I' for Inactive)
REMARK    1  A    between atoms: S_1  and  N_4
REMARK    2  A    between atoms: S_1  and  C_12
REMARK    3  A    between atoms: C_15  and  N_18
REMARK                            x       y       z     vdW  Elec       q    Type
REMARK                         _______ _______ _______ _____ _____    ______ ____
ROOT
ATOM      1  S   UNL     1     -36.914  21.479   2.144  0.00  0.00    +0.081 S 
ATOM      2  O   UNL     1     -36.197  20.393   2.802  0.00  0.00    -0.149 OA
ATOM      3  O   UNL     1     -36.551  21.831   0.777  0.00  0.00    -0.149 OA
ENDROOT
BRANCH   1   4
ATOM      4  N   UNL     1     -38.599  21.134   2.223  0.00  0.00    -0.158 N 
ATOM      5  N   UNL     1     -40.260  22.149   0.890  0.00  0.00    -0.202 NA
ATOM      6  N   UNL     1     -39.068  20.209   0.104  0.00  0.00    -0.180 NA
ATOM      7  C   UNL     1     -39.355  21.165   0.999  0.00  0.00    +0.106 C 
ATOM      8  C   UNL     1     -40.950  22.150  -0.270  0.00  0.00    +0.165 C 
ATOM      9  C   UNL     1     -39.793  20.268  -1.032  0.00  0.00    +0.108 C 
ATOM     10  C   UNL     1     -40.757  21.225  -1.276  0.00  0.00    +0.022 C 
ATOM     11  H   UNL     1     -39.033  20.921   3.081  0.00  0.00    +0.186 HD
ENDBRANCH   1   4
BRANCH   1  12
ATOM     12  C   UNL     1     -36.761  22.901   3.146  0.00  0.00    +0.126 C 
ATOM     13  C   UNL     1     -35.877  22.901   4.225  0.00  0.00    +0.021 C 
ATOM     14  C   UNL     1     -37.524  24.034   2.869  0.00  0.00    +0.021 C 
ATOM     15  C   UNL     1     -36.519  25.170   4.749  0.00  0.00    +0.042 C 
ATOM     16  C   UNL     1     -35.756  24.036   5.027  0.00  0.00    +0.015 C 
ATOM     17  C   UNL     1     -37.403  25.170   3.670  0.00  0.00    +0.015 C 
BRANCH  15  18
ATOM     18  N   UNL     1     -36.396  26.319   5.559  0.00  0.00    -0.357 N 
ATOM     19  H   UNL     1     -35.670  26.964   5.392  0.00  0.00    +0.142 HD
ATOM     20  H   UNL     1     -37.035  26.476   6.291  0.00  0.00    +0.142 HD
ENDBRANCH  15  18
ENDBRANCH   1  12
TORSDOF 3
ENDMDL
MODEL 9
REMARK VINA RESULT:      -5.4      4.560      6.219
REMARK  Name = 5215
REMARK  3 active torsions:
REMARK  status: ('A' for Active; 'I' for Inactive)
REMARK    1  A    between atoms: S_1  and  N_4
REMARK    2  A    between atoms: S_1  and  C_12
REMARK    3  A    between atoms: C_15  and  N_18
REMARK                            x       y       z     vdW  Elec       q    Type
REMARK                         _______ _______ _______ _____ _____    ______ ____
ROOT
ATOM      1  S   UNL     1     -36.425  22.055   1.893  0.00  0.00    +0.081 S 
ATOM      2  O   UNL     1     -37.578  21.231   1.548  0.00  0.00    -0.149 OA
ATOM      3  O   UNL     1     -36.356  23.417   1.377  0.00  0.00    -0.149 OA
ENDROOT
BRANCH   1   4
ATOM      4  N   UNL     1     -36.280  22.081   3.609  0.00  0.00    -0.158 N 
ATOM      5  N   UNL     1     -34.836  23.488   4.833  0.00  0.00    -0.202 NA
ATOM      6  N   UNL     1     -37.033  24.239   4.190  0.00  0.00    -0.180 NA
ATOM      7  C   UNL     1     -36.035  23.345   4.250  0.00  0.00    +0.106 C 
ATOM      8  C   UNL     1     -34.639  24.686   5.422  0.00  0.00    +0.165 C 
ATOM      9  C   UNL     1     -36.770  25.414   4.799  0.00  0.00    +0.108 C 
ATOM     10  C   UNL     1     -35.579  25.697   5.437  0.00  0.00    +0.022 C 
ATOM     11  H   UNL     1     -36.362  21.253   4.137  0.00  0.00    +0.186 HD
ENDBRANCH   1   4
BRANCH   1  12
ATOM     12  C   UNL     1     -34.989  21.196   1.395  0.00  0.00    +0.126 C 
ATOM     13  C   UNL     1     -34.736  19.916   1.890  0.00  0.00    +0.021 C 
ATOM     14  C   UNL     1     -34.095  21.788   0.505  0.00  0.00    +0.021 C 
ATOM     15  C   UNL     1     -32.694  19.823   0.602  0.00  0.00    +0.042 C 
ATOM     16  C   UNL     1     -33.589  19.229   1.493  0.00  0.00    +0.015 C 
ATOM     17  C   UNL     1     -32.947  21.103   0.108  0.00  0.00    +0.015 C 
BRANCH  15  18
ATOM     18  N   UNL     1     -31.534  19.128   0.200  0.00  0.00    -0.357 N 
ATOM     19  H   UNL     1     -31.226  18.345   0.712  0.00  0.00    +0.142 HD
ATOM     20  H   UNL     1     -31.032  19.426  -0.593  0.00  0.00    +0.142 HD
ENDBRANCH  15  18
ENDBRANCH   1  12
TORSDOF 3
ENDMDL
