MODEL 1
REMARK VINA RESULT:      -4.8      0.000      0.000
REMARK  Name = 21118785
REMARK  8 active torsions:
REMARK  status: ('A' for Active; 'I' for Inactive)
REMARK    1  A    between atoms: N_2  and  C_14
REMARK    2  A    between atoms: C_3  and  C_5
REMARK    3  A    between atoms: C_5  and  C_6
REMARK    4  A    between atoms: C_5  and  O_12
REMARK    5  A    between atoms: C_6  and  C_9
REMARK    6  A    between atoms: C_9  and  O_10
REMARK    7  A    between atoms: C_14  and  C_15
REMARK    8  A    between atoms: C_15  and  S_16
REMARK                            x       y       z     vdW  Elec       q    Type
REMARK                         _______ _______ _______ _____ _____    ______ ____
ROOT
ATOM      1  O   UNL     1     -37.323  25.671   2.815  0.00  0.00    -0.272 OA
ATOM      2  N   UNL     1     -37.306  23.465   3.536  0.00  0.00    -0.301 N 
ATOM      3  C   UNL     1     -37.069  24.824   3.670  0.00  0.00    +0.249 C 
ATOM      4  H   UNL     1     -37.065  22.870   4.282  0.00  0.00    +0.150 HD
ENDROOT
BRANCH   3   5
ATOM      5  C   UNL     1     -36.419  25.182   5.005  0.00  0.00    +0.189 C 
BRANCH   5   6
ATOM      6  C   UNL     1     -34.892  24.879   5.075  0.00  0.00    +0.060 C 
ATOM      7  C   UNL     1     -34.222  25.939   5.982  0.00  0.00    +0.005 C 
ATOM      8  C   UNL     1     -34.243  24.985   3.681  0.00  0.00    +0.005 C 
BRANCH   6   9
ATOM      9  C   UNL     1     -34.628  23.475   5.670  0.00  0.00    +0.140 C 
BRANCH   9  10
ATOM     10  O   UNL     1     -35.845  22.842   6.050  0.00  0.00    -0.382 OA
ATOM     11  H   UNL     1     -36.251  23.335   6.780  0.00  0.00    +0.210 HD
ENDBRANCH   9  10
ENDBRANCH   6   9
ENDBRANCH   5   6
BRANCH   5  12
ATOM     12  O   UNL     1     -36.641  26.575   5.201  0.00  0.00    -0.376 OA
ATOM     13  H   UNL     1     -37.541  26.716   5.538  0.00  0.00    +0.211 HD
ENDBRANCH   5  12
ENDBRANCH   3   5
BRANCH   2  14
ATOM     14  C   UNL     1     -37.890  22.882   2.350  0.00  0.00    +0.115 C 
BRANCH  14  15
ATOM     15  C   UNL     1     -37.477  21.435   2.161  0.00  0.00    +0.179 C 
BRANCH  15  16
ATOM     16  S   UNL     1     -35.742  21.197   2.382  0.00  0.00    +0.024 S 
ATOM     17  O   UNL     1     -35.594  19.855   1.468  0.00  0.00    -0.069 OA
ATOM     18  O   UNL     1     -35.488  20.849   3.769  0.00  0.00    -0.069 OA
ATOM     19  O   UNL     1     -35.035  22.284   1.731  0.00  0.00    -0.069 OA
ENDBRANCH  15  16
ENDBRANCH  14  15
ENDBRANCH   2  14
TORSDOF 8
ENDMDL
MODEL 2
REMARK VINA RESULT:      -4.7      0.952      1.427
REMARK  Name = 21118785
REMARK  8 active torsions:
REMARK  status: ('A' for Active; 'I' for Inactive)
REMARK    1  A    between atoms: N_2  and  C_14
REMARK    2  A    between atoms: C_3  and  C_5
REMARK    3  A    between atoms: C_5  and  C_6
REMARK    4  A    between atoms: C_5  and  O_12
REMARK    5  A    between atoms: C_6  and  C_9
REMARK    6  A    between atoms: C_9  and  O_10
REMARK    7  A    between atoms: C_14  and  C_15
REMARK    8  A    between atoms: C_15  and  S_16
REMARK                            x       y       z     vdW  Elec       q    Type
REMARK                         _______ _______ _______ _____ _____    ______ ____
ROOT
ATOM      1  O   UNL     1     -37.483  26.001   2.915  0.00  0.00    -0.272 OA
ATOM      2  N   UNL     1     -37.902  23.803   3.530  0.00  0.00    -0.301 N 
ATOM      3  C   UNL     1     -37.371  25.070   3.711  0.00  0.00    +0.249 C 
ATOM      4  H   UNL     1     -37.754  23.127   4.231  0.00  0.00    +0.150 HD
ENDROOT
BRANCH   3   5
ATOM      5  C   UNL     1     -36.585  25.201   5.013  0.00  0.00    +0.189 C 
BRANCH   5   6
ATOM      6  C   UNL     1     -35.144  24.612   4.955  0.00  0.00    +0.060 C 
ATOM      7  C   UNL     1     -34.174  25.618   5.618  0.00  0.00    +0.005 C 
ATOM      8  C   UNL     1     -34.686  24.417   3.497  0.00  0.00    +0.005 C 
BRANCH   6   9
ATOM      9  C   UNL     1     -35.061  23.265   5.713  0.00  0.00    +0.140 C 
BRANCH   9  10
ATOM     10  O   UNL     1     -36.223  22.475   5.484  0.00  0.00    -0.382 OA
ATOM     11  H   UNL     1     -36.172  22.073   4.602  0.00  0.00    +0.210 HD
ENDBRANCH   9  10
ENDBRANCH   6   9
ENDBRANCH   5   6
BRANCH   5  12
ATOM     12  O   UNL     1     -36.521  26.594   5.308  0.00  0.00    -0.376 OA
ATOM     13  H   UNL     1     -36.150  27.069   4.547  0.00  0.00    +0.211 HD
ENDBRANCH   5  12
ENDBRANCH   3   5
BRANCH   2  14
ATOM     14  C   UNL     1     -38.663  23.428   2.361  0.00  0.00    +0.115 C 
BRANCH  14  15
ATOM     15  C   UNL     1     -38.580  21.941   2.075  0.00  0.00    +0.179 C 
BRANCH  15  16
ATOM     16  S   UNL     1     -36.944  21.431   1.647  0.00  0.00    +0.024 S 
ATOM     17  O   UNL     1     -36.486  22.801   0.891  0.00  0.00    -0.069 OA
ATOM     18  O   UNL     1     -37.027  20.361   0.668  0.00  0.00    -0.069 OA
ATOM     19  O   UNL     1     -36.167  21.288   2.864  0.00  0.00    -0.069 OA
ENDBRANCH  15  16
ENDBRANCH  14  15
ENDBRANCH   2  14
TORSDOF 8
ENDMDL
MODEL 3
REMARK VINA RESULT:      -4.7      2.099      3.595
REMARK  Name = 21118785
REMARK  8 active torsions:
REMARK  status: ('A' for Active; 'I' for Inactive)
REMARK    1  A    between atoms: N_2  and  C_14
REMARK    2  A    between atoms: C_3  and  C_5
REMARK    3  A    between atoms: C_5  and  C_6
REMARK    4  A    between atoms: C_5  and  O_12
REMARK    5  A    between atoms: C_6  and  C_9
REMARK    6  A    between atoms: C_9  and  O_10
REMARK    7  A    between atoms: C_14  and  C_15
REMARK    8  A    between atoms: C_15  and  S_16
REMARK                            x       y       z     vdW  Elec       q    Type
REMARK                         _______ _______ _______ _____ _____    ______ ____
ROOT
ATOM      1  O   UNL     1     -35.167  22.880   2.145  0.00  0.00    -0.272 OA
ATOM      2  N   UNL     1     -37.149  22.505   3.293  0.00  0.00    -0.301 N 
ATOM      3  C   UNL     1     -35.851  22.975   3.163  0.00  0.00    +0.249 C 
ATOM      4  H   UNL     1     -37.610  22.631   4.154  0.00  0.00    +0.150 HD
ENDROOT
BRANCH   3   5
ATOM      5  C   UNL     1     -35.322  23.612   4.445  0.00  0.00    +0.189 C 
BRANCH   5   6
ATOM      6  C   UNL     1     -35.067  25.145   4.341  0.00  0.00    +0.060 C 
ATOM      7  C   UNL     1     -33.750  25.373   3.562  0.00  0.00    +0.005 C 
ATOM      8  C   UNL     1     -34.893  25.772   5.738  0.00  0.00    +0.005 C 
BRANCH   6   9
ATOM      9  C   UNL     1     -36.220  25.853   3.590  0.00  0.00    +0.140 C 
BRANCH   9  10
ATOM     10  O   UNL     1     -37.376  25.965   4.413  0.00  0.00    -0.382 OA
ATOM     11  H   UNL     1     -37.640  26.896   4.476  0.00  0.00    +0.210 HD
ENDBRANCH   9  10
ENDBRANCH   6   9
ENDBRANCH   5   6
BRANCH   5  12
ATOM     12  O   UNL     1     -36.295  23.355   5.454  0.00  0.00    -0.376 OA
ATOM     13  H   UNL     1     -35.850  23.211   6.305  0.00  0.00    +0.211 HD
ENDBRANCH   5  12
ENDBRANCH   3   5
BRANCH   2  14
ATOM     14  C   UNL     1     -37.856  21.840   2.224  0.00  0.00    +0.115 C 
BRANCH  14  15
ATOM     15  C   UNL     1     -39.323  22.223   2.181  0.00  0.00    +0.179 C 
BRANCH  15  16
ATOM     16  S   UNL     1     -39.560  23.973   2.198  0.00  0.00    +0.024 S 
ATOM     17  O   UNL     1     -41.039  23.993   1.512  0.00  0.00    -0.069 OA
ATOM     18  O   UNL     1     -38.612  24.585   1.284  0.00  0.00    -0.069 OA
ATOM     19  O   UNL     1     -39.679  24.414   3.576  0.00  0.00    -0.069 OA
ENDBRANCH  15  16
ENDBRANCH  14  15
ENDBRANCH   2  14
TORSDOF 8
ENDMDL
MODEL 4
REMARK VINA RESULT:      -4.6      4.034      6.098
REMARK  Name = 21118785
REMARK  8 active torsions:
REMARK  status: ('A' for Active; 'I' for Inactive)
REMARK    1  A    between atoms: N_2  and  C_14
REMARK    2  A    between atoms: C_3  and  C_5
REMARK    3  A    between atoms: C_5  and  C_6
REMARK    4  A    between atoms: C_5  and  O_12
REMARK    5  A    between atoms: C_6  and  C_9
REMARK    6  A    between atoms: C_9  and  O_10
REMARK    7  A    between atoms: C_14  and  C_15
REMARK    8  A    between atoms: C_15  and  S_16
REMARK                            x       y       z     vdW  Elec       q    Type
REMARK                         _______ _______ _______ _____ _____    ______ ____
ROOT
ATOM      1  O   UNL     1     -36.445  26.024   2.118  0.00  0.00    -0.272 OA
ATOM      2  N   UNL     1     -35.550  27.817   3.289  0.00  0.00    -0.301 N 
ATOM      3  C   UNL     1     -36.055  26.531   3.168  0.00  0.00    +0.249 C 
ATOM      4  H   UNL     1     -35.265  28.128   4.178  0.00  0.00    +0.150 HD
ENDROOT
BRANCH   3   5
ATOM      5  C   UNL     1     -36.114  25.792   4.502  0.00  0.00    +0.189 C 
BRANCH   5   6
ATOM      6  C   UNL     1     -34.759  25.163   4.947  0.00  0.00    +0.060 C 
ATOM      7  C   UNL     1     -33.831  25.071   3.712  0.00  0.00    +0.005 C 
ATOM      8  C   UNL     1     -34.963  23.733   5.482  0.00  0.00    +0.005 C 
BRANCH   6   9
ATOM      9  C   UNL     1     -34.069  26.031   6.026  0.00  0.00    +0.140 C 
BRANCH   9  10
ATOM     10  O   UNL     1     -33.549  27.231   5.463  0.00  0.00    -0.382 OA
ATOM     11  H   UNL     1     -32.594  27.135   5.321  0.00  0.00    +0.210 HD
ENDBRANCH   9  10
ENDBRANCH   6   9
ENDBRANCH   5   6
BRANCH   5  12
ATOM     12  O   UNL     1     -36.542  26.744   5.473  0.00  0.00    -0.376 OA
ATOM     13  H   UNL     1     -37.469  26.980   5.308  0.00  0.00    +0.211 HD
ENDBRANCH   5  12
ENDBRANCH   3   5
BRANCH   2  14
ATOM     14  C   UNL     1     -35.422  28.720   2.169  0.00  0.00    +0.115 C 
BRANCH  14  15
ATOM     15  C   UNL     1     -34.026  29.303   2.060  0.00  0.00    +0.179 C 
BRANCH  15  16
ATOM     16  S   UNL     1     -33.695  30.492   3.323  0.00  0.00    +0.024 S 
ATOM     17  O   UNL     1     -35.243  30.848   3.688  0.00  0.00    -0.069 OA
ATOM     18  O   UNL     1     -33.076  31.659   2.719  0.00  0.00    -0.069 OA
ATOM     19  O   UNL     1     -33.092  29.814   4.456  0.00  0.00    -0.069 OA
ENDBRANCH  15  16
ENDBRANCH  14  15
ENDBRANCH   2  14
TORSDOF 8
ENDMDL
MODEL 5
REMARK VINA RESULT:      -4.5      3.287      5.066
REMARK  Name = 21118785
REMARK  8 active torsions:
REMARK  status: ('A' for Active; 'I' for Inactive)
REMARK    1  A    between atoms: N_2  and  C_14
REMARK    2  A    between atoms: C_3  and  C_5
REMARK    3  A    between atoms: C_5  and  C_6
REMARK    4  A    between atoms: C_5  and  O_12
REMARK    5  A    between atoms: C_6  and  C_9
REMARK    6  A    between atoms: C_9  and  O_10
REMARK    7  A    between atoms: C_14  and  C_15
REMARK    8  A    between atoms: C_15  and  S_16
REMARK                            x       y       z     vdW  Elec       q    Type
REMARK                         _______ _______ _______ _____ _____    ______ ____
ROOT
ATOM      1  O   UNL     1     -36.978  23.997   3.449  0.00  0.00    -0.272 OA
ATOM      2  N   UNL     1     -37.966  26.087   3.658  0.00  0.00    -0.301 N 
ATOM      3  C   UNL     1     -37.061  25.094   4.000  0.00  0.00    +0.249 C 
ATOM      4  H   UNL     1     -37.950  26.931   4.163  0.00  0.00    +0.150 HD
ENDROOT
BRANCH   3   5
ATOM      5  C   UNL     1     -36.170  25.486   5.176  0.00  0.00    +0.189 C 
BRANCH   5   6
ATOM      6  C   UNL     1     -34.675  25.710   4.801  0.00  0.00    +0.060 C 
ATOM      7  C   UNL     1     -34.036  24.336   4.485  0.00  0.00    +0.005 C 
ATOM      8  C   UNL     1     -33.895  26.323   5.981  0.00  0.00    +0.005 C 
BRANCH   6   9
ATOM      9  C   UNL     1     -34.541  26.620   3.556  0.00  0.00    +0.140 C 
BRANCH   9  10
ATOM     10  O   UNL     1     -35.199  27.866   3.760  0.00  0.00    -0.382 OA
ATOM     11  H   UNL     1     -34.574  28.592   3.604  0.00  0.00    +0.210 HD
ENDBRANCH   9  10
ENDBRANCH   6   9
ENDBRANCH   5   6
BRANCH   5  12
ATOM     12  O   UNL     1     -36.716  26.689   5.711  0.00  0.00    -0.376 OA
ATOM     13  H   UNL     1     -36.908  26.566   6.654  0.00  0.00    +0.211 HD
ENDBRANCH   5  12
ENDBRANCH   3   5
BRANCH   2  14
ATOM     14  C   UNL     1     -38.931  25.939   2.593  0.00  0.00    +0.115 C 
BRANCH  14  15
ATOM     15  C   UNL     1     -40.282  25.474   3.105  0.00  0.00    +0.179 C 
BRANCH  15  16
ATOM     16  S   UNL     1     -41.545  26.683   2.857  0.00  0.00    +0.024 S 
ATOM     17  O   UNL     1     -40.838  27.477   1.620  0.00  0.00    -0.069 OA
ATOM     18  O   UNL     1     -41.588  27.561   4.012  0.00  0.00    -0.069 OA
ATOM     19  O   UNL     1     -42.737  26.019   2.363  0.00  0.00    -0.069 OA
ENDBRANCH  15  16
ENDBRANCH  14  15
ENDBRANCH   2  14
TORSDOF 8
ENDMDL
MODEL 6
REMARK VINA RESULT:      -4.5      2.058      2.329
REMARK  Name = 21118785
REMARK  8 active torsions:
REMARK  status: ('A' for Active; 'I' for Inactive)
REMARK    1  A    between atoms: N_2  and  C_14
REMARK    2  A    between atoms: C_3  and  C_5
REMARK    3  A    between atoms: C_5  and  C_6
REMARK    4  A    between atoms: C_5  and  O_12
REMARK    5  A    between atoms: C_6  and  C_9
REMARK    6  A    between atoms: C_9  and  O_10
REMARK    7  A    between atoms: C_14  and  C_15
REMARK    8  A    between atoms: C_15  and  S_16
REMARK                            x       y       z     vdW  Elec       q    Type
REMARK                         _______ _______ _______ _____ _____    ______ ____
ROOT
ATOM      1  O   UNL     1     -37.327  26.267   2.701  0.00  0.00    -0.272 OA
ATOM      2  N   UNL     1     -38.443  24.377   3.455  0.00  0.00    -0.301 N 
ATOM      3  C   UNL     1     -37.504  25.393   3.548  0.00  0.00    +0.249 C 
ATOM      4  H   UNL     1     -38.504  23.725   4.191  0.00  0.00    +0.150 HD
ENDROOT
BRANCH   3   5
ATOM      5  C   UNL     1     -36.666  25.308   4.821  0.00  0.00    +0.189 C 
BRANCH   5   6
ATOM      6  C   UNL     1     -35.351  24.485   4.669  0.00  0.00    +0.060 C 
ATOM      7  C   UNL     1     -34.175  25.333   5.208  0.00  0.00    +0.005 C 
ATOM      8  C   UNL     1     -35.060  24.177   3.188  0.00  0.00    +0.005 C 
BRANCH   6   9
ATOM      9  C   UNL     1     -35.423  23.164   5.473  0.00  0.00    +0.140 C 
BRANCH   9  10
ATOM     10  O   UNL     1     -36.332  22.248   4.873  0.00  0.00    -0.382 OA
ATOM     11  H   UNL     1     -37.242  22.545   5.028  0.00  0.00    +0.210 HD
ENDBRANCH   9  10
ENDBRANCH   6   9
ENDBRANCH   5   6
BRANCH   5  12
ATOM     12  O   UNL     1     -36.352  26.649   5.188  0.00  0.00    -0.376 OA
ATOM     13  H   UNL     1     -35.394  26.787   5.121  0.00  0.00    +0.211 HD
ENDBRANCH   5  12
ENDBRANCH   3   5
BRANCH   2  14
ATOM     14  C   UNL     1     -39.336  24.232   2.329  0.00  0.00    +0.115 C 
BRANCH  14  15
ATOM     15  C   UNL     1     -38.712  23.430   1.203  0.00  0.00    +0.179 C 
BRANCH  15  16
ATOM     16  S   UNL     1     -38.872  21.689   1.449  0.00  0.00    +0.024 S 
ATOM     17  O   UNL     1     -37.578  21.493   2.421  0.00  0.00    -0.069 OA
ATOM     18  O   UNL     1     -38.619  21.011   0.190  0.00  0.00    -0.069 OA
ATOM     19  O   UNL     1     -40.076  21.435   2.220  0.00  0.00    -0.069 OA
ENDBRANCH  15  16
ENDBRANCH  14  15
ENDBRANCH   2  14
TORSDOF 8
ENDMDL
MODEL 7
REMARK VINA RESULT:      -4.5      3.687      5.431
REMARK  Name = 21118785
REMARK  8 active torsions:
REMARK  status: ('A' for Active; 'I' for Inactive)
REMARK    1  A    between atoms: N_2  and  C_14
REMARK    2  A    between atoms: C_3  and  C_5
REMARK    3  A    between atoms: C_5  and  C_6
REMARK    4  A    between atoms: C_5  and  O_12
REMARK    5  A    between atoms: C_6  and  C_9
REMARK    6  A    between atoms: C_9  and  O_10
REMARK    7  A    between atoms: C_14  and  C_15
REMARK    8  A    between atoms: C_15  and  S_16
REMARK                            x       y       z     vdW  Elec       q    Type
REMARK                         _______ _______ _______ _____ _____    ______ ____
ROOT
ATOM      1  O   UNL     1     -36.715  26.570   2.228  0.00  0.00    -0.272 OA
ATOM      2  N   UNL     1     -35.179  27.508   3.694  0.00  0.00    -0.301 N 
ATOM      3  C   UNL     1     -36.160  26.600   3.325  0.00  0.00    +0.249 C 
ATOM      4  H   UNL     1     -34.798  27.445   4.599  0.00  0.00    +0.150 HD
ENDROOT
BRANCH   3   5
ATOM      5  C   UNL     1     -36.520  25.630   4.448  0.00  0.00    +0.189 C 
BRANCH   5   6
ATOM      6  C   UNL     1     -35.796  24.253   4.362  0.00  0.00    +0.060 C 
ATOM      7  C   UNL     1     -36.643  23.306   3.480  0.00  0.00    +0.005 C 
ATOM      8  C   UNL     1     -35.675  23.605   5.755  0.00  0.00    +0.005 C 
BRANCH   6   9
ATOM      9  C   UNL     1     -34.391  24.400   3.730  0.00  0.00    +0.140 C 
BRANCH   9  10
ATOM     10  O   UNL     1     -33.470  24.968   4.655  0.00  0.00    -0.382 OA
ATOM     11  H   UNL     1     -33.415  24.406   5.444  0.00  0.00    +0.210 HD
ENDBRANCH   9  10
ENDBRANCH   6   9
ENDBRANCH   5   6
BRANCH   5  12
ATOM     12  O   UNL     1     -36.173  26.280   5.668  0.00  0.00    -0.376 OA
ATOM     13  H   UNL     1     -36.279  27.239   5.566  0.00  0.00    +0.211 HD
ENDBRANCH   5  12
ENDBRANCH   3   5
BRANCH   2  14
ATOM     14  C   UNL     1     -34.690  28.540   2.810  0.00  0.00    +0.115 C 
BRANCH  14  15
ATOM     15  C   UNL     1     -33.459  29.232   3.362  0.00  0.00    +0.179 C 
BRANCH  15  16
ATOM     16  S   UNL     1     -32.400  28.121   4.236  0.00  0.00    +0.024 S 
ATOM     17  O   UNL     1     -31.138  29.136   4.425  0.00  0.00    -0.069 OA
ATOM     18  O   UNL     1     -32.007  27.046   3.342  0.00  0.00    -0.069 OA
ATOM     19  O   UNL     1     -32.980  27.851   5.539  0.00  0.00    -0.069 OA
ENDBRANCH  15  16
ENDBRANCH  14  15
ENDBRANCH   2  14
TORSDOF 8
ENDMDL
MODEL 8
REMARK VINA RESULT:      -4.4      1.285      2.237
REMARK  Name = 21118785
REMARK  8 active torsions:
REMARK  status: ('A' for Active; 'I' for Inactive)
REMARK    1  A    between atoms: N_2  and  C_14
REMARK    2  A    between atoms: C_3  and  C_5
REMARK    3  A    between atoms: C_5  and  C_6
REMARK    4  A    between atoms: C_5  and  O_12
REMARK    5  A    between atoms: C_6  and  C_9
REMARK    6  A    between atoms: C_9  and  O_10
REMARK    7  A    between atoms: C_14  and  C_15
REMARK    8  A    between atoms: C_15  and  S_16
REMARK                            x       y       z     vdW  Elec       q    Type
REMARK                         _______ _______ _______ _____ _____    ______ ____
ROOT
ATOM      1  O   UNL     1     -37.246  24.520   1.766  0.00  0.00    -0.272 OA
ATOM      2  N   UNL     1     -37.501  22.484   2.850  0.00  0.00    -0.301 N 
ATOM      3  C   UNL     1     -37.344  23.860   2.799  0.00  0.00    +0.249 C 
ATOM      4  H   UNL     1     -37.570  22.051   3.731  0.00  0.00    +0.150 HD
ENDROOT
BRANCH   3   5
ATOM      5  C   UNL     1     -37.271  24.498   4.185  0.00  0.00    +0.189 C 
BRANCH   5   6
ATOM      6  C   UNL     1     -35.829  24.614   4.762  0.00  0.00    +0.060 C 
ATOM      7  C   UNL     1     -34.826  24.618   3.584  0.00  0.00    +0.005 C 
ATOM      8  C   UNL     1     -35.491  23.403   5.654  0.00  0.00    +0.005 C 
BRANCH   6   9
ATOM      9  C   UNL     1     -35.655  25.923   5.570  0.00  0.00    +0.140 C 
BRANCH   9  10
ATOM     10  O   UNL     1     -35.487  27.041   4.704  0.00  0.00    -0.382 OA
ATOM     11  H   UNL     1     -35.079  26.748   3.873  0.00  0.00    +0.210 HD
ENDBRANCH   9  10
ENDBRANCH   6   9
ENDBRANCH   5   6
BRANCH   5  12
ATOM     12  O   UNL     1     -37.844  25.797   4.061  0.00  0.00    -0.376 OA
ATOM     13  H   UNL     1     -38.579  25.887   4.689  0.00  0.00    +0.211 HD
ENDBRANCH   5  12
ENDBRANCH   3   5
BRANCH   2  14
ATOM     14  C   UNL     1     -37.569  21.656   1.668  0.00  0.00    +0.115 C 
BRANCH  14  15
ATOM     15  C   UNL     1     -36.824  20.346   1.841  0.00  0.00    +0.179 C 
BRANCH  15  16
ATOM     16  S   UNL     1     -35.093  20.588   2.093  0.00  0.00    +0.024 S 
ATOM     17  O   UNL     1     -35.119  20.620   3.723  0.00  0.00    -0.069 OA
ATOM     18  O   UNL     1     -34.726  21.905   1.604  0.00  0.00    -0.069 OA
ATOM     19  O   UNL     1     -34.388  19.395   1.662  0.00  0.00    -0.069 OA
ENDBRANCH  15  16
ENDBRANCH  14  15
ENDBRANCH   2  14
TORSDOF 8
ENDMDL
MODEL 9
REMARK VINA RESULT:      -4.4      2.547      3.205
REMARK  Name = 21118785
REMARK  8 active torsions:
REMARK  status: ('A' for Active; 'I' for Inactive)
REMARK    1  A    between atoms: N_2  and  C_14
REMARK    2  A    between atoms: C_3  and  C_5
REMARK    3  A    between atoms: C_5  and  C_6
REMARK    4  A    between atoms: C_5  and  O_12
REMARK    5  A    between atoms: C_6  and  C_9
REMARK    6  A    between atoms: C_9  and  O_10
REMARK    7  A    between atoms: C_14  and  C_15
REMARK    8  A    between atoms: C_15  and  S_16
REMARK                            x       y       z     vdW  Elec       q    Type
REMARK                         _______ _______ _______ _____ _____    ______ ____
ROOT
ATOM      1  O   UNL     1     -36.952  25.184   2.221  0.00  0.00    -0.272 OA
ATOM      2  N   UNL     1     -38.431  23.601   3.054  0.00  0.00    -0.301 N 
ATOM      3  C   UNL     1     -37.181  24.177   2.890  0.00  0.00    +0.249 C 
ATOM      4  H   UNL     1     -38.506  22.794   3.612  0.00  0.00    +0.150 HD
ENDROOT
BRANCH   3   5
ATOM      5  C   UNL     1     -36.076  23.409   3.611  0.00  0.00    +0.189 C 
BRANCH   5   6
ATOM      6  C   UNL     1     -35.432  24.180   4.803  0.00  0.00    +0.060 C 
ATOM      7  C   UNL     1     -34.073  24.755   4.339  0.00  0.00    +0.005 C 
ATOM      8  C   UNL     1     -35.155  23.234   5.987  0.00  0.00    +0.005 C 
BRANCH   6   9
ATOM      9  C   UNL     1     -36.336  25.348   5.266  0.00  0.00    +0.140 C 
BRANCH   9  10
ATOM     10  O   UNL     1     -35.804  26.602   4.852  0.00  0.00    -0.382 OA
ATOM     11  H   UNL     1     -36.430  27.036   4.251  0.00  0.00    +0.210 HD
ENDBRANCH   9  10
ENDBRANCH   6   9
ENDBRANCH   5   6
BRANCH   5  12
ATOM     12  O   UNL     1     -36.668  22.202   4.085  0.00  0.00    -0.376 OA
ATOM     13  H   UNL     1     -37.343  22.412   4.751  0.00  0.00    +0.211 HD
ENDBRANCH   5  12
ENDBRANCH   3   5
BRANCH   2  14
ATOM     14  C   UNL     1     -39.628  24.133   2.446  0.00  0.00    +0.115 C 
BRANCH  14  15
ATOM     15  C   UNL     1     -39.939  23.468   1.118  0.00  0.00    +0.179 C 
BRANCH  15  16
ATOM     16  S   UNL     1     -39.650  21.726   1.155  0.00  0.00    +0.024 S 
ATOM     17  O   UNL     1     -40.495  21.343  -0.186  0.00  0.00    -0.069 OA
ATOM     18  O   UNL     1     -40.326  21.163   2.311  0.00  0.00    -0.069 OA
ATOM     19  O   UNL     1     -38.242  21.482   0.905  0.00  0.00    -0.069 OA
ENDBRANCH  15  16
ENDBRANCH  14  15
ENDBRANCH   2  14
TORSDOF 8
ENDMDL
