MODEL 1
REMARK VINA RESULT:      -6.7      0.000      0.000
REMARK  Name = 196888
REMARK  6 active torsions:
REMARK  status: ('A' for Active; 'I' for Inactive)
REMARK    1  A    between atoms: C_7  and  O_23
REMARK    2  A    between atoms: C_8  and  O_25
REMARK    3  A    between atoms: C_11  and  C_31
REMARK    4  A    between atoms: C_20  and  O_27
REMARK    5  A    between atoms: C_21  and  O_29
REMARK    6  A    between atoms: C_31  and  O_32
REMARK                            x       y       z     vdW  Elec       q    Type
REMARK                         _______ _______ _______ _____ _____    ______ ____
ROOT
ATOM      1  O   UNL     1     -37.895  23.144   0.888  0.00  0.00    -0.479 OA
ATOM      2  O   UNL     1     -35.254  22.087   4.702  0.00  0.00    -0.287 OA
ATOM      3  O   UNL     1     -37.461  25.713   1.540  0.00  0.00    -0.283 OA
ATOM      4  C   UNL     1     -37.256  20.759   0.965  0.00  0.00    +0.075 C 
ATOM      5  C   UNL     1     -36.506  20.998   2.312  0.00  0.00    +0.056 C 
ATOM      6  C   UNL     1     -38.402  21.802   0.808  0.00  0.00    +0.136 C 
ATOM      7  C   UNL     1     -36.269  20.723  -0.237  0.00  0.00    +0.145 C 
ATOM      8  C   UNL     1     -35.183  19.654  -0.059  0.00  0.00    +0.158 C 
ATOM      9  C   UNL     1     -36.373  22.482   2.634  0.00  0.00    +0.058 C 
ATOM     10  C   UNL     1     -35.189  20.250   2.363  0.00  0.00    -0.025 C 
ATOM     11  C   UNL     1     -34.600  19.628   1.328  0.00  0.00    +0.010 C 
ATOM     12  C   UNL     1     -39.502  21.615   1.875  0.00  0.00    +0.044 C 
ATOM     13  C   UNL     1     -39.088  21.699  -0.565  0.00  0.00    +0.044 C 
ATOM     14  C   UNL     1     -37.013  23.422   1.912  0.00  0.00    +0.176 C 
ATOM     15  C   UNL     1     -35.597  22.893   3.846  0.00  0.00    +0.195 C 
ATOM     16  C   UNL     1     -36.834  24.874   2.176  0.00  0.00    +0.232 C 
ATOM     17  C   UNL     1     -35.270  24.319   4.016  0.00  0.00    +0.048 C 
ATOM     18  C   UNL     1     -35.870  25.279   3.208  0.00  0.00    +0.079 C 
ATOM     19  C   UNL     1     -34.365  24.710   5.011  0.00  0.00    +0.040 C 
ATOM     20  C   UNL     1     -35.569  26.634   3.388  0.00  0.00    +0.140 C 
ATOM     21  C   UNL     1     -34.062  26.060   5.186  0.00  0.00    +0.137 C 
ATOM     22  C   UNL     1     -34.664  27.021   4.377  0.00  0.00    +0.073 C 
ENDROOT
BRANCH   7  23
ATOM     23  O   UNL     1     -35.648  21.991  -0.429  0.00  0.00    -0.382 OA
ATOM     24  H   UNL     1     -36.213  22.687  -0.062  0.00  0.00    +0.210 HD
ENDBRANCH   7  23
BRANCH   8  25
ATOM     25  O   UNL     1     -35.760  18.379  -0.343  0.00  0.00    -0.378 OA
ATOM     26  H   UNL     1     -36.659  18.342   0.018  0.00  0.00    +0.211 HD
ENDBRANCH   8  25
BRANCH  20  27
ATOM     27  O   UNL     1     -36.121  27.620   2.625  0.00  0.00    -0.505 OA
ATOM     28  H   UNL     1     -36.861  28.099   2.942  0.00  0.00    +0.292 HD
ENDBRANCH  20  27
BRANCH  21  29
ATOM     29  O   UNL     1     -33.180  26.439   6.151  0.00  0.00    -0.505 OA
ATOM     30  H   UNL     1     -33.185  26.011   6.985  0.00  0.00    +0.292 HD
ENDBRANCH  21  29
BRANCH  11  31
ATOM     31  C   UNL     1     -33.312  18.872   1.500  0.00  0.00    +0.161 C 
BRANCH  31  32
ATOM     32  O   UNL     1     -33.479  17.541   1.054  0.00  0.00    -0.377 OA
ATOM     33  H   UNL     1     -32.635  17.205   0.714  0.00  0.00    +0.211 HD
ENDBRANCH  31  32
ENDBRANCH  11  31
TORSDOF 6
ENDMDL
MODEL 2
REMARK VINA RESULT:      -6.7      1.793      6.343
REMARK  Name = 196888
REMARK  6 active torsions:
REMARK  status: ('A' for Active; 'I' for Inactive)
REMARK    1  A    between atoms: C_7  and  O_23
REMARK    2  A    between atoms: C_8  and  O_25
REMARK    3  A    between atoms: C_11  and  C_31
REMARK    4  A    between atoms: C_20  and  O_27
REMARK    5  A    between atoms: C_21  and  O_29
REMARK    6  A    between atoms: C_31  and  O_32
REMARK                            x       y       z     vdW  Elec       q    Type
REMARK                         _______ _______ _______ _____ _____    ______ ____
ROOT
ATOM      1  O   UNL     1     -37.627  21.540   1.484  0.00  0.00    -0.479 OA
ATOM      2  O   UNL     1     -33.331  23.176   0.257  0.00  0.00    -0.287 OA
ATOM      3  O   UNL     1     -36.666  19.110   0.866  0.00  0.00    -0.283 OA
ATOM      4  C   UNL     1     -37.282  23.893   2.157  0.00  0.00    +0.075 C 
ATOM      5  C   UNL     1     -35.856  23.870   1.525  0.00  0.00    +0.056 C 
ATOM      6  C   UNL     1     -38.196  22.859   1.434  0.00  0.00    +0.136 C 
ATOM      7  C   UNL     1     -37.223  23.708   3.700  0.00  0.00    +0.145 C 
ATOM      8  C   UNL     1     -36.347  24.771   4.375  0.00  0.00    +0.158 C 
ATOM      9  C   UNL     1     -35.427  22.459   1.138  0.00  0.00    +0.058 C 
ATOM     10  C   UNL     1     -34.845  24.592   2.392  0.00  0.00    -0.025 C 
ATOM     11  C   UNL     1     -35.053  25.020   3.648  0.00  0.00    +0.010 C 
ATOM     12  C   UNL     1     -38.446  23.244  -0.041  0.00  0.00    +0.044 C 
ATOM     13  C   UNL     1     -39.575  22.743   2.106  0.00  0.00    +0.044 C 
ATOM     14  C   UNL     1     -36.287  21.423   1.178  0.00  0.00    +0.176 C 
ATOM     15  C   UNL     1     -34.047  22.244   0.602  0.00  0.00    +0.195 C 
ATOM     16  C   UNL     1     -35.859  20.033   0.871  0.00  0.00    +0.232 C 
ATOM     17  C   UNL     1     -33.559  20.861   0.461  0.00  0.00    +0.048 C 
ATOM     18  C   UNL     1     -34.437  19.790   0.590  0.00  0.00    +0.079 C 
ATOM     19  C   UNL     1     -32.208  20.627   0.176  0.00  0.00    +0.040 C 
ATOM     20  C   UNL     1     -33.971  18.479   0.435  0.00  0.00    +0.140 C 
ATOM     21  C   UNL     1     -31.744  19.320   0.027  0.00  0.00    +0.137 C 
ATOM     22  C   UNL     1     -32.624  18.248   0.156  0.00  0.00    +0.073 C 
ENDROOT
BRANCH   7  23
ATOM     23  O   UNL     1     -36.733  22.414   4.044  0.00  0.00    -0.382 OA
ATOM     24  H   UNL     1     -35.818  22.323   3.738  0.00  0.00    +0.210 HD
ENDBRANCH   7  23
BRANCH   8  25
ATOM     25  O   UNL     1     -37.088  25.991   4.432  0.00  0.00    -0.378 OA
ATOM     26  H   UNL     1     -37.991  25.836   4.113  0.00  0.00    +0.211 HD
ENDBRANCH   8  25
BRANCH  20  27
ATOM     27  O   UNL     1     -34.781  17.389   0.554  0.00  0.00    -0.505 OA
ATOM     28  H   UNL     1     -35.577  17.341   0.062  0.00  0.00    +0.292 HD
ENDBRANCH  20  27
BRANCH  21  29
ATOM     29  O   UNL     1     -30.430  19.092  -0.247  0.00  0.00    -0.505 OA
ATOM     30  H   UNL     1     -30.174  18.314  -0.703  0.00  0.00    +0.292 HD
ENDBRANCH  21  29
BRANCH  11  31
ATOM     31  C   UNL     1     -33.993  25.770   4.404  0.00  0.00    +0.161 C 
BRANCH  31  32
ATOM     32  O   UNL     1     -34.595  26.763   5.210  0.00  0.00    -0.377 OA
ATOM     33  H   UNL     1     -34.009  27.534   5.268  0.00  0.00    +0.211 HD
ENDBRANCH  31  32
ENDBRANCH  11  31
TORSDOF 6
ENDMDL
MODEL 3
REMARK VINA RESULT:      -6.6      2.979      4.745
REMARK  Name = 196888
REMARK  6 active torsions:
REMARK  status: ('A' for Active; 'I' for Inactive)
REMARK    1  A    between atoms: C_7  and  O_23
REMARK    2  A    between atoms: C_8  and  O_25
REMARK    3  A    between atoms: C_11  and  C_31
REMARK    4  A    between atoms: C_20  and  O_27
REMARK    5  A    between atoms: C_21  and  O_29
REMARK    6  A    between atoms: C_31  and  O_32
REMARK                            x       y       z     vdW  Elec       q    Type
REMARK                         _______ _______ _______ _____ _____    ______ ____
ROOT
ATOM      1  O   UNL     1     -34.855  26.375   1.606  0.00  0.00    -0.479 OA
ATOM      2  O   UNL     1     -34.399  26.704   6.331  0.00  0.00    -0.287 OA
ATOM      3  O   UNL     1     -32.716  27.995   1.481  0.00  0.00    -0.283 OA
ATOM      4  C   UNL     1     -36.248  24.726   2.808  0.00  0.00    +0.075 C 
ATOM      5  C   UNL     1     -35.743  25.288   4.173  0.00  0.00    +0.056 C 
ATOM      6  C   UNL     1     -36.184  25.842   1.724  0.00  0.00    +0.136 C 
ATOM      7  C   UNL     1     -35.493  23.424   2.416  0.00  0.00    +0.145 C 
ATOM      8  C   UNL     1     -35.617  22.339   3.493  0.00  0.00    +0.158 C 
ATOM      9  C   UNL     1     -34.578  26.255   3.996  0.00  0.00    +0.058 C 
ATOM     10  C   UNL     1     -35.461  24.180   5.168  0.00  0.00    -0.025 C 
ATOM     11  C   UNL     1     -35.426  22.866   4.889  0.00  0.00    +0.010 C 
ATOM     12  C   UNL     1     -37.164  26.996   2.026  0.00  0.00    +0.044 C 
ATOM     13  C   UNL     1     -36.542  25.306   0.327  0.00  0.00    +0.044 C 
ATOM     14  C   UNL     1     -34.197  26.687   2.778  0.00  0.00    +0.176 C 
ATOM     15  C   UNL     1     -33.911  26.815   5.212  0.00  0.00    +0.195 C 
ATOM     16  C   UNL     1     -33.019  27.573   2.591  0.00  0.00    +0.232 C 
ATOM     17  C   UNL     1     -32.646  27.549   5.040  0.00  0.00    +0.048 C 
ATOM     18  C   UNL     1     -32.214  27.918   3.771  0.00  0.00    +0.079 C 
ATOM     19  C   UNL     1     -31.885  27.894   6.165  0.00  0.00    +0.040 C 
ATOM     20  C   UNL     1     -31.020  28.632   3.616  0.00  0.00    +0.140 C 
ATOM     21  C   UNL     1     -30.693  28.602   6.009  0.00  0.00    +0.137 C 
ATOM     22  C   UNL     1     -30.261  28.971   4.737  0.00  0.00    +0.073 C 
ENDROOT
BRANCH   7  23
ATOM     23  O   UNL     1     -34.113  23.683   2.173  0.00  0.00    -0.382 OA
ATOM     24  H   UNL     1     -33.708  22.911   1.750  0.00  0.00    +0.210 HD
ENDBRANCH   7  23
BRANCH   8  25
ATOM     25  O   UNL     1     -36.917  21.755   3.392  0.00  0.00    -0.378 OA
ATOM     26  H   UNL     1     -37.280  21.619   4.280  0.00  0.00    +0.211 HD
ENDBRANCH   8  25
BRANCH  20  27
ATOM     27  O   UNL     1     -30.543  29.017   2.398  0.00  0.00    -0.505 OA
ATOM     28  H   UNL     1     -30.591  29.916   2.139  0.00  0.00    +0.292 HD
ENDBRANCH  20  27
BRANCH  21  29
ATOM     29  O   UNL     1     -29.952  28.934   7.102  0.00  0.00    -0.505 OA
ATOM     30  H   UNL     1     -29.130  28.511   7.257  0.00  0.00    +0.292 HD
ENDBRANCH  21  29
BRANCH  11  31
ATOM     31  C   UNL     1     -35.183  21.845   5.964  0.00  0.00    +0.161 C 
BRANCH  31  32
ATOM     32  O   UNL     1     -35.163  20.550   5.395  0.00  0.00    -0.377 OA
ATOM     33  H   UNL     1     -34.930  20.613   4.455  0.00  0.00    +0.211 HD
ENDBRANCH  31  32
ENDBRANCH  11  31
TORSDOF 6
ENDMDL
MODEL 4
REMARK VINA RESULT:      -6.3      1.967      3.153
REMARK  Name = 196888
REMARK  6 active torsions:
REMARK  status: ('A' for Active; 'I' for Inactive)
REMARK    1  A    between atoms: C_7  and  O_23
REMARK    2  A    between atoms: C_8  and  O_25
REMARK    3  A    between atoms: C_11  and  C_31
REMARK    4  A    between atoms: C_20  and  O_27
REMARK    5  A    between atoms: C_21  and  O_29
REMARK    6  A    between atoms: C_31  and  O_32
REMARK                            x       y       z     vdW  Elec       q    Type
REMARK                         _______ _______ _______ _____ _____    ______ ____
ROOT
ATOM      1  O   UNL     1     -37.303  26.548   1.413  0.00  0.00    -0.479 OA
ATOM      2  O   UNL     1     -35.820  24.569   5.478  0.00  0.00    -0.287 OA
ATOM      3  O   UNL     1     -35.538  28.500   1.945  0.00  0.00    -0.283 OA
ATOM      4  C   UNL     1     -38.098  24.224   1.680  0.00  0.00    +0.075 C 
ATOM      5  C   UNL     1     -37.386  24.134   3.064  0.00  0.00    +0.056 C 
ATOM      6  C   UNL     1     -38.466  25.705   1.372  0.00  0.00    +0.136 C 
ATOM      7  C   UNL     1     -37.258  23.540   0.563  0.00  0.00    +0.145 C 
ATOM      8  C   UNL     1     -36.955  22.072   0.888  0.00  0.00    +0.158 C 
ATOM      9  C   UNL     1     -36.463  25.322   3.309  0.00  0.00    +0.058 C 
ATOM     10  C   UNL     1     -36.709  22.793   3.263  0.00  0.00    -0.025 C 
ATOM     11  C   UNL     1     -36.531  21.857   2.316  0.00  0.00    +0.010 C 
ATOM     12  C   UNL     1     -39.520  26.254   2.358  0.00  0.00    +0.044 C 
ATOM     13  C   UNL     1     -39.049  25.871  -0.042  0.00  0.00    +0.044 C 
ATOM     14  C   UNL     1     -36.450  26.387   2.485  0.00  0.00    +0.176 C 
ATOM     15  C   UNL     1     -35.630  25.348   4.551  0.00  0.00    +0.195 C 
ATOM     16  C   UNL     1     -35.503  27.518   2.676  0.00  0.00    +0.232 C 
ATOM     17  C   UNL     1     -34.572  26.366   4.663  0.00  0.00    +0.048 C 
ATOM     18  C   UNL     1     -34.511  27.418   3.756  0.00  0.00    +0.079 C 
ATOM     19  C   UNL     1     -33.636  26.284   5.701  0.00  0.00    +0.040 C 
ATOM     20  C   UNL     1     -33.515  28.394   3.879  0.00  0.00    +0.140 C 
ATOM     21  C   UNL     1     -32.641  27.254   5.821  0.00  0.00    +0.137 C 
ATOM     22  C   UNL     1     -32.580  28.307   4.912  0.00  0.00    +0.073 C 
ENDROOT
BRANCH   7  23
ATOM     23  O   UNL     1     -36.032  24.232   0.346  0.00  0.00    -0.382 OA
ATOM     24  H   UNL     1     -36.192  25.006  -0.216  0.00  0.00    +0.210 HD
ENDBRANCH   7  23
BRANCH   8  25
ATOM     25  O   UNL     1     -38.133  21.305   0.634  0.00  0.00    -0.378 OA
ATOM     26  H   UNL     1     -38.757  21.418   1.367  0.00  0.00    +0.211 HD
ENDBRANCH   8  25
BRANCH  20  27
ATOM     27  O   UNL     1     -33.401  29.445   3.019  0.00  0.00    -0.505 OA
ATOM     28  H   UNL     1     -32.623  29.968   3.018  0.00  0.00    +0.292 HD
ENDBRANCH  20  27
BRANCH  21  29
ATOM     29  O   UNL     1     -31.729  27.172   6.828  0.00  0.00    -0.505 OA
ATOM     30  H   UNL     1     -31.733  27.808   7.517  0.00  0.00    +0.292 HD
ENDBRANCH  21  29
BRANCH  11  31
ATOM     31  C   UNL     1     -35.886  20.537   2.632  0.00  0.00    +0.161 C 
BRANCH  31  32
ATOM     32  O   UNL     1     -36.841  19.500   2.516  0.00  0.00    -0.377 OA
ATOM     33  H   UNL     1     -37.469  19.554   3.254  0.00  0.00    +0.211 HD
ENDBRANCH  31  32
ENDBRANCH  11  31
TORSDOF 6
ENDMDL
MODEL 5
REMARK VINA RESULT:      -6.3      2.316      5.170
REMARK  Name = 196888
REMARK  6 active torsions:
REMARK  status: ('A' for Active; 'I' for Inactive)
REMARK    1  A    between atoms: C_7  and  O_23
REMARK    2  A    between atoms: C_8  and  O_25
REMARK    3  A    between atoms: C_11  and  C_31
REMARK    4  A    between atoms: C_20  and  O_27
REMARK    5  A    between atoms: C_21  and  O_29
REMARK    6  A    between atoms: C_31  and  O_32
REMARK                            x       y       z     vdW  Elec       q    Type
REMARK                         _______ _______ _______ _____ _____    ______ ____
ROOT
ATOM      1  O   UNL     1     -37.448  20.387   0.722  0.00  0.00    -0.479 OA
ATOM      2  O   UNL     1     -37.171  25.080   1.456  0.00  0.00    -0.287 OA
ATOM      3  O   UNL     1     -35.970  20.146   2.951  0.00  0.00    -0.283 OA
ATOM      4  C   UNL     1     -39.009  21.663  -0.707  0.00  0.00    +0.075 C 
ATOM      5  C   UNL     1     -38.488  22.998  -0.093  0.00  0.00    +0.056 C 
ATOM      6  C   UNL     1     -37.895  20.577  -0.630  0.00  0.00    +0.136 C 
ATOM      7  C   UNL     1     -40.356  21.228  -0.060  0.00  0.00    +0.145 C 
ATOM      8  C   UNL     1     -41.435  22.309  -0.196  0.00  0.00    +0.158 C 
ATOM      9  C   UNL     1     -37.597  22.758   1.121  0.00  0.00    +0.058 C 
ATOM     10  C   UNL     1     -39.616  23.975   0.171  0.00  0.00    -0.025 C 
ATOM     11  C   UNL     1     -40.928  23.693   0.106  0.00  0.00    +0.010 C 
ATOM     12  C   UNL     1     -36.682  20.934  -1.516  0.00  0.00    +0.044 C 
ATOM     13  C   UNL     1     -38.401  19.201  -1.098  0.00  0.00    +0.044 C 
ATOM     14  C   UNL     1     -37.185  21.522   1.461  0.00  0.00    +0.176 C 
ATOM     15  C   UNL     1     -37.086  23.936   1.888  0.00  0.00    +0.195 C 
ATOM     16  C   UNL     1     -36.375  21.271   2.683  0.00  0.00    +0.232 C 
ATOM     17  C   UNL     1     -36.435  23.696   3.187  0.00  0.00    +0.048 C 
ATOM     18  C   UNL     1     -36.089  22.405   3.572  0.00  0.00    +0.079 C 
ATOM     19  C   UNL     1     -36.145  24.777   4.029  0.00  0.00    +0.040 C 
ATOM     20  C   UNL     1     -35.453  22.186   4.800  0.00  0.00    +0.140 C 
ATOM     21  C   UNL     1     -35.515  24.557   5.254  0.00  0.00    +0.137 C 
ATOM     22  C   UNL     1     -35.169  23.264   5.638  0.00  0.00    +0.073 C 
ENDROOT
BRANCH   7  23
ATOM     23  O   UNL     1     -40.185  20.910   1.318  0.00  0.00    -0.382 OA
ATOM     24  H   UNL     1     -41.030  20.616   1.690  0.00  0.00    +0.210 HD
ENDBRANCH   7  23
BRANCH   8  25
ATOM     25  O   UNL     1     -41.933  22.279  -1.534  0.00  0.00    -0.378 OA
ATOM     26  H   UNL     1     -42.196  23.173  -1.801  0.00  0.00    +0.211 HD
ENDBRANCH   8  25
BRANCH  20  27
ATOM     27  O   UNL     1     -35.094  20.944   5.233  0.00  0.00    -0.505 OA
ATOM     28  H   UNL     1     -34.439  20.850   5.897  0.00  0.00    +0.292 HD
ENDBRANCH  20  27
BRANCH  21  29
ATOM     29  O   UNL     1     -35.236  25.608   6.074  0.00  0.00    -0.505 OA
ATOM     30  H   UNL     1     -34.934  25.453   6.948  0.00  0.00    +0.292 HD
ENDBRANCH  21  29
BRANCH  11  31
ATOM     31  C   UNL     1     -41.968  24.752   0.341  0.00  0.00    +0.161 C 
BRANCH  31  32
ATOM     32  O   UNL     1     -43.207  24.143   0.645  0.00  0.00    -0.377 OA
ATOM     33  H   UNL     1     -43.052  23.319   1.133  0.00  0.00    +0.211 HD
ENDBRANCH  31  32
ENDBRANCH  11  31
TORSDOF 6
ENDMDL
MODEL 6
REMARK VINA RESULT:      -6.2      3.923      8.229
REMARK  Name = 196888
REMARK  6 active torsions:
REMARK  status: ('A' for Active; 'I' for Inactive)
REMARK    1  A    between atoms: C_7  and  O_23
REMARK    2  A    between atoms: C_8  and  O_25
REMARK    3  A    between atoms: C_11  and  C_31
REMARK    4  A    between atoms: C_20  and  O_27
REMARK    5  A    between atoms: C_21  and  O_29
REMARK    6  A    between atoms: C_31  and  O_32
REMARK                            x       y       z     vdW  Elec       q    Type
REMARK                         _______ _______ _______ _____ _____    ______ ____
ROOT
ATOM      1  O   UNL     1     -34.475  29.747   1.663  0.00  0.00    -0.479 OA
ATOM      2  O   UNL     1     -32.660  25.744   3.485  0.00  0.00    -0.287 OA
ATOM      3  O   UNL     1     -36.816  28.432   1.610  0.00  0.00    -0.283 OA
ATOM      4  C   UNL     1     -32.197  30.066   2.565  0.00  0.00    +0.075 C 
ATOM      5  C   UNL     1     -32.135  28.557   2.955  0.00  0.00    +0.056 C 
ATOM      6  C   UNL     1     -33.167  30.259   1.362  0.00  0.00    +0.136 C 
ATOM      7  C   UNL     1     -32.534  30.957   3.794  0.00  0.00    +0.145 C 
ATOM      8  C   UNL     1     -31.531  30.765   4.937  0.00  0.00    +0.158 C 
ATOM      9  C   UNL     1     -33.493  27.878   2.822  0.00  0.00    +0.058 C 
ATOM     10  C   UNL     1     -31.488  28.352   4.310  0.00  0.00    -0.025 C 
ATOM     11  C   UNL     1     -31.190  29.322   5.191  0.00  0.00    +0.010 C 
ATOM     12  C   UNL     1     -32.640  29.575   0.082  0.00  0.00    +0.044 C 
ATOM     13  C   UNL     1     -33.371  31.746   1.022  0.00  0.00    +0.044 C 
ATOM     14  C   UNL     1     -34.541  28.499   2.248  0.00  0.00    +0.176 C 
ATOM     15  C   UNL     1     -33.632  26.449   3.246  0.00  0.00    +0.195 C 
ATOM     16  C   UNL     1     -35.886  27.871   2.178  0.00  0.00    +0.232 C 
ATOM     17  C   UNL     1     -34.986  25.878   3.343  0.00  0.00    +0.048 C 
ATOM     18  C   UNL     1     -36.078  26.565   2.825  0.00  0.00    +0.079 C 
ATOM     19  C   UNL     1     -35.170  24.626   3.943  0.00  0.00    +0.040 C 
ATOM     20  C   UNL     1     -37.360  26.008   2.903  0.00  0.00    +0.140 C 
ATOM     21  C   UNL     1     -36.448  24.073   4.024  0.00  0.00    +0.137 C 
ATOM     22  C   UNL     1     -37.541  24.762   3.505  0.00  0.00    +0.073 C 
ENDROOT
BRANCH   7  23
ATOM     23  O   UNL     1     -33.848  30.690   4.277  0.00  0.00    -0.382 OA
ATOM     24  H   UNL     1     -34.306  30.101   3.658  0.00  0.00    +0.210 HD
ENDBRANCH   7  23
BRANCH   8  25
ATOM     25  O   UNL     1     -30.334  31.472   4.606  0.00  0.00    -0.378 OA
ATOM     26  H   UNL     1     -29.772  31.543   5.393  0.00  0.00    +0.211 HD
ENDBRANCH   8  25
BRANCH  20  27
ATOM     27  O   UNL     1     -38.469  26.635   2.418  0.00  0.00    -0.505 OA
ATOM     28  H   UNL     1     -38.381  27.434   1.936  0.00  0.00    +0.292 HD
ENDBRANCH  20  27
BRANCH  21  29
ATOM     29  O   UNL     1     -36.627  22.857   4.611  0.00  0.00    -0.505 OA
ATOM     30  H   UNL     1     -36.905  22.804   5.504  0.00  0.00    +0.292 HD
ENDBRANCH  21  29
BRANCH  11  31
ATOM     31  C   UNL     1     -30.504  29.012   6.491  0.00  0.00    +0.161 C 
BRANCH  31  32
ATOM     32  O   UNL     1     -30.562  27.621   6.741  0.00  0.00    -0.377 OA
ATOM     33  H   UNL     1     -30.942  27.170   5.972  0.00  0.00    +0.211 HD
ENDBRANCH  31  32
ENDBRANCH  11  31
TORSDOF 6
ENDMDL
MODEL 7
REMARK VINA RESULT:      -5.9      2.057      6.436
REMARK  Name = 196888
REMARK  6 active torsions:
REMARK  status: ('A' for Active; 'I' for Inactive)
REMARK    1  A    between atoms: C_7  and  O_23
REMARK    2  A    between atoms: C_8  and  O_25
REMARK    3  A    between atoms: C_11  and  C_31
REMARK    4  A    between atoms: C_20  and  O_27
REMARK    5  A    between atoms: C_21  and  O_29
REMARK    6  A    between atoms: C_31  and  O_32
REMARK                            x       y       z     vdW  Elec       q    Type
REMARK                         _______ _______ _______ _____ _____    ______ ____
ROOT
ATOM      1  O   UNL     1     -38.024  20.117  -0.169  0.00  0.00    -0.479 OA
ATOM      2  O   UNL     1     -33.733  22.120   0.293  0.00  0.00    -0.287 OA
ATOM      3  O   UNL     1     -36.705  17.783  -0.315  0.00  0.00    -0.283 OA
ATOM      4  C   UNL     1     -38.155  22.485   0.527  0.00  0.00    +0.075 C 
ATOM      5  C   UNL     1     -36.599  22.587   0.486  0.00  0.00    +0.056 C 
ATOM      6  C   UNL     1     -38.636  21.384  -0.464  0.00  0.00    +0.136 C 
ATOM      7  C   UNL     1     -38.673  22.292   1.981  0.00  0.00    +0.145 C 
ATOM      8  C   UNL     1     -38.210  23.420   2.912  0.00  0.00    +0.158 C 
ATOM      9  C   UNL     1     -35.941  21.221   0.326  0.00  0.00    +0.058 C 
ATOM     10  C   UNL     1     -36.056  23.385   1.655  0.00  0.00    -0.025 C 
ATOM     11  C   UNL     1     -36.762  23.784   2.727  0.00  0.00    +0.010 C 
ATOM     12  C   UNL     1     -38.336  21.758  -1.931  0.00  0.00    +0.044 C 
ATOM     13  C   UNL     1     -40.153  21.145  -0.364  0.00  0.00    +0.044 C 
ATOM     14  C   UNL     1     -36.664  20.116   0.062  0.00  0.00    +0.176 C 
ATOM     15  C   UNL     1     -34.449  21.128   0.362  0.00  0.00    +0.195 C 
ATOM     16  C   UNL     1     -36.039  18.770  -0.026  0.00  0.00    +0.232 C 
ATOM     17  C   UNL     1     -33.833  19.793   0.451  0.00  0.00    +0.048 C 
ATOM     18  C   UNL     1     -34.603  18.650   0.262  0.00  0.00    +0.079 C 
ATOM     19  C   UNL     1     -32.461  19.676   0.707  0.00  0.00    +0.040 C 
ATOM     20  C   UNL     1     -34.008  17.385   0.328  0.00  0.00    +0.140 C 
ATOM     21  C   UNL     1     -31.870  18.415   0.777  0.00  0.00    +0.137 C 
ATOM     22  C   UNL     1     -32.642  17.271   0.588  0.00  0.00    +0.073 C 
ENDROOT
BRANCH   7  23
ATOM     23  O   UNL     1     -38.248  21.042   2.516  0.00  0.00    -0.382 OA
ATOM     24  H   UNL     1     -38.206  20.383   1.806  0.00  0.00    +0.210 HD
ENDBRANCH   7  23
BRANCH   8  25
ATOM     25  O   UNL     1     -39.014  24.572   2.653  0.00  0.00    -0.378 OA
ATOM     26  H   UNL     1     -39.909  24.425   2.995  0.00  0.00    +0.211 HD
ENDBRANCH   8  25
BRANCH  20  27
ATOM     27  O   UNL     1     -34.711  16.229   0.156  0.00  0.00    -0.505 OA
ATOM     28  H   UNL     1     -35.483  16.071   0.663  0.00  0.00    +0.292 HD
ENDBRANCH  20  27
BRANCH  21  29
ATOM     29  O   UNL     1     -30.537  18.302   1.029  0.00  0.00    -0.505 OA
ATOM     30  H   UNL     1     -29.998  17.776   0.472  0.00  0.00    +0.292 HD
ENDBRANCH  21  29
BRANCH  11  31
ATOM     31  C   UNL     1     -36.135  24.614   3.811  0.00  0.00    +0.161 C 
BRANCH  31  32
ATOM     32  O   UNL     1     -37.121  24.992   4.751  0.00  0.00    -0.377 OA
ATOM     33  H   UNL     1     -37.961  25.154   4.293  0.00  0.00    +0.211 HD
ENDBRANCH  31  32
ENDBRANCH  11  31
TORSDOF 6
ENDMDL
MODEL 8
REMARK VINA RESULT:      -5.9      2.002      4.566
REMARK  Name = 196888
REMARK  6 active torsions:
REMARK  status: ('A' for Active; 'I' for Inactive)
REMARK    1  A    between atoms: C_7  and  O_23
REMARK    2  A    between atoms: C_8  and  O_25
REMARK    3  A    between atoms: C_11  and  C_31
REMARK    4  A    between atoms: C_20  and  O_27
REMARK    5  A    between atoms: C_21  and  O_29
REMARK    6  A    between atoms: C_31  and  O_32
REMARK                            x       y       z     vdW  Elec       q    Type
REMARK                         _______ _______ _______ _____ _____    ______ ____
ROOT
ATOM      1  O   UNL     1     -35.760  19.947   1.274  0.00  0.00    -0.479 OA
ATOM      2  O   UNL     1     -36.354  24.626   0.651  0.00  0.00    -0.287 OA
ATOM      3  O   UNL     1     -35.191  20.555   3.827  0.00  0.00    -0.283 OA
ATOM      4  C   UNL     1     -36.829  20.486  -0.888  0.00  0.00    +0.075 C 
ATOM      5  C   UNL     1     -36.739  22.008  -0.558  0.00  0.00    +0.056 C 
ATOM      6  C   UNL     1     -35.697  19.718  -0.143  0.00  0.00    +0.136 C 
ATOM      7  C   UNL     1     -38.254  19.927  -0.612  0.00  0.00    +0.145 C 
ATOM      8  C   UNL     1     -39.332  20.685  -1.397  0.00  0.00    +0.158 C 
ATOM      9  C   UNL     1     -36.337  22.254   0.892  0.00  0.00    +0.058 C 
ATOM     10  C   UNL     1     -37.997  22.748  -0.970  0.00  0.00    -0.025 C 
ATOM     11  C   UNL     1     -39.146  22.178  -1.368  0.00  0.00    +0.010 C 
ATOM     12  C   UNL     1     -34.296  20.119  -0.655  0.00  0.00    +0.044 C 
ATOM     13  C   UNL     1     -35.820  18.195  -0.324  0.00  0.00    +0.044 C 
ATOM     14  C   UNL     1     -35.931  21.251   1.692  0.00  0.00    +0.176 C 
ATOM     15  C   UNL     1     -36.295  23.660   1.402  0.00  0.00    +0.195 C 
ATOM     16  C   UNL     1     -35.605  21.471   3.126  0.00  0.00    +0.232 C 
ATOM     17  C   UNL     1     -36.145  23.874   2.851  0.00  0.00    +0.048 C 
ATOM     18  C   UNL     1     -35.809  22.814   3.687  0.00  0.00    +0.079 C 
ATOM     19  C   UNL     1     -36.322  25.156   3.386  0.00  0.00    +0.040 C 
ATOM     20  C   UNL     1     -35.649  23.028   5.061  0.00  0.00    +0.140 C 
ATOM     21  C   UNL     1     -36.166  25.367   4.756  0.00  0.00    +0.137 C 
ATOM     22  C   UNL     1     -35.830  24.305   5.592  0.00  0.00    +0.073 C 
ENDROOT
BRANCH   7  23
ATOM     23  O   UNL     1     -38.566  19.980   0.778  0.00  0.00    -0.382 OA
ATOM     24  H   UNL     1     -38.303  20.842   1.136  0.00  0.00    +0.210 HD
ENDBRANCH   7  23
BRANCH   8  25
ATOM     25  O   UNL     1     -39.293  20.240  -2.753  0.00  0.00    -0.378 OA
ATOM     26  H   UNL     1     -40.079  19.703  -2.940  0.00  0.00    +0.211 HD
ENDBRANCH   8  25
BRANCH  20  27
ATOM     27  O   UNL     1     -35.325  22.028   5.930  0.00  0.00    -0.505 OA
ATOM     28  H   UNL     1     -35.940  21.343   6.106  0.00  0.00    +0.292 HD
ENDBRANCH  20  27
BRANCH  21  29
ATOM     29  O   UNL     1     -36.341  26.613   5.276  0.00  0.00    -0.505 OA
ATOM     30  H   UNL     1     -36.241  26.754   6.198  0.00  0.00    +0.292 HD
ENDBRANCH  21  29
BRANCH  11  31
ATOM     31  C   UNL     1     -40.321  23.009  -1.800  0.00  0.00    +0.161 C 
BRANCH  31  32
ATOM     32  O   UNL     1     -40.460  22.941  -3.206  0.00  0.00    -0.377 OA
ATOM     33  H   UNL     1     -40.051  22.125  -3.533  0.00  0.00    +0.211 HD
ENDBRANCH  31  32
ENDBRANCH  11  31
TORSDOF 6
ENDMDL
MODEL 9
REMARK VINA RESULT:      -5.8     13.166     16.848
REMARK  Name = 196888
REMARK  6 active torsions:
REMARK  status: ('A' for Active; 'I' for Inactive)
REMARK    1  A    between atoms: C_7  and  O_23
REMARK    2  A    between atoms: C_8  and  O_25
REMARK    3  A    between atoms: C_11  and  C_31
REMARK    4  A    between atoms: C_20  and  O_27
REMARK    5  A    between atoms: C_21  and  O_29
REMARK    6  A    between atoms: C_31  and  O_32
REMARK                            x       y       z     vdW  Elec       q    Type
REMARK                         _______ _______ _______ _____ _____    ______ ____
ROOT
ATOM      1  O   UNL     1     -42.988  37.021  -1.419  0.00  0.00    -0.479 OA
ATOM      2  O   UNL     1     -38.424  36.681  -2.718  0.00  0.00    -0.287 OA
ATOM      3  O   UNL     1     -42.242  35.756   0.829  0.00  0.00    -0.283 OA
ATOM      4  C   UNL     1     -42.460  38.412  -3.392  0.00  0.00    +0.075 C 
ATOM      5  C   UNL     1     -40.983  37.911  -3.355  0.00  0.00    +0.056 C 
ATOM      6  C   UNL     1     -43.396  37.340  -2.760  0.00  0.00    +0.136 C 
ATOM      7  C   UNL     1     -42.597  39.823  -2.750  0.00  0.00    +0.145 C 
ATOM      8  C   UNL     1     -41.690  40.855  -3.430  0.00  0.00    +0.158 C 
ATOM      9  C   UNL     1     -40.674  37.140  -2.077  0.00  0.00    +0.058 C 
ATOM     10  C   UNL     1     -40.002  39.031  -3.636  0.00  0.00    -0.025 C 
ATOM     11  C   UNL     1     -40.302  40.339  -3.698  0.00  0.00    +0.010 C 
ATOM     12  C   UNL     1     -43.432  36.042  -3.596  0.00  0.00    +0.044 C 
ATOM     13  C   UNL     1     -44.847  37.839  -2.646  0.00  0.00    +0.044 C 
ATOM     14  C   UNL     1     -41.644  36.794  -1.209  0.00  0.00    +0.176 C 
ATOM     15  C   UNL     1     -39.275  36.667  -1.837  0.00  0.00    +0.195 C 
ATOM     16  C   UNL     1     -41.343  36.105   0.073  0.00  0.00    +0.232 C 
ATOM     17  C   UNL     1     -38.933  36.142  -0.505  0.00  0.00    +0.048 C 
ATOM     18  C   UNL     1     -39.934  35.868   0.421  0.00  0.00    +0.079 C 
ATOM     19  C   UNL     1     -37.593  35.899  -0.176  0.00  0.00    +0.040 C 
ATOM     20  C   UNL     1     -39.604  35.351   1.679  0.00  0.00    +0.140 C 
ATOM     21  C   UNL     1     -37.265  35.388   1.079  0.00  0.00    +0.137 C 
ATOM     22  C   UNL     1     -38.269  35.114   2.005  0.00  0.00    +0.073 C 
ENDROOT
BRANCH   7  23
ATOM     23  O   UNL     1     -42.298  39.785  -1.358  0.00  0.00    -0.382 OA
ATOM     24  H   UNL     1     -41.363  39.563  -1.233  0.00  0.00    +0.210 HD
ENDBRANCH   7  23
BRANCH   8  25
ATOM     25  O   UNL     1     -42.290  41.232  -4.670  0.00  0.00    -0.378 OA
ATOM     26  H   UNL     1     -42.832  42.025  -4.539  0.00  0.00    +0.211 HD
ENDBRANCH   8  25
BRANCH  20  27
ATOM     27  O   UNL     1     -40.540  35.067   2.629  0.00  0.00    -0.505 OA
ATOM     28  H   UNL     1     -41.354  34.673   2.382  0.00  0.00    +0.292 HD
ENDBRANCH  20  27
BRANCH  21  29
ATOM     29  O   UNL     1     -35.963  35.155   1.399  0.00  0.00    -0.505 OA
ATOM     30  H   UNL     1     -35.744  34.484   2.017  0.00  0.00    +0.292 HD
ENDBRANCH  21  29
BRANCH  11  31
ATOM     31  C   UNL     1     -39.256  41.366  -4.031  0.00  0.00    +0.161 C 
BRANCH  31  32
ATOM     32  O   UNL     1     -39.231  42.362  -3.027  0.00  0.00    -0.377 OA
ATOM     33  H   UNL     1     -39.248  41.942  -2.153  0.00  0.00    +0.211 HD
ENDBRANCH  31  32
ENDBRANCH  11  31
TORSDOF 6
ENDMDL
