MODEL 1
REMARK VINA RESULT:      -7.9      0.000      0.000
REMARK  Name = 56962369
REMARK  6 active torsions:
REMARK  status: ('A' for Active; 'I' for Inactive)
REMARK    1  A    between atoms: C_5  and  C_20
REMARK    2  A    between atoms: C_5  and  C_34
REMARK    3  A    between atoms: N_19  and  C_22
REMARK    4  A    between atoms: C_25  and  O_28
REMARK    5  A    between atoms: O_28  and  C_31
REMARK    6  A    between atoms: C_34  and  N_35
REMARK                            x       y       z     vdW  Elec       q    Type
REMARK                         _______ _______ _______ _____ _____    ______ ____
ROOT
ATOM      1  N   UNL     1     -33.956  26.618   4.253  0.00  0.00    -0.296 N 
ATOM      2  N   UNL     1     -33.253  28.210   2.632  0.00  0.00    -0.233 NA
ATOM      3  N   UNL     1     -30.982  30.006   5.449  0.00  0.00    -0.301 N 
ATOM      4  N   UNL     1     -31.706  30.017   3.149  0.00  0.00    -0.233 NA
ATOM      5  C   UNL     1     -35.541  24.246   4.876  0.00  0.00    +0.053 C 
ATOM      6  C   UNL     1     -35.747  25.588   5.595  0.00  0.00    +0.028 C 
ATOM      7  C   UNL     1     -34.091  24.159   4.373  0.00  0.00    +0.028 C 
ATOM      8  C   UNL     1     -33.675  25.368   3.536  0.00  0.00    +0.092 C 
ATOM      9  C   UNL     1     -35.323  26.792   4.754  0.00  0.00    +0.092 C 
ATOM     10  C   UNL     1     -33.204  27.746   3.903  0.00  0.00    +0.116 C 
ATOM     11  C   UNL     1     -32.406  28.398   4.841  0.00  0.00    +0.127 C 
ATOM     12  C   UNL     1     -31.699  29.508   4.394  0.00  0.00    +0.116 C 
ATOM     13  C   UNL     1     -32.093  28.234   6.215  0.00  0.00    -0.016 C 
ATOM     14  C   UNL     1     -31.214  29.239   6.562  0.00  0.00    +0.055 C 
ATOM     15  C   UNL     1     -32.512  29.302   2.339  0.00  0.00    +0.252 C 
ATOM     16  C   UNL     1     -32.602  27.189   7.125  0.00  0.00    +0.029 C 
ATOM     17  H   UNL     1     -30.391  30.793   5.415  0.00  0.00    +0.153 HD
ENDROOT
BRANCH   5  20
ATOM     18  O   UNL     1     -36.274  23.354   2.766  0.00  0.00    -0.275 OA
ATOM     19  N   UNL     1     -37.728  24.741   3.989  0.00  0.00    -0.284 N 
ATOM     20  C   UNL     1     -36.551  24.048   3.739  0.00  0.00    +0.223 C 
ATOM     21  H   UNL     1     -37.763  25.251   4.830  0.00  0.00    +0.155 HD
BRANCH  19  22
ATOM     22  C   UNL     1     -38.883  24.800   3.174  0.00  0.00    +0.053 C 
ATOM     23  C   UNL     1     -39.645  25.967   3.125  0.00  0.00    +0.052 C 
ATOM     24  C   UNL     1     -39.261  23.689   2.419  0.00  0.00    +0.015 C 
ATOM     25  C   UNL     1     -40.784  26.024   2.322  0.00  0.00    +0.151 C 
ATOM     26  C   UNL     1     -40.401  23.746   1.617  0.00  0.00    +0.004 C 
ATOM     27  C   UNL     1     -41.162  24.913   1.567  0.00  0.00    +0.038 C 
BRANCH  25  28
ATOM     28  O   UNL     1     -41.528  27.164   2.277  0.00  0.00    -0.410 OA
BRANCH  28  31
ATOM     29  O   UNL     1     -41.690  27.974   4.439  0.00  0.00    -0.226 OA
ATOM     30  N   UNL     1     -43.603  27.160   3.396  0.00  0.00    -0.242 N 
ATOM     31  C   UNL     1     -42.241  27.474   3.458  0.00  0.00    +0.410 C 
ATOM     32  C   UNL     1     -44.468  27.423   4.537  0.00  0.00    +0.118 C 
ATOM     33  C   UNL     1     -44.246  26.568   2.227  0.00  0.00    +0.118 C 
ENDBRANCH  28  31
ENDBRANCH  25  28
ENDBRANCH  19  22
ENDBRANCH   5  20
BRANCH   5  34
ATOM     34  C   UNL     1     -35.772  23.132   5.866  0.00  0.00    -0.077 C 
BRANCH  34  35
ATOM     35  N   UNL     1     -35.929  21.862   5.180  0.00  0.00    +0.381 N 
ATOM     36  H   UNL     1     -35.165  21.736   4.517  0.00  0.00    -0.089 HD
ATOM     37  H   UNL     1     -36.818  21.853   4.680  0.00  0.00    -0.089 HD
ATOM     38  H   UNL     1     -35.916  21.103   5.862  0.00  0.00    -0.089 HD
ENDBRANCH  34  35
ENDBRANCH   5  34
TORSDOF 6
ENDMDL
MODEL 2
REMARK VINA RESULT:      -7.7      2.032      3.433
REMARK  Name = 56962369
REMARK  6 active torsions:
REMARK  status: ('A' for Active; 'I' for Inactive)
REMARK    1  A    between atoms: C_5  and  C_20
REMARK    2  A    between atoms: C_5  and  C_34
REMARK    3  A    between atoms: N_19  and  C_22
REMARK    4  A    between atoms: C_25  and  O_28
REMARK    5  A    between atoms: O_28  and  C_31
REMARK    6  A    between atoms: C_34  and  N_35
REMARK                            x       y       z     vdW  Elec       q    Type
REMARK                         _______ _______ _______ _____ _____    ______ ____
ROOT
ATOM      1  N   UNL     1     -34.043  26.582   4.179  0.00  0.00    -0.296 N 
ATOM      2  N   UNL     1     -33.325  28.158   2.550  0.00  0.00    -0.233 NA
ATOM      3  N   UNL     1     -30.994  29.913   5.344  0.00  0.00    -0.301 N 
ATOM      4  N   UNL     1     -31.739  29.936   3.051  0.00  0.00    -0.233 NA
ATOM      5  C   UNL     1     -35.667  24.241   4.818  0.00  0.00    +0.053 C 
ATOM      6  C   UNL     1     -35.841  25.587   5.538  0.00  0.00    +0.028 C 
ATOM      7  C   UNL     1     -34.224  24.126   4.303  0.00  0.00    +0.028 C 
ATOM      8  C   UNL     1     -33.792  25.325   3.460  0.00  0.00    +0.092 C 
ATOM      9  C   UNL     1     -35.402  26.782   4.691  0.00  0.00    +0.092 C 
ATOM     10  C   UNL     1     -33.273  27.695   3.820  0.00  0.00    +0.116 C 
ATOM     11  C   UNL     1     -32.454  28.333   4.751  0.00  0.00    +0.127 C 
ATOM     12  C   UNL     1     -31.730  29.428   4.296  0.00  0.00    +0.116 C 
ATOM     13  C   UNL     1     -32.131  28.164   6.121  0.00  0.00    -0.016 C 
ATOM     14  C   UNL     1     -31.231  29.152   6.460  0.00  0.00    +0.055 C 
ATOM     15  C   UNL     1     -32.565  29.235   2.248  0.00  0.00    +0.252 C 
ATOM     16  C   UNL     1     -32.652  27.129   7.037  0.00  0.00    +0.029 C 
ATOM     17  H   UNL     1     -30.389  30.689   5.304  0.00  0.00    +0.153 HD
ENDROOT
BRANCH   5  20
ATOM     18  O   UNL     1     -36.429  23.376   2.708  0.00  0.00    -0.275 OA
ATOM     19  N   UNL     1     -37.861  24.758   3.962  0.00  0.00    -0.284 N 
ATOM     20  C   UNL     1     -36.691  24.061   3.691  0.00  0.00    +0.223 C 
ATOM     21  H   UNL     1     -37.884  25.259   4.809  0.00  0.00    +0.155 HD
BRANCH  19  22
ATOM     22  C   UNL     1     -39.025  24.832   3.161  0.00  0.00    +0.053 C 
ATOM     23  C   UNL     1     -39.304  23.824   2.237  0.00  0.00    +0.052 C 
ATOM     24  C   UNL     1     -39.894  25.915   3.294  0.00  0.00    +0.015 C 
ATOM     25  C   UNL     1     -40.450  23.899   1.448  0.00  0.00    +0.151 C 
ATOM     26  C   UNL     1     -41.042  25.990   2.504  0.00  0.00    +0.004 C 
ATOM     27  C   UNL     1     -41.320  24.981   1.581  0.00  0.00    +0.038 C 
BRANCH  25  28
ATOM     28  O   UNL     1     -40.720  22.915   0.546  0.00  0.00    -0.410 OA
BRANCH  28  31
ATOM     29  O   UNL     1     -40.345  20.986   1.767  0.00  0.00    -0.226 OA
ATOM     30  N   UNL     1     -39.137  21.331  -0.190  0.00  0.00    -0.242 N 
ATOM     31  C   UNL     1     -40.080  21.677   0.784  0.00  0.00    +0.410 C 
ATOM     32  C   UNL     1     -38.396  20.084  -0.081  0.00  0.00    +0.118 C 
ATOM     33  C   UNL     1     -38.831  22.158  -1.352  0.00  0.00    +0.118 C 
ENDBRANCH  28  31
ENDBRANCH  25  28
ENDBRANCH  19  22
ENDBRANCH   5  20
BRANCH   5  34
ATOM     34  C   UNL     1     -35.910  23.132   5.812  0.00  0.00    -0.077 C 
BRANCH  34  35
ATOM     35  N   UNL     1     -35.912  21.841   5.148  0.00  0.00    +0.381 N 
ATOM     36  H   UNL     1     -36.849  21.441   5.183  0.00  0.00    -0.089 HD
ATOM     37  H   UNL     1     -35.257  21.216   5.620  0.00  0.00    -0.089 HD
ATOM     38  H   UNL     1     -35.628  21.958   4.175  0.00  0.00    -0.089 HD
ENDBRANCH  34  35
ENDBRANCH   5  34
TORSDOF 6
ENDMDL
MODEL 3
REMARK VINA RESULT:      -7.3      6.378      8.824
REMARK  Name = 56962369
REMARK  6 active torsions:
REMARK  status: ('A' for Active; 'I' for Inactive)
REMARK    1  A    between atoms: C_5  and  C_20
REMARK    2  A    between atoms: C_5  and  C_34
REMARK    3  A    between atoms: N_19  and  C_22
REMARK    4  A    between atoms: C_25  and  O_28
REMARK    5  A    between atoms: O_28  and  C_31
REMARK    6  A    between atoms: C_34  and  N_35
REMARK                            x       y       z     vdW  Elec       q    Type
REMARK                         _______ _______ _______ _____ _____    ______ ____
ROOT
ATOM      1  N   UNL     1     -36.200  22.673   1.909  0.00  0.00    -0.296 N 
ATOM      2  N   UNL     1     -37.712  24.386   1.251  0.00  0.00    -0.233 NA
ATOM      3  N   UNL     1     -36.969  26.310   4.725  0.00  0.00    -0.301 N 
ATOM      4  N   UNL     1     -38.186  26.326   2.644  0.00  0.00    -0.233 NA
ATOM      5  C   UNL     1     -34.875  20.152   1.264  0.00  0.00    +0.053 C 
ATOM      6  C   UNL     1     -35.768  20.321   2.503  0.00  0.00    +0.028 C 
ATOM      7  C   UNL     1     -34.283  21.516   0.878  0.00  0.00    +0.028 C 
ATOM      8  C   UNL     1     -35.342  22.606   0.718  0.00  0.00    +0.092 C 
ATOM      9  C   UNL     1     -36.822  21.417   2.339  0.00  0.00    +0.092 C 
ATOM     10  C   UNL     1     -36.851  23.886   2.167  0.00  0.00    +0.116 C 
ATOM     11  C   UNL     1     -36.625  24.585   3.352  0.00  0.00    +0.127 C 
ATOM     12  C   UNL     1     -37.320  25.777   3.513  0.00  0.00    +0.116 C 
ATOM     13  C   UNL     1     -35.833  24.407   4.515  0.00  0.00    -0.016 C 
ATOM     14  C   UNL     1     -36.065  25.485   5.343  0.00  0.00    +0.055 C 
ATOM     15  C   UNL     1     -38.318  25.559   1.543  0.00  0.00    +0.252 C 
ATOM     16  C   UNL     1     -34.920  23.284   4.806  0.00  0.00    +0.029 C 
ATOM     17  H   UNL     1     -37.312  27.155   5.096  0.00  0.00    +0.153 HD
ENDROOT
BRANCH   5  20
ATOM     18  O   UNL     1     -35.285  19.699  -1.063  0.00  0.00    -0.275 OA
ATOM     19  N   UNL     1     -36.703  18.748   0.555  0.00  0.00    -0.284 N 
ATOM     20  C   UNL     1     -35.637  19.510   0.098  0.00  0.00    +0.223 C 
ATOM     21  H   UNL     1     -36.830  18.718   1.531  0.00  0.00    +0.155 HD
BRANCH  19  22
ATOM     22  C   UNL     1     -37.630  18.009  -0.219  0.00  0.00    +0.053 C 
ATOM     23  C   UNL     1     -37.527  16.620  -0.294  0.00  0.00    +0.052 C 
ATOM     24  C   UNL     1     -38.646  18.671  -0.907  0.00  0.00    +0.015 C 
ATOM     25  C   UNL     1     -38.440  15.894  -1.058  0.00  0.00    +0.151 C 
ATOM     26  C   UNL     1     -39.559  17.944  -1.672  0.00  0.00    +0.004 C 
ATOM     27  C   UNL     1     -39.457  16.556  -1.746  0.00  0.00    +0.038 C 
BRANCH  25  28
ATOM     28  O   UNL     1     -38.337  14.538  -1.132  0.00  0.00    -0.410 OA
BRANCH  28  31
ATOM     29  O   UNL     1     -40.055  13.843   0.254  0.00  0.00    -0.226 OA
ATOM     30  N   UNL     1     -40.017  13.100  -1.950  0.00  0.00    -0.242 N 
ATOM     31  C   UNL     1     -39.524  13.820  -0.856  0.00  0.00    +0.410 C 
ATOM     32  C   UNL     1     -41.233  12.312  -1.818  0.00  0.00    +0.118 C 
ATOM     33  C   UNL     1     -39.379  13.081  -3.262  0.00  0.00    +0.118 C 
ENDBRANCH  28  31
ENDBRANCH  25  28
ENDBRANCH  19  22
ENDBRANCH   5  20
BRANCH   5  34
ATOM     34  C   UNL     1     -33.743  19.220   1.614  0.00  0.00    -0.077 C 
BRANCH  34  35
ATOM     35  N   UNL     1     -32.602  19.452   0.747  0.00  0.00    +0.381 N 
ATOM     36  H   UNL     1     -32.317  20.428   0.813  0.00  0.00    -0.089 HD
ATOM     37  H   UNL     1     -32.858  19.237  -0.217  0.00  0.00    -0.089 HD
ATOM     38  H   UNL     1     -31.828  18.852   1.034  0.00  0.00    -0.089 HD
ENDBRANCH  34  35
ENDBRANCH   5  34
TORSDOF 6
ENDMDL
MODEL 4
REMARK VINA RESULT:      -7.3      5.184      7.220
REMARK  Name = 56962369
REMARK  6 active torsions:
REMARK  status: ('A' for Active; 'I' for Inactive)
REMARK    1  A    between atoms: C_5  and  C_20
REMARK    2  A    between atoms: C_5  and  C_34
REMARK    3  A    between atoms: N_19  and  C_22
REMARK    4  A    between atoms: C_25  and  O_28
REMARK    5  A    between atoms: O_28  and  C_31
REMARK    6  A    between atoms: C_34  and  N_35
REMARK                            x       y       z     vdW  Elec       q    Type
REMARK                         _______ _______ _______ _____ _____    ______ ____
ROOT
ATOM      1  N   UNL     1     -36.222  22.670   1.914  0.00  0.00    -0.296 N 
ATOM      2  N   UNL     1     -37.774  24.359   1.286  0.00  0.00    -0.233 NA
ATOM      3  N   UNL     1     -36.974  26.310   4.732  0.00  0.00    -0.301 N 
ATOM      4  N   UNL     1     -38.241  26.299   2.681  0.00  0.00    -0.233 NA
ATOM      5  C   UNL     1     -34.879  20.165   1.248  0.00  0.00    +0.053 C 
ATOM      6  C   UNL     1     -35.743  20.328   2.507  0.00  0.00    +0.028 C 
ATOM      7  C   UNL     1     -34.315  21.535   0.841  0.00  0.00    +0.028 C 
ATOM      8  C   UNL     1     -35.393  22.610   0.703  0.00  0.00    +0.092 C 
ATOM      9  C   UNL     1     -36.816  21.408   2.365  0.00  0.00    +0.092 C 
ATOM     10  C   UNL     1     -36.884  23.875   2.183  0.00  0.00    +0.116 C 
ATOM     11  C   UNL     1     -36.639  24.583   3.359  0.00  0.00    +0.127 C 
ATOM     12  C   UNL     1     -37.346  25.766   3.531  0.00  0.00    +0.116 C 
ATOM     13  C   UNL     1     -35.816  24.422   4.502  0.00  0.00    -0.016 C 
ATOM     14  C   UNL     1     -36.043  25.500   5.331  0.00  0.00    +0.055 C 
ATOM     15  C   UNL     1     -38.389  25.525   1.587  0.00  0.00    +0.252 C 
ATOM     16  C   UNL     1     -34.881  23.312   4.777  0.00  0.00    +0.029 C 
ATOM     17  H   UNL     1     -37.320  27.152   5.108  0.00  0.00    +0.153 HD
ENDROOT
BRANCH   5  20
ATOM     18  O   UNL     1     -35.332  19.688  -1.066  0.00  0.00    -0.275 OA
ATOM     19  N   UNL     1     -36.711  18.742   0.589  0.00  0.00    -0.284 N 
ATOM     20  C   UNL     1     -35.659  19.507   0.103  0.00  0.00    +0.223 C 
ATOM     21  H   UNL     1     -36.818  18.721   1.568  0.00  0.00    +0.155 HD
BRANCH  19  22
ATOM     22  C   UNL     1     -37.648  17.991  -0.159  0.00  0.00    +0.053 C 
ATOM     23  C   UNL     1     -38.573  18.641  -0.976  0.00  0.00    +0.052 C 
ATOM     24  C   UNL     1     -37.647  16.598  -0.078  0.00  0.00    +0.015 C 
ATOM     25  C   UNL     1     -39.496  17.899  -1.711  0.00  0.00    +0.151 C 
ATOM     26  C   UNL     1     -38.571  15.856  -0.814  0.00  0.00    +0.004 C 
ATOM     27  C   UNL     1     -39.495  16.507  -1.632  0.00  0.00    +0.038 C 
BRANCH  25  28
ATOM     28  O   UNL     1     -40.399  18.536  -2.508  0.00  0.00    -0.410 OA
BRANCH  28  31
ATOM     29  O   UNL     1     -42.217  18.691  -1.083  0.00  0.00    -0.226 OA
ATOM     30  N   UNL     1     -41.406  20.625  -2.089  0.00  0.00    -0.242 N 
ATOM     31  C   UNL     1     -41.413  19.251  -1.829  0.00  0.00    +0.410 C 
ATOM     32  C   UNL     1     -42.392  21.494  -1.461  0.00  0.00    +0.118 C 
ATOM     33  C   UNL     1     -40.448  21.279  -2.974  0.00  0.00    +0.118 C 
ENDBRANCH  28  31
ENDBRANCH  25  28
ENDBRANCH  19  22
ENDBRANCH   5  20
BRANCH   5  34
ATOM     34  C   UNL     1     -33.725  19.250   1.574  0.00  0.00    -0.077 C 
BRANCH  34  35
ATOM     35  N   UNL     1     -32.588  19.533   0.716  0.00  0.00    +0.381 N 
ATOM     36  H   UNL     1     -32.441  20.541   0.666  0.00  0.00    -0.089 HD
ATOM     37  H   UNL     1     -32.770  19.170  -0.220  0.00  0.00    -0.089 HD
ATOM     38  H   UNL     1     -31.754  19.086   1.097  0.00  0.00    -0.089 HD
ENDBRANCH  34  35
ENDBRANCH   5  34
TORSDOF 6
ENDMDL
MODEL 5
REMARK VINA RESULT:      -7.2      3.401      5.761
REMARK  Name = 56962369
REMARK  6 active torsions:
REMARK  status: ('A' for Active; 'I' for Inactive)
REMARK    1  A    between atoms: C_5  and  C_20
REMARK    2  A    between atoms: C_5  and  C_34
REMARK    3  A    between atoms: N_19  and  C_22
REMARK    4  A    between atoms: C_25  and  O_28
REMARK    5  A    between atoms: O_28  and  C_31
REMARK    6  A    between atoms: C_34  and  N_35
REMARK                            x       y       z     vdW  Elec       q    Type
REMARK                         _______ _______ _______ _____ _____    ______ ____
ROOT
ATOM      1  N   UNL     1     -34.303  26.166   4.220  0.00  0.00    -0.296 N 
ATOM      2  N   UNL     1     -33.779  27.753   2.529  0.00  0.00    -0.233 NA
ATOM      3  N   UNL     1     -31.407  29.700   5.156  0.00  0.00    -0.301 N 
ATOM      4  N   UNL     1     -32.281  29.635   2.910  0.00  0.00    -0.233 NA
ATOM      5  C   UNL     1     -35.737  23.742   4.988  0.00  0.00    +0.053 C 
ATOM      6  C   UNL     1     -35.954  25.088   5.696  0.00  0.00    +0.028 C 
ATOM      7  C   UNL     1     -34.322  23.707   4.391  0.00  0.00    +0.028 C 
ATOM      8  C   UNL     1     -34.015  24.915   3.507  0.00  0.00    +0.092 C 
ATOM      9  C   UNL     1     -35.639  26.292   4.808  0.00  0.00    +0.092 C 
ATOM     10  C   UNL     1     -33.626  27.318   3.801  0.00  0.00    +0.116 C 
ATOM     11  C   UNL     1     -32.796  28.022   4.673  0.00  0.00    +0.127 C 
ATOM     12  C   UNL     1     -32.170  29.151   4.160  0.00  0.00    +0.116 C 
ATOM     13  C   UNL     1     -32.385  27.899   6.024  0.00  0.00    -0.016 C 
ATOM     14  C   UNL     1     -31.530  28.946   6.295  0.00  0.00    +0.055 C 
ATOM     15  C   UNL     1     -33.107  28.870   2.168  0.00  0.00    +0.252 C 
ATOM     16  C   UNL     1     -32.787  26.851   6.984  0.00  0.00    +0.029 C 
ATOM     17  H   UNL     1     -30.854  30.511   5.069  0.00  0.00    +0.153 HD
ENDROOT
BRANCH   5  20
ATOM     18  O   UNL     1     -37.741  24.262   3.764  0.00  0.00    -0.275 OA
ATOM     19  N   UNL     1     -36.562  22.294   3.244  0.00  0.00    -0.284 N 
ATOM     20  C   UNL     1     -36.811  23.478   3.925  0.00  0.00    +0.223 C 
ATOM     21  H   UNL     1     -35.760  21.794   3.520  0.00  0.00    +0.155 HD
BRANCH  19  22
ATOM     22  C   UNL     1     -37.328  21.722   2.201  0.00  0.00    +0.053 C 
ATOM     23  C   UNL     1     -36.704  20.957   1.215  0.00  0.00    +0.052 C 
ATOM     24  C   UNL     1     -38.707  21.924   2.158  0.00  0.00    +0.015 C 
ATOM     25  C   UNL     1     -37.460  20.395   0.187  0.00  0.00    +0.151 C 
ATOM     26  C   UNL     1     -39.463  21.361   1.129  0.00  0.00    +0.004 C 
ATOM     27  C   UNL     1     -38.839  20.595   0.144  0.00  0.00    +0.038 C 
BRANCH  25  28
ATOM     28  O   UNL     1     -36.849  19.649  -0.776  0.00  0.00    -0.410 OA
BRANCH  28  31
ATOM     29  O   UNL     1     -37.306  17.536   0.051  0.00  0.00    -0.226 OA
ATOM     30  N   UNL     1     -35.124  18.057  -0.564  0.00  0.00    -0.242 N 
ATOM     31  C   UNL     1     -36.484  18.338  -0.392  0.00  0.00    +0.410 C 
ATOM     32  C   UNL     1     -34.598  16.747  -0.212  0.00  0.00    +0.118 C 
ATOM     33  C   UNL     1     -34.158  19.015  -1.091  0.00  0.00    +0.118 C 
ENDBRANCH  28  31
ENDBRANCH  25  28
ENDBRANCH  19  22
ENDBRANCH   5  20
BRANCH   5  34
ATOM     34  C   UNL     1     -35.853  22.639   6.010  0.00  0.00    -0.077 C 
BRANCH  34  35
ATOM     35  N   UNL     1     -34.650  21.826   6.026  0.00  0.00    +0.381 N 
ATOM     36  H   UNL     1     -34.782  21.033   6.653  0.00  0.00    -0.089 HD
ATOM     37  H   UNL     1     -33.864  22.389   6.351  0.00  0.00    -0.089 HD
ATOM     38  H   UNL     1     -34.456  21.486   5.083  0.00  0.00    -0.089 HD
ENDBRANCH  34  35
ENDBRANCH   5  34
TORSDOF 6
ENDMDL
MODEL 6
REMARK VINA RESULT:      -7.1      3.258      6.071
REMARK  Name = 56962369
REMARK  6 active torsions:
REMARK  status: ('A' for Active; 'I' for Inactive)
REMARK    1  A    between atoms: C_5  and  C_20
REMARK    2  A    between atoms: C_5  and  C_34
REMARK    3  A    between atoms: N_19  and  C_22
REMARK    4  A    between atoms: C_25  and  O_28
REMARK    5  A    between atoms: O_28  and  C_31
REMARK    6  A    between atoms: C_34  and  N_35
REMARK                            x       y       z     vdW  Elec       q    Type
REMARK                         _______ _______ _______ _____ _____    ______ ____
ROOT
ATOM      1  N   UNL     1     -38.051  25.062   2.946  0.00  0.00    -0.296 N 
ATOM      2  N   UNL     1     -36.649  26.036   4.601  0.00  0.00    -0.233 NA
ATOM      3  N   UNL     1     -34.749  22.494   5.010  0.00  0.00    -0.301 N 
ATOM      4  N   UNL     1     -34.897  24.787   5.741  0.00  0.00    -0.233 NA
ATOM      5  C   UNL     1     -40.231  25.395   1.032  0.00  0.00    +0.053 C 
ATOM      6  C   UNL     1     -40.290  24.376   2.181  0.00  0.00    +0.028 C 
ATOM      7  C   UNL     1     -38.762  25.654   0.661  0.00  0.00    +0.028 C 
ATOM      8  C   UNL     1     -37.900  26.041   1.862  0.00  0.00    +0.092 C 
ATOM      9  C   UNL     1     -39.420  24.767   3.376  0.00  0.00    +0.092 C 
ATOM     10  C   UNL     1     -37.003  24.955   3.868  0.00  0.00    +0.116 C 
ATOM     11  C   UNL     1     -36.318  23.753   4.043  0.00  0.00    +0.127 C 
ATOM     12  C   UNL     1     -35.295  23.750   4.983  0.00  0.00    +0.116 C 
ATOM     13  C   UNL     1     -36.378  22.447   3.493  0.00  0.00    -0.016 C 
ATOM     14  C   UNL     1     -35.401  21.693   4.108  0.00  0.00    +0.055 C 
ATOM     15  C   UNL     1     -35.632  25.887   5.480  0.00  0.00    +0.252 C 
ATOM     16  C   UNL     1     -37.308  21.961   2.454  0.00  0.00    +0.029 C 
ATOM     17  H   UNL     1     -34.004  22.209   5.588  0.00  0.00    +0.153 HD
ENDROOT
BRANCH   5  20
ATOM     18  O   UNL     1     -40.648  27.758   0.865  0.00  0.00    -0.275 OA
ATOM     19  N   UNL     1     -41.967  26.464   2.321  0.00  0.00    -0.284 N 
ATOM     20  C   UNL     1     -40.967  26.694   1.385  0.00  0.00    +0.223 C 
ATOM     21  H   UNL     1     -42.072  25.534   2.627  0.00  0.00    +0.155 HD
BRANCH  19  22
ATOM     22  C   UNL     1     -42.852  27.411   2.887  0.00  0.00    +0.053 C 
ATOM     23  C   UNL     1     -42.488  28.106   4.040  0.00  0.00    +0.052 C 
ATOM     24  C   UNL     1     -44.090  27.651   2.290  0.00  0.00    +0.015 C 
ATOM     25  C   UNL     1     -43.362  29.039   4.598  0.00  0.00    +0.151 C 
ATOM     26  C   UNL     1     -44.965  28.584   2.849  0.00  0.00    +0.004 C 
ATOM     27  C   UNL     1     -44.600  29.279   4.001  0.00  0.00    +0.038 C 
BRANCH  25  28
ATOM     28  O   UNL     1     -43.006  29.715   5.725  0.00  0.00    -0.410 OA
BRANCH  28  31
ATOM     29  O   UNL     1     -43.731  31.904   5.526  0.00  0.00    -0.226 OA
ATOM     30  N   UNL     1     -44.771  30.510   7.071  0.00  0.00    -0.242 N 
ATOM     31  C   UNL     1     -43.838  30.805   6.071  0.00  0.00    +0.410 C 
ATOM     32  C   UNL     1     -45.697  31.533   7.533  0.00  0.00    +0.118 C 
ATOM     33  C   UNL     1     -44.890  29.203   7.709  0.00  0.00    +0.118 C 
ENDBRANCH  28  31
ENDBRANCH  25  28
ENDBRANCH  19  22
ENDBRANCH   5  20
BRANCH   5  34
ATOM     34  C   UNL     1     -40.931  24.807  -0.166  0.00  0.00    -0.077 C 
BRANCH  34  35
ATOM     35  N   UNL     1     -41.853  23.762   0.241  0.00  0.00    +0.381 N 
ATOM     36  H   UNL     1     -42.202  23.961   1.178  0.00  0.00    -0.089 HD
ATOM     37  H   UNL     1     -41.370  22.863   0.242  0.00  0.00    -0.089 HD
ATOM     38  H   UNL     1     -42.637  23.725  -0.412  0.00  0.00    -0.089 HD
ENDBRANCH  34  35
ENDBRANCH   5  34
TORSDOF 6
ENDMDL
MODEL 7
REMARK VINA RESULT:      -7.0      6.413      9.056
REMARK  Name = 56962369
REMARK  6 active torsions:
REMARK  status: ('A' for Active; 'I' for Inactive)
REMARK    1  A    between atoms: C_5  and  C_20
REMARK    2  A    between atoms: C_5  and  C_34
REMARK    3  A    between atoms: N_19  and  C_22
REMARK    4  A    between atoms: C_25  and  O_28
REMARK    5  A    between atoms: O_28  and  C_31
REMARK    6  A    between atoms: C_34  and  N_35
REMARK                            x       y       z     vdW  Elec       q    Type
REMARK                         _______ _______ _______ _____ _____    ______ ____
ROOT
ATOM      1  N   UNL     1     -36.165  22.659   1.982  0.00  0.00    -0.296 N 
ATOM      2  N   UNL     1     -37.722  24.346   1.360  0.00  0.00    -0.233 NA
ATOM      3  N   UNL     1     -36.919  26.292   4.808  0.00  0.00    -0.301 N 
ATOM      4  N   UNL     1     -38.191  26.282   2.760  0.00  0.00    -0.233 NA
ATOM      5  C   UNL     1     -34.817  20.159   1.309  0.00  0.00    +0.053 C 
ATOM      6  C   UNL     1     -35.679  20.317   2.570  0.00  0.00    +0.028 C 
ATOM      7  C   UNL     1     -34.257  21.531   0.903  0.00  0.00    +0.028 C 
ATOM      8  C   UNL     1     -35.338  22.603   0.769  0.00  0.00    +0.092 C 
ATOM      9  C   UNL     1     -36.754  21.395   2.432  0.00  0.00    +0.092 C 
ATOM     10  C   UNL     1     -36.829  23.862   2.254  0.00  0.00    +0.116 C 
ATOM     11  C   UNL     1     -36.583  24.569   3.431  0.00  0.00    +0.127 C 
ATOM     12  C   UNL     1     -37.293  25.750   3.607  0.00  0.00    +0.116 C 
ATOM     13  C   UNL     1     -35.757  24.408   4.573  0.00  0.00    -0.016 C 
ATOM     14  C   UNL     1     -35.985  25.484   5.404  0.00  0.00    +0.055 C 
ATOM     15  C   UNL     1     -38.340  25.510   1.665  0.00  0.00    +0.252 C 
ATOM     16  C   UNL     1     -34.819  23.300   4.843  0.00  0.00    +0.029 C 
ATOM     17  H   UNL     1     -37.266  27.133   5.186  0.00  0.00    +0.153 HD
ENDROOT
BRANCH   5  20
ATOM     18  O   UNL     1     -35.269  19.678  -1.004  0.00  0.00    -0.275 OA
ATOM     19  N   UNL     1     -36.653  18.741   0.651  0.00  0.00    -0.284 N 
ATOM     20  C   UNL     1     -35.598  19.501   0.165  0.00  0.00    +0.223 C 
ATOM     21  H   UNL     1     -36.761  18.722   1.630  0.00  0.00    +0.155 HD
BRANCH  19  22
ATOM     22  C   UNL     1     -37.592  17.991  -0.096  0.00  0.00    +0.053 C 
ATOM     23  C   UNL     1     -37.567  16.597  -0.051  0.00  0.00    +0.052 C 
ATOM     24  C   UNL     1     -38.542  18.646  -0.879  0.00  0.00    +0.015 C 
ATOM     25  C   UNL     1     -38.491  15.858  -0.789  0.00  0.00    +0.151 C 
ATOM     26  C   UNL     1     -39.467  17.907  -1.617  0.00  0.00    +0.004 C 
ATOM     27  C   UNL     1     -39.443  16.513  -1.571  0.00  0.00    +0.038 C 
BRANCH  25  28
ATOM     28  O   UNL     1     -38.465  14.497  -0.746  0.00  0.00    -0.410 OA
BRANCH  28  31
ATOM     29  O   UNL     1     -39.583  13.613  -2.569  0.00  0.00    -0.226 OA
ATOM     30  N   UNL     1     -37.260  13.504  -2.512  0.00  0.00    -0.242 N 
ATOM     31  C   UNL     1     -38.517  13.846  -2.000  0.00  0.00    +0.410 C 
ATOM     32  C   UNL     1     -37.153  12.827  -3.796  0.00  0.00    +0.118 C 
ATOM     33  C   UNL     1     -36.002  13.786  -1.829  0.00  0.00    +0.118 C 
ENDBRANCH  28  31
ENDBRANCH  25  28
ENDBRANCH  19  22
ENDBRANCH   5  20
BRANCH   5  34
ATOM     34  C   UNL     1     -33.660  19.246   1.631  0.00  0.00    -0.077 C 
BRANCH  34  35
ATOM     35  N   UNL     1     -32.541  19.506   0.744  0.00  0.00    +0.381 N 
ATOM     36  H   UNL     1     -32.832  20.145   0.005  0.00  0.00    -0.089 HD
ATOM     37  H   UNL     1     -32.225  18.629   0.329  0.00  0.00    -0.089 HD
ATOM     38  H   UNL     1     -31.776  19.925   1.274  0.00  0.00    -0.089 HD
ENDBRANCH  34  35
ENDBRANCH   5  34
TORSDOF 6
ENDMDL
MODEL 8
REMARK VINA RESULT:      -6.9      5.445      9.190
REMARK  Name = 56962369
REMARK  6 active torsions:
REMARK  status: ('A' for Active; 'I' for Inactive)
REMARK    1  A    between atoms: C_5  and  C_20
REMARK    2  A    between atoms: C_5  and  C_34
REMARK    3  A    between atoms: N_19  and  C_22
REMARK    4  A    between atoms: C_25  and  O_28
REMARK    5  A    between atoms: O_28  and  C_31
REMARK    6  A    between atoms: C_34  and  N_35
REMARK                            x       y       z     vdW  Elec       q    Type
REMARK                         _______ _______ _______ _____ _____    ______ ____
ROOT
ATOM      1  N   UNL     1     -33.802  20.088   0.354  0.00  0.00    -0.296 N 
ATOM      2  N   UNL     1     -31.435  19.859   0.371  0.00  0.00    -0.233 NA
ATOM      3  N   UNL     1     -31.725  17.129  -2.593  0.00  0.00    -0.301 N 
ATOM      4  N   UNL     1     -30.250  18.344  -1.123  0.00  0.00    -0.233 NA
ATOM      5  C   UNL     1     -36.175  21.389   1.448  0.00  0.00    +0.053 C 
ATOM      6  C   UNL     1     -35.975  19.867   1.492  0.00  0.00    +0.028 C 
ATOM      7  C   UNL     1     -35.394  21.968   0.258  0.00  0.00    +0.028 C 
ATOM      8  C   UNL     1     -33.925  21.548   0.246  0.00  0.00    +0.092 C 
ATOM      9  C   UNL     1     -34.503  19.453   1.473  0.00  0.00    +0.092 C 
ATOM     10  C   UNL     1     -32.633  19.501  -0.147  0.00  0.00    +0.116 C 
ATOM     11  C   UNL     1     -32.684  18.555  -1.169  0.00  0.00    +0.127 C 
ATOM     12  C   UNL     1     -31.470  18.032  -1.595  0.00  0.00    +0.116 C 
ATOM     13  C   UNL     1     -33.697  17.937  -1.948  0.00  0.00    -0.016 C 
ATOM     14  C   UNL     1     -33.077  17.064  -2.816  0.00  0.00    +0.055 C 
ATOM     15  C   UNL     1     -30.333  19.265  -0.142  0.00  0.00    +0.252 C 
ATOM     16  C   UNL     1     -35.152  18.171  -1.861  0.00  0.00    +0.029 C 
ATOM     17  H   UNL     1     -31.044  16.607  -3.077  0.00  0.00    +0.153 HD
ENDROOT
BRANCH   5  20
ATOM     18  O   UNL     1     -35.562  21.381   3.774  0.00  0.00    -0.275 OA
ATOM     19  N   UNL     1     -35.709  23.435   2.637  0.00  0.00    -0.284 N 
ATOM     20  C   UNL     1     -35.775  22.055   2.771  0.00  0.00    +0.223 C 
ATOM     21  H   UNL     1     -35.919  23.797   1.745  0.00  0.00    +0.155 HD
BRANCH  19  22
ATOM     22  C   UNL     1     -35.375  24.383   3.633  0.00  0.00    +0.053 C 
ATOM     23  C   UNL     1     -34.155  25.057   3.576  0.00  0.00    +0.052 C 
ATOM     24  C   UNL     1     -36.267  24.643   4.673  0.00  0.00    +0.015 C 
ATOM     25  C   UNL     1     -33.827  25.989   4.559  0.00  0.00    +0.151 C 
ATOM     26  C   UNL     1     -35.938  25.576   5.657  0.00  0.00    +0.004 C 
ATOM     27  C   UNL     1     -34.719  26.251   5.599  0.00  0.00    +0.038 C 
BRANCH  25  28
ATOM     28  O   UNL     1     -32.635  26.645   4.502  0.00  0.00    -0.410 OA
BRANCH  28  31
ATOM     29  O   UNL     1     -33.189  28.378   3.071  0.00  0.00    -0.226 OA
ATOM     30  N   UNL     1     -32.184  28.878   5.108  0.00  0.00    -0.242 N 
ATOM     31  C   UNL     1     -32.706  28.011   4.142  0.00  0.00    +0.410 C 
ATOM     32  C   UNL     1     -32.187  30.315   4.879  0.00  0.00    +0.118 C 
ATOM     33  C   UNL     1     -31.614  28.433   6.375  0.00  0.00    +0.118 C 
ENDBRANCH  28  31
ENDBRANCH  25  28
ENDBRANCH  19  22
ENDBRANCH   5  20
BRANCH   5  34
ATOM     34  C   UNL     1     -37.642  21.673   1.242  0.00  0.00    -0.077 C 
BRANCH  34  35
ATOM     35  N   UNL     1     -38.441  21.001   2.250  0.00  0.00    +0.381 N 
ATOM     36  H   UNL     1     -38.604  20.035   1.967  0.00  0.00    -0.089 HD
ATOM     37  H   UNL     1     -39.336  21.481   2.351  0.00  0.00    -0.089 HD
ATOM     38  H   UNL     1     -37.946  21.015   3.142  0.00  0.00    -0.089 HD
ENDBRANCH  34  35
ENDBRANCH   5  34
TORSDOF 6
ENDMDL
MODEL 9
REMARK VINA RESULT:      -6.9      4.074      9.457
REMARK  Name = 56962369
REMARK  6 active torsions:
REMARK  status: ('A' for Active; 'I' for Inactive)
REMARK    1  A    between atoms: C_5  and  C_20
REMARK    2  A    between atoms: C_5  and  C_34
REMARK    3  A    between atoms: N_19  and  C_22
REMARK    4  A    between atoms: C_25  and  O_28
REMARK    5  A    between atoms: O_28  and  C_31
REMARK    6  A    between atoms: C_34  and  N_35
REMARK                            x       y       z     vdW  Elec       q    Type
REMARK                         _______ _______ _______ _____ _____    ______ ____
ROOT
ATOM      1  N   UNL     1     -35.399  21.503   1.849  0.00  0.00    -0.296 N 
ATOM      2  N   UNL     1     -33.687  19.892   1.491  0.00  0.00    -0.233 NA
ATOM      3  N   UNL     1     -36.286  17.681  -0.673  0.00  0.00    -0.301 N 
ATOM      4  N   UNL     1     -34.042  17.863   0.192  0.00  0.00    -0.233 NA
ATOM      5  C   UNL     1     -36.200  24.051   3.028  0.00  0.00    +0.053 C 
ATOM      6  C   UNL     1     -36.892  22.725   3.380  0.00  0.00    +0.028 C 
ATOM      7  C   UNL     1     -35.600  23.949   1.617  0.00  0.00    +0.028 C 
ATOM      8  C   UNL     1     -34.701  22.727   1.436  0.00  0.00    +0.092 C 
ATOM      9  C   UNL     1     -35.988  21.507   3.191  0.00  0.00    +0.092 C 
ATOM     10  C   UNL     1     -34.964  20.294   1.293  0.00  0.00    +0.116 C 
ATOM     11  C   UNL     1     -35.826  19.498   0.538  0.00  0.00    +0.127 C 
ATOM     12  C   UNL     1     -35.298  18.317   0.031  0.00  0.00    +0.116 C 
ATOM     13  C   UNL     1     -37.178  19.562   0.116  0.00  0.00    -0.016 C 
ATOM     14  C   UNL     1     -37.434  18.429  -0.628  0.00  0.00    +0.055 C 
ATOM     15  C   UNL     1     -33.311  18.717   0.936  0.00  0.00    +0.252 C 
ATOM     16  C   UNL     1     -38.151  20.633   0.408  0.00  0.00    +0.029 C 
ATOM     17  H   UNL     1     -36.187  16.820  -1.140  0.00  0.00    +0.153 HD
ENDROOT
BRANCH   5  20
ATOM     18  O   UNL     1     -34.689  23.598   4.844  0.00  0.00    -0.275 OA
ATOM     19  N   UNL     1     -34.826  25.785   3.988  0.00  0.00    -0.284 N 
ATOM     20  C   UNL     1     -35.142  24.436   4.071  0.00  0.00    +0.223 C 
ATOM     21  H   UNL     1     -35.301  26.302   3.298  0.00  0.00    +0.155 HD
BRANCH  19  22
ATOM     22  C   UNL     1     -33.899  26.503   4.780  0.00  0.00    +0.053 C 
ATOM     23  C   UNL     1     -33.032  27.419   4.185  0.00  0.00    +0.052 C 
ATOM     24  C   UNL     1     -33.852  26.294   6.159  0.00  0.00    +0.015 C 
ATOM     25  C   UNL     1     -32.119  28.125   4.966  0.00  0.00    +0.151 C 
ATOM     26  C   UNL     1     -32.938  27.000   6.941  0.00  0.00    +0.004 C 
ATOM     27  C   UNL     1     -32.072  27.917   6.345  0.00  0.00    +0.038 C 
BRANCH  25  28
ATOM     28  O   UNL     1     -31.272  29.018   4.383  0.00  0.00    -0.410 OA
BRANCH  28  31
ATOM     29  O   UNL     1     -29.477  27.613   3.984  0.00  0.00    -0.226 OA
ATOM     30  N   UNL     1     -30.263  28.954   2.254  0.00  0.00    -0.242 N 
ATOM     31  C   UNL     1     -30.266  28.458   3.562  0.00  0.00    +0.410 C 
ATOM     32  C   UNL     1     -29.285  28.472   1.290  0.00  0.00    +0.118 C 
ATOM     33  C   UNL     1     -31.204  29.956   1.763  0.00  0.00    +0.118 C 
ENDBRANCH  28  31
ENDBRANCH  25  28
ENDBRANCH  19  22
ENDBRANCH   5  20
BRANCH   5  34
ATOM     34  C   UNL     1     -37.236  25.147   3.030  0.00  0.00    -0.077 C 
BRANCH  34  35
ATOM     35  N   UNL     1     -38.172  24.965   4.125  0.00  0.00    +0.381 N 
ATOM     36  H   UNL     1     -37.926  25.592   4.891  0.00  0.00    -0.089 HD
ATOM     37  H   UNL     1     -38.131  23.999   4.450  0.00  0.00    -0.089 HD
ATOM     38  H   UNL     1     -39.117  25.176   3.803  0.00  0.00    -0.089 HD
ENDBRANCH  34  35
ENDBRANCH   5  34
TORSDOF 6
ENDMDL
