MODEL 1
REMARK VINA RESULT:      -6.8      0.000      0.000
REMARK  Name = 196052
REMARK  10 active torsions:
REMARK  status: ('A' for Active; 'I' for Inactive)
REMARK    1  A    between atoms: N_1  and  C_25
REMARK    2  A    between atoms: C_5  and  C_11
REMARK    3  A    between atoms: C_11  and  C_12
REMARK    4  A    between atoms: C_13  and  C_21
REMARK    5  A    between atoms: N_17  and  C_22
REMARK    6  A    between atoms: C_22  and  C_23
REMARK    7  A    between atoms: C_25  and  C_26
REMARK    8  A    between atoms: C_26  and  C_27
REMARK    9  A    between atoms: C_27  and  C_28
REMARK   10  A    between atoms: C_28  and  S_29
REMARK                            x       y       z     vdW  Elec       q    Type
REMARK                         _______ _______ _______ _____ _____    ______ ____
ROOT
ATOM      1  N   UNL     1     -35.788  24.799   3.279  0.00  0.00    -0.286 N 
ATOM      2  C   UNL     1     -35.592  23.663   4.121  0.00  0.00    +0.048 C 
ATOM      3  C   UNL     1     -35.457  22.363   3.538  0.00  0.00    -0.008 C 
ATOM      4  C   UNL     1     -35.849  24.635   1.907  0.00  0.00    +0.065 C 
ATOM      5  C   UNL     1     -35.527  22.254   2.042  0.00  0.00    -0.019 C 
ATOM      6  C   UNL     1     -35.734  23.467   1.264  0.00  0.00    +0.012 C 
ATOM      7  C   UNL     1     -35.527  23.773   5.525  0.00  0.00    +0.014 C 
ATOM      8  C   UNL     1     -35.265  21.251   4.375  0.00  0.00    +0.053 C 
ATOM      9  C   UNL     1     -35.336  22.652   6.334  0.00  0.00    -0.003 C 
ATOM     10  C   UNL     1     -35.206  21.395   5.761  0.00  0.00    -0.021 C 
ENDROOT
BRANCH   5  11
ATOM     11  C   UNL     1     -35.407  21.090   1.380  0.00  0.00    +0.052 C 
BRANCH  11  12
ATOM     12  C   UNL     1     -34.136  20.468   1.106  0.00  0.00    -0.021 C 
ATOM     13  C   UNL     1     -33.828  19.230   1.522  0.00  0.00    -0.004 C 
BRANCH  13  21
ATOM     14  S   UNL     1     -33.723  16.570  -0.132  0.00  0.00    -0.060 S 
ATOM     15  S   UNL     1     -33.217  14.033  -1.667  0.00  0.00    -0.027 S 
ATOM     16  O   UNL     1     -30.057  17.278   0.658  0.00  0.00    -0.269 OA
ATOM     17  N   UNL     1     -31.335  15.663  -0.477  0.00  0.00    -0.244 N 
ATOM     18  C   UNL     1     -31.126  16.823   0.270  0.00  0.00    +0.260 C 
ATOM     19  C   UNL     1     -32.430  17.467   0.550  0.00  0.00    +0.085 C 
ATOM     20  C   UNL     1     -32.648  15.343  -0.798  0.00  0.00    +0.121 C 
ATOM     21  C   UNL     1     -32.556  18.602   1.249  0.00  0.00    +0.011 C 
BRANCH  17  22
ATOM     22  C   UNL     1     -30.220  14.821  -0.902  0.00  0.00    +0.099 C 
BRANCH  22  23
ATOM     23  C   UNL     1     -29.783  13.844   0.183  0.00  0.00    +0.022 C 
ATOM     24  C   UNL     1     -30.137  12.401  -0.147  0.00  0.00    +0.002 C 
ENDBRANCH  22  23
ENDBRANCH  17  22
ENDBRANCH  13  21
ENDBRANCH  11  12
ENDBRANCH   5  11
BRANCH   1  25
ATOM     25  C   UNL     1     -35.923  26.116   3.897  0.00  0.00    +0.096 C 
BRANCH  25  26
ATOM     26  C   UNL     1     -34.750  27.015   3.515  0.00  0.00    +0.024 C 
BRANCH  26  27
ATOM     27  C   UNL     1     -33.517  26.781   4.397  0.00  0.00    +0.028 C 
BRANCH  27  28
ATOM     28  C   UNL     1     -32.546  27.953   4.379  0.00  0.00    +0.158 C 
BRANCH  28  29
ATOM     29  S   UNL     1     -31.887  28.324   5.974  0.00  0.00    +0.023 S 
ATOM     30  O   UNL     1     -32.893  27.380   6.845  0.00  0.00    -0.069 OA
ATOM     31  O   UNL     1     -32.166  29.715   6.287  0.00  0.00    -0.069 OA
ATOM     32  O   UNL     1     -30.544  27.781   6.063  0.00  0.00    -0.069 OA
ENDBRANCH  28  29
ENDBRANCH  27  28
ENDBRANCH  26  27
ENDBRANCH  25  26
ENDBRANCH   1  25
TORSDOF 10
ENDMDL
MODEL 2
REMARK VINA RESULT:      -6.8      2.277      2.708
REMARK  Name = 196052
REMARK  10 active torsions:
REMARK  status: ('A' for Active; 'I' for Inactive)
REMARK    1  A    between atoms: N_1  and  C_25
REMARK    2  A    between atoms: C_5  and  C_11
REMARK    3  A    between atoms: C_11  and  C_12
REMARK    4  A    between atoms: C_13  and  C_21
REMARK    5  A    between atoms: N_17  and  C_22
REMARK    6  A    between atoms: C_22  and  C_23
REMARK    7  A    between atoms: C_25  and  C_26
REMARK    8  A    between atoms: C_26  and  C_27
REMARK    9  A    between atoms: C_27  and  C_28
REMARK   10  A    between atoms: C_28  and  S_29
REMARK                            x       y       z     vdW  Elec       q    Type
REMARK                         _______ _______ _______ _____ _____    ______ ____
ROOT
ATOM      1  N   UNL     1     -36.173  24.521   3.111  0.00  0.00    -0.286 N 
ATOM      2  C   UNL     1     -35.835  23.547   4.097  0.00  0.00    +0.048 C 
ATOM      3  C   UNL     1     -35.655  22.181   3.711  0.00  0.00    -0.008 C 
ATOM      4  C   UNL     1     -36.328  24.139   1.790  0.00  0.00    +0.065 C 
ATOM      5  C   UNL     1     -35.833  21.832   2.261  0.00  0.00    -0.019 C 
ATOM      6  C   UNL     1     -36.183  22.892   1.327  0.00  0.00    +0.012 C 
ATOM      7  C   UNL     1     -35.669  23.881   5.456  0.00  0.00    +0.014 C 
ATOM      8  C   UNL     1     -35.323  21.227   4.689  0.00  0.00    +0.053 C 
ATOM      9  C   UNL     1     -35.339  22.916   6.408  0.00  0.00    -0.003 C 
ATOM     10  C   UNL     1     -35.167  21.593   6.026  0.00  0.00    -0.021 C 
ENDROOT
BRANCH   5  11
ATOM     11  C   UNL     1     -35.684  20.585   1.778  0.00  0.00    +0.052 C 
BRANCH  11  12
ATOM     12  C   UNL     1     -34.448  19.849   1.867  0.00  0.00    -0.021 C 
ATOM     13  C   UNL     1     -33.983  19.087   0.865  0.00  0.00    -0.004 C 
BRANCH  13  21
ATOM     14  S   UNL     1     -31.351  20.307  -0.320  0.00  0.00    -0.060 S 
ATOM     15  S   UNL     1     -28.643  21.134  -1.335  0.00  0.00    -0.027 S 
ATOM     16  O   UNL     1     -30.226  16.938   1.074  0.00  0.00    -0.269 OA
ATOM     17  N   UNL     1     -29.290  18.786  -0.036  0.00  0.00    -0.244 N 
ATOM     18  C   UNL     1     -30.312  18.043   0.555  0.00  0.00    +0.260 C 
ATOM     19  C   UNL     1     -31.582  18.801   0.468  0.00  0.00    +0.085 C 
ATOM     20  C   UNL     1     -29.630  20.025  -0.567  0.00  0.00    +0.121 C 
ATOM     21  C   UNL     1     -32.745  18.347   0.950  0.00  0.00    +0.011 C 
BRANCH  17  22
ATOM     22  C   UNL     1     -27.919  18.284  -0.093  0.00  0.00    +0.099 C 
BRANCH  22  23
ATOM     23  C   UNL     1     -27.178  18.467   1.226  0.00  0.00    +0.022 C 
ATOM     24  C   UNL     1     -26.938  17.152   1.954  0.00  0.00    +0.002 C 
ENDBRANCH  22  23
ENDBRANCH  17  22
ENDBRANCH  13  21
ENDBRANCH  11  12
ENDBRANCH   5  11
BRANCH   1  25
ATOM     25  C   UNL     1     -36.350  25.910   3.528  0.00  0.00    +0.096 C 
BRANCH  25  26
ATOM     26  C   UNL     1     -35.150  26.757   3.113  0.00  0.00    +0.024 C 
BRANCH  26  27
ATOM     27  C   UNL     1     -34.105  26.885   4.229  0.00  0.00    +0.028 C 
BRANCH  27  28
ATOM     28  C   UNL     1     -32.908  27.733   3.823  0.00  0.00    +0.158 C 
BRANCH  28  29
ATOM     29  S   UNL     1     -31.960  28.289   5.203  0.00  0.00    +0.023 S 
ATOM     30  O   UNL     1     -32.496  27.192   6.286  0.00  0.00    -0.069 OA
ATOM     31  O   UNL     1     -32.431  29.604   5.600  0.00  0.00    -0.069 OA
ATOM     32  O   UNL     1     -30.555  28.035   4.940  0.00  0.00    -0.069 OA
ENDBRANCH  28  29
ENDBRANCH  27  28
ENDBRANCH  26  27
ENDBRANCH  25  26
ENDBRANCH   1  25
TORSDOF 10
ENDMDL
MODEL 3
REMARK VINA RESULT:      -6.4      3.464      3.897
REMARK  Name = 196052
REMARK  10 active torsions:
REMARK  status: ('A' for Active; 'I' for Inactive)
REMARK    1  A    between atoms: N_1  and  C_25
REMARK    2  A    between atoms: C_5  and  C_11
REMARK    3  A    between atoms: C_11  and  C_12
REMARK    4  A    between atoms: C_13  and  C_21
REMARK    5  A    between atoms: N_17  and  C_22
REMARK    6  A    between atoms: C_22  and  C_23
REMARK    7  A    between atoms: C_25  and  C_26
REMARK    8  A    between atoms: C_26  and  C_27
REMARK    9  A    between atoms: C_27  and  C_28
REMARK   10  A    between atoms: C_28  and  S_29
REMARK                            x       y       z     vdW  Elec       q    Type
REMARK                         _______ _______ _______ _____ _____    ______ ____
ROOT
ATOM      1  N   UNL     1     -35.201  24.386   2.505  0.00  0.00    -0.286 N 
ATOM      2  C   UNL     1     -35.232  23.582   3.684  0.00  0.00    +0.048 C 
ATOM      3  C   UNL     1     -35.252  22.156   3.570  0.00  0.00    -0.008 C 
ATOM      4  C   UNL     1     -35.194  23.780   1.260  0.00  0.00    +0.065 C 
ATOM      5  C   UNL     1     -35.238  21.562   2.191  0.00  0.00    -0.019 C 
ATOM      6  C   UNL     1     -35.211  22.460   1.045  0.00  0.00    +0.012 C 
ATOM      7  C   UNL     1     -35.245  24.147   4.975  0.00  0.00    +0.014 C 
ATOM      8  C   UNL     1     -35.284  21.374   4.737  0.00  0.00    +0.053 C 
ATOM      9  C   UNL     1     -35.276  23.348   6.119  0.00  0.00    -0.003 C 
ATOM     10  C   UNL     1     -35.296  21.966   6.000  0.00  0.00    -0.021 C 
ENDROOT
BRANCH   5  11
ATOM     11  C   UNL     1     -35.248  20.237   1.958  0.00  0.00    +0.052 C 
BRANCH  11  12
ATOM     12  C   UNL     1     -34.053  19.431   1.945  0.00  0.00    -0.021 C 
ATOM     13  C   UNL     1     -33.368  19.167   0.822  0.00  0.00    -0.004 C 
BRANCH  13  21
ATOM     14  S   UNL     1     -33.408  16.347  -0.545  0.00  0.00    -0.060 S 
ATOM     15  S   UNL     1     -33.054  13.613  -1.746  0.00  0.00    -0.027 S 
ATOM     16  O   UNL     1     -29.823  16.677   0.721  0.00  0.00    -0.269 OA
ATOM     17  N   UNL     1     -31.145  15.118  -0.440  0.00  0.00    -0.244 N 
ATOM     18  C   UNL     1     -30.881  16.319   0.219  0.00  0.00    +0.260 C 
ATOM     19  C   UNL     1     -32.108  17.147   0.239  0.00  0.00    +0.085 C 
ATOM     20  C   UNL     1     -32.434  14.930  -0.926  0.00  0.00    +0.121 C 
ATOM     21  C   UNL     1     -32.170  18.359   0.803  0.00  0.00    +0.011 C 
BRANCH  17  22
ATOM     22  C   UNL     1     -30.111  14.101  -0.613  0.00  0.00    +0.099 C 
BRANCH  22  23
ATOM     23  C   UNL     1     -30.078  13.105   0.539  0.00  0.00    +0.022 C 
ATOM     24  C   UNL     1     -30.129  11.658   0.068  0.00  0.00    +0.002 C 
ENDBRANCH  22  23
ENDBRANCH  17  22
ENDBRANCH  13  21
ENDBRANCH  11  12
ENDBRANCH   5  11
BRANCH   1  25
ATOM     25  C   UNL     1     -35.180  25.840   2.646  0.00  0.00    +0.096 C 
BRANCH  25  26
ATOM     26  C   UNL     1     -36.403  26.466   1.980  0.00  0.00    +0.024 C 
BRANCH  26  27
ATOM     27  C   UNL     1     -37.715  26.068   2.666  0.00  0.00    +0.028 C 
BRANCH  27  28
ATOM     28  C   UNL     1     -38.661  25.315   1.743  0.00  0.00    +0.158 C 
BRANCH  28  29
ATOM     29  S   UNL     1     -39.664  24.140   2.595  0.00  0.00    +0.023 S 
ATOM     30  O   UNL     1     -38.503  23.026   2.867  0.00  0.00    -0.069 OA
ATOM     31  O   UNL     1     -40.633  23.585   1.667  0.00  0.00    -0.069 OA
ATOM     32  O   UNL     1     -40.072  24.708   3.868  0.00  0.00    -0.069 OA
ENDBRANCH  28  29
ENDBRANCH  27  28
ENDBRANCH  26  27
ENDBRANCH  25  26
ENDBRANCH   1  25
TORSDOF 10
ENDMDL
MODEL 4
REMARK VINA RESULT:      -6.3      6.906     12.424
REMARK  Name = 196052
REMARK  10 active torsions:
REMARK  status: ('A' for Active; 'I' for Inactive)
REMARK    1  A    between atoms: N_1  and  C_25
REMARK    2  A    between atoms: C_5  and  C_11
REMARK    3  A    between atoms: C_11  and  C_12
REMARK    4  A    between atoms: C_13  and  C_21
REMARK    5  A    between atoms: N_17  and  C_22
REMARK    6  A    between atoms: C_22  and  C_23
REMARK    7  A    between atoms: C_25  and  C_26
REMARK    8  A    between atoms: C_26  and  C_27
REMARK    9  A    between atoms: C_27  and  C_28
REMARK   10  A    between atoms: C_28  and  S_29
REMARK                            x       y       z     vdW  Elec       q    Type
REMARK                         _______ _______ _______ _____ _____    ______ ____
ROOT
ATOM      1  N   UNL     1     -37.074  23.332   3.169  0.00  0.00    -0.286 N 
ATOM      2  C   UNL     1     -37.939  22.657   2.256  0.00  0.00    +0.048 C 
ATOM      3  C   UNL     1     -39.220  23.216   1.948  0.00  0.00    -0.008 C 
ATOM      4  C   UNL     1     -37.481  24.520   3.751  0.00  0.00    +0.065 C 
ATOM      5  C   UNL     1     -39.599  24.510   2.609  0.00  0.00    -0.019 C 
ATOM      6  C   UNL     1     -38.654  25.124   3.531  0.00  0.00    +0.012 C 
ATOM      7  C   UNL     1     -37.576  21.444   1.639  0.00  0.00    +0.014 C 
ATOM      8  C   UNL     1     -40.065  22.543   1.048  0.00  0.00    +0.053 C 
ATOM      9  C   UNL     1     -38.434  20.795   0.748  0.00  0.00    -0.003 C 
ATOM     10  C   UNL     1     -39.674  21.343   0.455  0.00  0.00    -0.021 C 
ENDROOT
BRANCH   5  11
ATOM     11  C   UNL     1     -40.771  25.134   2.393  0.00  0.00    +0.052 C 
BRANCH  11  12
ATOM     12  C   UNL     1     -41.224  26.252   3.181  0.00  0.00    -0.021 C 
ATOM     13  C   UNL     1     -42.221  27.060   2.789  0.00  0.00    -0.004 C 
BRANCH  13  21
ATOM     14  S   UNL     1     -44.643  26.709   4.746  0.00  0.00    -0.060 S 
ATOM     15  S   UNL     1     -46.916  26.768   6.715  0.00  0.00    -0.027 S 
ATOM     16  O   UNL     1     -43.662  30.371   5.184  0.00  0.00    -0.269 OA
ATOM     17  N   UNL     1     -45.254  28.861   6.028  0.00  0.00    -0.244 N 
ATOM     18  C   UNL     1     -44.174  29.260   5.239  0.00  0.00    +0.260 C 
ATOM     19  C   UNL     1     -43.705  28.111   4.432  0.00  0.00    +0.085 C 
ATOM     20  C   UNL     1     -45.666  27.538   5.916  0.00  0.00    +0.121 C 
ATOM     21  C   UNL     1     -42.679  28.182   3.575  0.00  0.00    +0.011 C 
BRANCH  17  22
ATOM     22  C   UNL     1     -45.922  29.793   6.932  0.00  0.00    +0.099 C 
BRANCH  22  23
ATOM     23  C   UNL     1     -45.376  29.715   8.353  0.00  0.00    +0.022 C 
ATOM     24  C   UNL     1     -44.287  30.744   8.623  0.00  0.00    +0.002 C 
ENDBRANCH  22  23
ENDBRANCH  17  22
ENDBRANCH  13  21
ENDBRANCH  11  12
ENDBRANCH   5  11
BRANCH   1  25
ATOM     25  C   UNL     1     -35.771  22.743   3.468  0.00  0.00    +0.096 C 
BRANCH  25  26
ATOM     26  C   UNL     1     -35.579  22.592   4.975  0.00  0.00    +0.024 C 
BRANCH  26  27
ATOM     27  C   UNL     1     -34.791  23.756   5.588  0.00  0.00    +0.028 C 
BRANCH  27  28
ATOM     28  C   UNL     1     -34.063  24.592   4.545  0.00  0.00    +0.158 C 
BRANCH  28  29
ATOM     29  S   UNL     1     -33.984  26.303   4.967  0.00  0.00    +0.023 S 
ATOM     30  O   UNL     1     -32.643  26.672   4.115  0.00  0.00    -0.069 OA
ATOM     31  O   UNL     1     -33.686  26.426   6.383  0.00  0.00    -0.069 OA
ATOM     32  O   UNL     1     -35.118  26.985   4.370  0.00  0.00    -0.069 OA
ENDBRANCH  28  29
ENDBRANCH  27  28
ENDBRANCH  26  27
ENDBRANCH  25  26
ENDBRANCH   1  25
TORSDOF 10
ENDMDL
MODEL 5
REMARK VINA RESULT:      -6.3      4.593      5.362
REMARK  Name = 196052
REMARK  10 active torsions:
REMARK  status: ('A' for Active; 'I' for Inactive)
REMARK    1  A    between atoms: N_1  and  C_25
REMARK    2  A    between atoms: C_5  and  C_11
REMARK    3  A    between atoms: C_11  and  C_12
REMARK    4  A    between atoms: C_13  and  C_21
REMARK    5  A    between atoms: N_17  and  C_22
REMARK    6  A    between atoms: C_22  and  C_23
REMARK    7  A    between atoms: C_25  and  C_26
REMARK    8  A    between atoms: C_26  and  C_27
REMARK    9  A    between atoms: C_27  and  C_28
REMARK   10  A    between atoms: C_28  and  S_29
REMARK                            x       y       z     vdW  Elec       q    Type
REMARK                         _______ _______ _______ _____ _____    ______ ____
ROOT
ATOM      1  N   UNL     1     -37.908  24.750   3.116  0.00  0.00    -0.286 N 
ATOM      2  C   UNL     1     -36.755  24.797   3.955  0.00  0.00    +0.048 C 
ATOM      3  C   UNL     1     -35.920  23.641   4.078  0.00  0.00    -0.008 C 
ATOM      4  C   UNL     1     -38.214  23.587   2.432  0.00  0.00    +0.065 C 
ATOM      5  C   UNL     1     -36.304  22.412   3.305  0.00  0.00    -0.019 C 
ATOM      6  C   UNL     1     -37.502  22.455   2.478  0.00  0.00    +0.012 C 
ATOM      7  C   UNL     1     -36.400  25.954   4.677  0.00  0.00    +0.014 C 
ATOM      8  C   UNL     1     -34.787  23.697   4.908  0.00  0.00    +0.053 C 
ATOM      9  C   UNL     1     -35.268  25.983   5.494  0.00  0.00    -0.003 C 
ATOM     10  C   UNL     1     -34.465  24.858   5.609  0.00  0.00    -0.021 C 
ENDROOT
BRANCH   5  11
ATOM     11  C   UNL     1     -35.596  21.269   3.336  0.00  0.00    +0.052 C 
BRANCH  11  12
ATOM     12  C   UNL     1     -35.620  20.299   2.270  0.00  0.00    -0.021 C 
ATOM     13  C   UNL     1     -34.512  19.893   1.632  0.00  0.00    -0.004 C 
BRANCH  13  21
ATOM     14  S   UNL     1     -31.953  18.189   1.026  0.00  0.00    -0.060 S 
ATOM     15  S   UNL     1     -29.716  16.381   0.146  0.00  0.00    -0.027 S 
ATOM     16  O   UNL     1     -34.480  16.956  -1.553  0.00  0.00    -0.269 OA
ATOM     17  N   UNL     1     -32.256  16.531  -0.924  0.00  0.00    -0.244 N 
ATOM     18  C   UNL     1     -33.500  17.159  -0.850  0.00  0.00    +0.260 C 
ATOM     19  C   UNL     1     -33.481  18.156   0.245  0.00  0.00    +0.085 C 
ATOM     20  C   UNL     1     -31.286  16.934  -0.014  0.00  0.00    +0.121 C 
ATOM     21  C   UNL     1     -34.532  18.921   0.563  0.00  0.00    +0.011 C 
BRANCH  17  22
ATOM     22  C   UNL     1     -31.985  15.494  -1.916  0.00  0.00    +0.099 C 
BRANCH  22  23
ATOM     23  C   UNL     1     -31.602  16.074  -3.273  0.00  0.00    +0.022 C 
ATOM     24  C   UNL     1     -30.131  15.870  -3.606  0.00  0.00    +0.002 C 
ENDBRANCH  22  23
ENDBRANCH  17  22
ENDBRANCH  13  21
ENDBRANCH  11  12
ENDBRANCH   5  11
BRANCH   1  25
ATOM     25  C   UNL     1     -38.744  25.943   3.005  0.00  0.00    +0.096 C 
BRANCH  25  26
ATOM     26  C   UNL     1     -40.206  25.561   2.786  0.00  0.00    +0.024 C 
BRANCH  26  27
ATOM     27  C   UNL     1     -41.161  26.342   3.697  0.00  0.00    +0.028 C 
BRANCH  27  28
ATOM     28  C   UNL     1     -42.444  26.758   2.990  0.00  0.00    +0.158 C 
BRANCH  28  29
ATOM     29  S   UNL     1     -42.865  28.449   3.269  0.00  0.00    +0.023 S 
ATOM     30  O   UNL     1     -41.960  28.676   4.607  0.00  0.00    -0.069 OA
ATOM     31  O   UNL     1     -44.268  28.531   3.637  0.00  0.00    -0.069 OA
ATOM     32  O   UNL     1     -42.316  29.252   2.192  0.00  0.00    -0.069 OA
ENDBRANCH  28  29
ENDBRANCH  27  28
ENDBRANCH  26  27
ENDBRANCH  25  26
ENDBRANCH   1  25
TORSDOF 10
ENDMDL
MODEL 6
REMARK VINA RESULT:      -6.3      5.698     11.098
REMARK  Name = 196052
REMARK  10 active torsions:
REMARK  status: ('A' for Active; 'I' for Inactive)
REMARK    1  A    between atoms: N_1  and  C_25
REMARK    2  A    between atoms: C_5  and  C_11
REMARK    3  A    between atoms: C_11  and  C_12
REMARK    4  A    between atoms: C_13  and  C_21
REMARK    5  A    between atoms: N_17  and  C_22
REMARK    6  A    between atoms: C_22  and  C_23
REMARK    7  A    between atoms: C_25  and  C_26
REMARK    8  A    between atoms: C_26  and  C_27
REMARK    9  A    between atoms: C_27  and  C_28
REMARK   10  A    between atoms: C_28  and  S_29
REMARK                            x       y       z     vdW  Elec       q    Type
REMARK                         _______ _______ _______ _____ _____    ______ ____
ROOT
ATOM      1  N   UNL     1     -35.687  21.485   2.285  0.00  0.00    -0.286 N 
ATOM      2  C   UNL     1     -35.585  22.046   3.593  0.00  0.00    +0.048 C 
ATOM      3  C   UNL     1     -35.999  23.396   3.819  0.00  0.00    -0.008 C 
ATOM      4  C   UNL     1     -36.180  22.252   1.244  0.00  0.00    +0.065 C 
ATOM      5  C   UNL     1     -36.530  24.174   2.649  0.00  0.00    -0.019 C 
ATOM      6  C   UNL     1     -36.592  23.521   1.349  0.00  0.00    +0.012 C 
ATOM      7  C   UNL     1     -35.086  21.310   4.687  0.00  0.00    +0.014 C 
ATOM      8  C   UNL     1     -35.894  23.940   5.112  0.00  0.00    +0.053 C 
ATOM      9  C   UNL     1     -34.993  21.873   5.960  0.00  0.00    -0.003 C 
ATOM     10  C   UNL     1     -35.395  23.184   6.172  0.00  0.00    -0.021 C 
ENDROOT
BRANCH   5  11
ATOM     11  C   UNL     1     -36.954  25.447   2.740  0.00  0.00    +0.052 C 
BRANCH  11  12
ATOM     12  C   UNL     1     -38.281  25.806   3.172  0.00  0.00    -0.021 C 
ATOM     13  C   UNL     1     -39.305  25.961   2.320  0.00  0.00    -0.004 C 
BRANCH  13  21
ATOM     14  S   UNL     1     -41.795  24.812   0.804  0.00  0.00    -0.060 S 
ATOM     15  S   UNL     1     -44.411  23.924  -0.387  0.00  0.00    -0.027 S 
ATOM     16  O   UNL     1     -43.336  26.987   3.534  0.00  0.00    -0.269 OA
ATOM     17  N   UNL     1     -44.049  25.608   1.770  0.00  0.00    -0.244 N 
ATOM     18  C   UNL     1     -43.114  26.239   2.591  0.00  0.00    +0.260 C 
ATOM     19  C   UNL     1     -41.748  25.871   2.153  0.00  0.00    +0.085 C 
ATOM     20  C   UNL     1     -43.556  24.800   0.751  0.00  0.00    +0.121 C 
ATOM     21  C   UNL     1     -40.637  26.321   2.748  0.00  0.00    +0.011 C 
BRANCH  17  22
ATOM     22  C   UNL     1     -45.484  25.787   1.972  0.00  0.00    +0.099 C 
BRANCH  22  23
ATOM     23  C   UNL     1     -46.063  24.775   2.953  0.00  0.00    +0.022 C 
ATOM     24  C   UNL     1     -46.431  25.397   4.293  0.00  0.00    +0.002 C 
ENDBRANCH  22  23
ENDBRANCH  17  22
ENDBRANCH  13  21
ENDBRANCH  11  12
ENDBRANCH   5  11
BRANCH   1  25
ATOM     25  C   UNL     1     -35.260  20.103   2.078  0.00  0.00    +0.096 C 
BRANCH  25  26
ATOM     26  C   UNL     1     -34.180  20.025   1.001  0.00  0.00    +0.024 C 
BRANCH  26  27
ATOM     27  C   UNL     1     -33.237  18.832   1.198  0.00  0.00    +0.028 C 
BRANCH  27  28
ATOM     28  C   UNL     1     -31.831  19.098   0.680  0.00  0.00    +0.158 C 
BRANCH  28  29
ATOM     29  S   UNL     1     -30.918  17.619   0.378  0.00  0.00    +0.023 S 
ATOM     30  O   UNL     1     -32.124  16.560   0.675  0.00  0.00    -0.069 OA
ATOM     31  O   UNL     1     -29.904  17.471   1.407  0.00  0.00    -0.069 OA
ATOM     32  O   UNL     1     -30.580  17.556  -1.033  0.00  0.00    -0.069 OA
ENDBRANCH  28  29
ENDBRANCH  27  28
ENDBRANCH  26  27
ENDBRANCH  25  26
ENDBRANCH   1  25
TORSDOF 10
ENDMDL
MODEL 7
REMARK VINA RESULT:      -6.1      2.507      3.523
REMARK  Name = 196052
REMARK  10 active torsions:
REMARK  status: ('A' for Active; 'I' for Inactive)
REMARK    1  A    between atoms: N_1  and  C_25
REMARK    2  A    between atoms: C_5  and  C_11
REMARK    3  A    between atoms: C_11  and  C_12
REMARK    4  A    between atoms: C_13  and  C_21
REMARK    5  A    between atoms: N_17  and  C_22
REMARK    6  A    between atoms: C_22  and  C_23
REMARK    7  A    between atoms: C_25  and  C_26
REMARK    8  A    between atoms: C_26  and  C_27
REMARK    9  A    between atoms: C_27  and  C_28
REMARK   10  A    between atoms: C_28  and  S_29
REMARK                            x       y       z     vdW  Elec       q    Type
REMARK                         _______ _______ _______ _____ _____    ______ ____
ROOT
ATOM      1  N   UNL     1     -36.193  24.727   4.463  0.00  0.00    -0.286 N 
ATOM      2  C   UNL     1     -36.980  24.864   3.281  0.00  0.00    +0.048 C 
ATOM      3  C   UNL     1     -37.206  23.726   2.443  0.00  0.00    -0.008 C 
ATOM      4  C   UNL     1     -35.650  23.496   4.789  0.00  0.00    +0.065 C 
ATOM      5  C   UNL     1     -36.594  22.418   2.855  0.00  0.00    -0.019 C 
ATOM      6  C   UNL     1     -35.800  22.374   4.076  0.00  0.00    +0.012 C 
ATOM      7  C   UNL     1     -37.552  26.095   2.901  0.00  0.00    +0.014 C 
ATOM      8  C   UNL     1     -37.982  23.872   1.280  0.00  0.00    +0.053 C 
ATOM      9  C   UNL     1     -38.320  26.213   1.741  0.00  0.00    -0.003 C 
ATOM     10  C   UNL     1     -38.533  25.105   0.933  0.00  0.00    -0.021 C 
ENDROOT
BRANCH   5  11
ATOM     11  C   UNL     1     -36.741  21.281   2.153  0.00  0.00    +0.052 C 
BRANCH  11  12
ATOM     12  C   UNL     1     -35.751  20.233   2.135  0.00  0.00    -0.021 C 
ATOM     13  C   UNL     1     -34.647  20.291   1.374  0.00  0.00    -0.004 C 
BRANCH  13  21
ATOM     14  S   UNL     1     -31.942  20.741  -0.144  0.00  0.00    -0.060 S 
ATOM     15  S   UNL     1     -29.250  20.793  -1.483  0.00  0.00    -0.027 S 
ATOM     16  O   UNL     1     -31.607  17.206   1.254  0.00  0.00    -0.269 OA
ATOM     17  N   UNL     1     -30.346  18.721  -0.027  0.00  0.00    -0.244 N 
ATOM     18  C   UNL     1     -31.453  18.289   0.704  0.00  0.00    +0.260 C 
ATOM     19  C   UNL     1     -32.474  19.361   0.727  0.00  0.00    +0.085 C 
ATOM     20  C   UNL     1     -30.401  20.000  -0.567  0.00  0.00    +0.121 C 
ATOM     21  C   UNL     1     -33.652  19.244   1.352  0.00  0.00    +0.011 C 
BRANCH  17  22
ATOM     22  C   UNL     1     -29.177  17.865  -0.214  0.00  0.00    +0.099 C 
BRANCH  22  23
ATOM     23  C   UNL     1     -28.380  17.681   1.071  0.00  0.00    +0.022 C 
ATOM     24  C   UNL     1     -27.090  16.901   0.858  0.00  0.00    +0.002 C 
ENDBRANCH  22  23
ENDBRANCH  17  22
ENDBRANCH  13  21
ENDBRANCH  11  12
ENDBRANCH   5  11
BRANCH   1  25
ATOM     25  C   UNL     1     -35.977  25.902   5.304  0.00  0.00    +0.096 C 
BRANCH  25  26
ATOM     26  C   UNL     1     -34.652  25.794   6.055  0.00  0.00    +0.024 C 
BRANCH  26  27
ATOM     27  C   UNL     1     -33.551  26.662   5.433  0.00  0.00    +0.028 C 
BRANCH  27  28
ATOM     28  C   UNL     1     -32.633  27.288   6.474  0.00  0.00    +0.158 C 
BRANCH  28  29
ATOM     29  S   UNL     1     -31.597  28.551   5.807  0.00  0.00    +0.023 S 
ATOM     30  O   UNL     1     -31.409  27.908   4.319  0.00  0.00    -0.069 OA
ATOM     31  O   UNL     1     -30.317  28.522   6.492  0.00  0.00    -0.069 OA
ATOM     32  O   UNL     1     -32.368  29.776   5.691  0.00  0.00    -0.069 OA
ENDBRANCH  28  29
ENDBRANCH  27  28
ENDBRANCH  26  27
ENDBRANCH  25  26
ENDBRANCH   1  25
TORSDOF 10
ENDMDL
MODEL 8
REMARK VINA RESULT:      -6.1      1.603      2.729
REMARK  Name = 196052
REMARK  10 active torsions:
REMARK  status: ('A' for Active; 'I' for Inactive)
REMARK    1  A    between atoms: N_1  and  C_25
REMARK    2  A    between atoms: C_5  and  C_11
REMARK    3  A    between atoms: C_11  and  C_12
REMARK    4  A    between atoms: C_13  and  C_21
REMARK    5  A    between atoms: N_17  and  C_22
REMARK    6  A    between atoms: C_22  and  C_23
REMARK    7  A    between atoms: C_25  and  C_26
REMARK    8  A    between atoms: C_26  and  C_27
REMARK    9  A    between atoms: C_27  and  C_28
REMARK   10  A    between atoms: C_28  and  S_29
REMARK                            x       y       z     vdW  Elec       q    Type
REMARK                         _______ _______ _______ _____ _____    ______ ____
ROOT
ATOM      1  N   UNL     1     -35.772  24.675   4.756  0.00  0.00    -0.286 N 
ATOM      2  C   UNL     1     -36.266  24.808   3.424  0.00  0.00    +0.048 C 
ATOM      3  C   UNL     1     -36.399  23.647   2.598  0.00  0.00    -0.008 C 
ATOM      4  C   UNL     1     -35.421  23.426   5.238  0.00  0.00    +0.065 C 
ATOM      5  C   UNL     1     -36.006  22.321   3.182  0.00  0.00    -0.019 C 
ATOM      6  C   UNL     1     -35.507  22.282   4.550  0.00  0.00    +0.012 C 
ATOM      7  C   UNL     1     -36.634  26.056   2.882  0.00  0.00    +0.014 C 
ATOM      8  C   UNL     1     -36.886  23.788   1.287  0.00  0.00    +0.053 C 
ATOM      9  C   UNL     1     -37.115  26.169   1.576  0.00  0.00    -0.003 C 
ATOM     10  C   UNL     1     -37.240  25.039   0.781  0.00  0.00    -0.021 C 
ENDROOT
BRANCH   5  11
ATOM     11  C   UNL     1     -36.092  21.161   2.506  0.00  0.00    +0.052 C 
BRANCH  11  12
ATOM     12  C   UNL     1     -34.999  20.227   2.403  0.00  0.00    -0.021 C 
ATOM     13  C   UNL     1     -34.268  20.085   1.287  0.00  0.00    -0.004 C 
BRANCH  13  21
ATOM     14  S   UNL     1     -34.710  17.319  -0.117  0.00  0.00    -0.060 S 
ATOM     15  S   UNL     1     -34.742  14.589  -1.380  0.00  0.00    -0.027 S 
ATOM     16  O   UNL     1     -31.039  17.220   0.919  0.00  0.00    -0.269 OA
ATOM     17  N   UNL     1     -32.597  15.843  -0.177  0.00  0.00    -0.244 N 
ATOM     18  C   UNL     1     -32.159  16.992   0.482  0.00  0.00    +0.260 C 
ATOM     19  C   UNL     1     -33.282  17.951   0.594  0.00  0.00    +0.085 C 
ATOM     20  C   UNL     1     -33.927  15.811  -0.581  0.00  0.00    +0.121 C 
ATOM     21  C   UNL     1     -33.172  19.150   1.179  0.00  0.00    +0.011 C 
BRANCH  17  22
ATOM     22  C   UNL     1     -31.697  14.722  -0.432  0.00  0.00    +0.099 C 
BRANCH  22  23
ATOM     23  C   UNL     1     -30.923  14.884  -1.735  0.00  0.00    +0.022 C 
ATOM     24  C   UNL     1     -29.955  13.738  -1.991  0.00  0.00    +0.002 C 
ENDBRANCH  22  23
ENDBRANCH  17  22
ENDBRANCH  13  21
ENDBRANCH  11  12
ENDBRANCH   5  11
BRANCH   1  25
ATOM     25  C   UNL     1     -35.647  25.874   5.581  0.00  0.00    +0.096 C 
BRANCH  25  26
ATOM     26  C   UNL     1     -34.180  26.181   5.871  0.00  0.00    +0.024 C 
BRANCH  26  27
ATOM     27  C   UNL     1     -33.406  26.599   4.615  0.00  0.00    +0.028 C 
BRANCH  27  28
ATOM     28  C   UNL     1     -32.595  27.871   4.816  0.00  0.00    +0.158 C 
BRANCH  28  29
ATOM     29  S   UNL     1     -33.044  29.157   3.694  0.00  0.00    +0.023 S 
ATOM     30  O   UNL     1     -32.938  30.402   4.743  0.00  0.00    -0.069 OA
ATOM     31  O   UNL     1     -34.435  28.986   3.313  0.00  0.00    -0.069 OA
ATOM     32  O   UNL     1     -31.996  29.296   2.698  0.00  0.00    -0.069 OA
ENDBRANCH  28  29
ENDBRANCH  27  28
ENDBRANCH  26  27
ENDBRANCH  25  26
ENDBRANCH   1  25
TORSDOF 10
ENDMDL
MODEL 9
REMARK VINA RESULT:      -6.0      2.693     10.448
REMARK  Name = 196052
REMARK  10 active torsions:
REMARK  status: ('A' for Active; 'I' for Inactive)
REMARK    1  A    between atoms: N_1  and  C_25
REMARK    2  A    between atoms: C_5  and  C_11
REMARK    3  A    between atoms: C_11  and  C_12
REMARK    4  A    between atoms: C_13  and  C_21
REMARK    5  A    between atoms: N_17  and  C_22
REMARK    6  A    between atoms: C_22  and  C_23
REMARK    7  A    between atoms: C_25  and  C_26
REMARK    8  A    between atoms: C_26  and  C_27
REMARK    9  A    between atoms: C_27  and  C_28
REMARK   10  A    between atoms: C_28  and  S_29
REMARK                            x       y       z     vdW  Elec       q    Type
REMARK                         _______ _______ _______ _____ _____    ______ ____
ROOT
ATOM      1  N   UNL     1     -35.200  21.869   2.195  0.00  0.00    -0.286 N 
ATOM      2  C   UNL     1     -35.287  22.144   3.592  0.00  0.00    +0.048 C 
ATOM      3  C   UNL     1     -35.582  23.471   4.037  0.00  0.00    -0.008 C 
ATOM      4  C   UNL     1     -35.398  22.888   1.280  0.00  0.00    +0.065 C 
ATOM      5  C   UNL     1     -35.792  24.531   2.994  0.00  0.00    -0.019 C 
ATOM      6  C   UNL     1     -35.679  24.159   1.590  0.00  0.00    +0.012 C 
ATOM      7  C   UNL     1     -35.089  21.145   4.566  0.00  0.00    +0.014 C 
ATOM      8  C   UNL     1     -35.665  23.732   5.416  0.00  0.00    +0.053 C 
ATOM      9  C   UNL     1     -35.177  21.430   5.930  0.00  0.00    -0.003 C 
ATOM     10  C   UNL     1     -35.463  22.719   6.353  0.00  0.00    -0.021 C 
ENDROOT
BRANCH   5  11
ATOM     11  C   UNL     1     -36.081  25.811   3.289  0.00  0.00    +0.052 C 
BRANCH  11  12
ATOM     12  C   UNL     1     -35.303  26.602   4.209  0.00  0.00    -0.021 C 
ATOM     13  C   UNL     1     -33.962  26.628   4.189  0.00  0.00    -0.004 C 
BRANCH  13  21
ATOM     14  S   UNL     1     -31.435  28.169   3.159  0.00  0.00    -0.060 S 
ATOM     15  S   UNL     1     -28.964  29.775   2.556  0.00  0.00    -0.027 S 
ATOM     16  O   UNL     1     -31.550  29.022   6.876  0.00  0.00    -0.269 OA
ATOM     17  N   UNL     1     -30.219  29.503   4.999  0.00  0.00    -0.244 N 
ATOM     18  C   UNL     1     -31.282  28.916   5.687  0.00  0.00    +0.260 C 
ATOM     19  C   UNL     1     -32.087  28.105   4.745  0.00  0.00    +0.085 C 
ATOM     20  C   UNL     1     -30.115  29.232   3.640  0.00  0.00    +0.121 C 
ATOM     21  C   UNL     1     -33.177  27.419   5.109  0.00  0.00    +0.011 C 
BRANCH  17  22
ATOM     22  C   UNL     1     -29.256  30.365   5.680  0.00  0.00    +0.099 C 
BRANCH  22  23
ATOM     23  C   UNL     1     -28.126  29.574   6.328  0.00  0.00    +0.022 C 
ATOM     24  C   UNL     1     -28.188  29.596   7.848  0.00  0.00    +0.002 C 
ENDBRANCH  22  23
ENDBRANCH  17  22
ENDBRANCH  13  21
ENDBRANCH  11  12
ENDBRANCH   5  11
BRANCH   1  25
ATOM     25  C   UNL     1     -34.898  20.506   1.765  0.00  0.00    +0.096 C 
BRANCH  25  26
ATOM     26  C   UNL     1     -34.012  20.514   0.521  0.00  0.00    +0.024 C 
BRANCH  26  27
ATOM     27  C   UNL     1     -32.709  19.732   0.722  0.00  0.00    +0.028 C 
BRANCH  27  28
ATOM     28  C   UNL     1     -32.943  18.253   0.998  0.00  0.00    +0.158 C 
BRANCH  28  29
ATOM     29  S   UNL     1     -31.708  17.216   0.284  0.00  0.00    +0.023 S 
ATOM     30  O   UNL     1     -30.549  17.460   1.406  0.00  0.00    -0.069 OA
ATOM     31  O   UNL     1     -31.270  17.799  -0.972  0.00  0.00    -0.069 OA
ATOM     32  O   UNL     1     -32.151  15.835   0.365  0.00  0.00    -0.069 OA
ENDBRANCH  28  29
ENDBRANCH  27  28
ENDBRANCH  26  27
ENDBRANCH  25  26
ENDBRANCH   1  25
TORSDOF 10
ENDMDL
