MODEL 1
REMARK VINA RESULT:      -5.2      0.000      0.000
REMARK  Name = 5478845
REMARK  7 active torsions:
REMARK  status: ('A' for Active; 'I' for Inactive)
REMARK    1  A    between atoms: CA_1  and  C_5
REMARK    2  A    between atoms: CA_1  and  N_14
REMARK    3  A    between atoms: N_4  and  CA_7
REMARK    4  A    between atoms: CA_7  and  C_10
REMARK    5  A    between atoms: C_10  and  O_11
REMARK    6  A    between atoms: C_15  and  CA_17
REMARK    7  A    between atoms: CA_17  and  N_19
REMARK                            x       y       z     vdW  Elec       q    Type
REMARK                         _______ _______ _______ _____ _____    ______ ____
ROOT
ATOM      1  CA  ALA A   2     -34.952  22.801   5.066  0.00  0.00    +0.149 C 
ATOM      2  CB  ALA A   2     -35.471  22.113   6.318  0.00  0.00    +0.031 C 
ENDROOT
BRANCH   1   5
ATOM      3  O   ALA A   2     -37.100  23.032   3.966  0.00  0.00    -0.273 OA
ATOM      4  N   ALA A   3     -35.368  21.984   2.831  0.00  0.00    -0.295 N 
ATOM      5  C   ALA A   2     -35.935  22.644   3.912  0.00  0.00    +0.241 C 
ATOM      6  H   ALA A   3     -34.423  21.713   2.885  0.00  0.00    +0.150 HD
BRANCH   4   7
ATOM      7  CA  ALA A   3     -36.110  21.675   1.631  0.00  0.00    +0.171 C 
ATOM      8  CB  ALA A   3     -35.396  22.222   0.405  0.00  0.00    +0.033 C 
BRANCH   7  10
ATOM      9  OXT ALA A   3     -36.057  19.556   0.468  0.00  0.00    -0.248 OA
ATOM     10  C   ALA A   3     -36.346  20.181   1.483  0.00  0.00    +0.332 C 
BRANCH  10  11
ATOM     11  O   ALA A   3     -36.913  19.588   2.561  0.00  0.00    -0.479 OA
ATOM     12  H   ALA A   3     -37.594  20.027   3.033  0.00  0.00    +0.295 HD
ENDBRANCH  10  11
ENDBRANCH   7  10
ENDBRANCH   4   7
ENDBRANCH   1   5
BRANCH   1  14
ATOM     13  O   ALA A   1     -33.722  24.669   3.256  0.00  0.00    -0.277 OA
ATOM     14  N   ALA A   2     -34.747  24.214   5.288  0.00  0.00    -0.300 N 
ATOM     15  C   ALA A   1     -34.141  25.039   4.351  0.00  0.00    +0.202 C 
ATOM     16  H   ALA A   2     -35.050  24.606   6.138  0.00  0.00    +0.150 HD
BRANCH  15  17
ATOM     17  CA  ALA A   1     -34.092  26.489   4.813  0.00  0.00    +0.013 C 
ATOM     18  CB  ALA A   1     -33.521  26.592   6.220  0.00  0.00    -0.015 C 
BRANCH  17  19
ATOM     19  N   ALA A   1     -35.427  27.022   4.750  0.00  0.00    +0.387 N 
ATOM     20  H1  ALA A   1     -35.713  27.333   5.678  0.00  0.00    -0.089 HD
ATOM     21  H2  ALA A   1     -36.066  26.299   4.420  0.00  0.00    -0.089 HD
ATOM     22  H3  ALA A   1     -35.447  27.813   4.105  0.00  0.00    -0.089 HD
ENDBRANCH  17  19
ENDBRANCH  15  17
ENDBRANCH   1  14
TORSDOF 7
ENDMDL
MODEL 2
REMARK VINA RESULT:      -5.1      2.878      5.137
REMARK  Name = 5478845
REMARK  7 active torsions:
REMARK  status: ('A' for Active; 'I' for Inactive)
REMARK    1  A    between atoms: CA_1  and  C_5
REMARK    2  A    between atoms: CA_1  and  N_14
REMARK    3  A    between atoms: N_4  and  CA_7
REMARK    4  A    between atoms: CA_7  and  C_10
REMARK    5  A    between atoms: C_10  and  O_11
REMARK    6  A    between atoms: C_15  and  CA_17
REMARK    7  A    between atoms: CA_17  and  N_19
REMARK                            x       y       z     vdW  Elec       q    Type
REMARK                         _______ _______ _______ _____ _____    ______ ____
ROOT
ATOM      1  CA  ALA A   2     -37.295  21.608   1.705  0.00  0.00    +0.149 C 
ATOM      2  CB  ALA A   2     -36.749  21.599   0.287  0.00  0.00    +0.031 C 
ENDROOT
BRANCH   1   5
ATOM      3  O   ALA A   2     -35.507  20.414   2.825  0.00  0.00    -0.273 OA
ATOM      4  N   ALA A   3     -36.029  22.563   3.527  0.00  0.00    -0.295 N 
ATOM      5  C   ALA A   2     -36.173  21.442   2.722  0.00  0.00    +0.241 C 
ATOM      6  H   ALA A   3     -36.612  23.339   3.365  0.00  0.00    +0.150 HD
BRANCH   4   7
ATOM      7  CA  ALA A   3     -35.061  22.635   4.596  0.00  0.00    +0.171 C 
ATOM      8  CB  ALA A   3     -34.828  24.080   5.010  0.00  0.00    +0.033 C 
BRANCH   7  10
ATOM      9  OXT ALA A   3     -36.151  22.253   6.720  0.00  0.00    -0.248 OA
ATOM     10  C   ALA A   3     -35.482  21.803   5.796  0.00  0.00    +0.332 C 
BRANCH  10  11
ATOM     11  O   ALA A   3     -35.051  20.518   5.773  0.00  0.00    -0.479 OA
ATOM     12  H   ALA A   3     -34.158  20.320   5.976  0.00  0.00    +0.295 HD
ENDBRANCH  10  11
ENDBRANCH   7  10
ENDBRANCH   4   7
ENDBRANCH   1   5
BRANCH   1  14
ATOM     13  O   ALA A   1     -40.112  21.943   2.186  0.00  0.00    -0.277 OA
ATOM     14  N   ALA A   2     -37.981  22.845   1.997  0.00  0.00    -0.300 N 
ATOM     15  C   ALA A   1     -39.350  22.909   2.215  0.00  0.00    +0.202 C 
ATOM     16  H   ALA A   2     -37.457  23.677   2.041  0.00  0.00    +0.150 HD
BRANCH  15  17
ATOM     17  CA  ALA A   1     -39.812  24.321   2.548  0.00  0.00    +0.013 C 
ATOM     18  CB  ALA A   1     -39.485  25.281   1.414  0.00  0.00    -0.015 C 
BRANCH  17  19
ATOM     19  N   ALA A   1     -39.172  24.721   3.773  0.00  0.00    +0.387 N 
ATOM     20  H1  ALA A   1     -38.269  25.147   3.563  0.00  0.00    -0.089 HD
ATOM     21  H2  ALA A   1     -39.033  23.903   4.367  0.00  0.00    -0.089 HD
ATOM     22  H3  ALA A   1     -39.762  25.397   4.260  0.00  0.00    -0.089 HD
ENDBRANCH  17  19
ENDBRANCH  15  17
ENDBRANCH   1  14
TORSDOF 7
ENDMDL
MODEL 3
REMARK VINA RESULT:      -5.1      2.468      3.941
REMARK  Name = 5478845
REMARK  7 active torsions:
REMARK  status: ('A' for Active; 'I' for Inactive)
REMARK    1  A    between atoms: CA_1  and  C_5
REMARK    2  A    between atoms: CA_1  and  N_14
REMARK    3  A    between atoms: N_4  and  CA_7
REMARK    4  A    between atoms: CA_7  and  C_10
REMARK    5  A    between atoms: C_10  and  O_11
REMARK    6  A    between atoms: C_15  and  CA_17
REMARK    7  A    between atoms: CA_17  and  N_19
REMARK                            x       y       z     vdW  Elec       q    Type
REMARK                         _______ _______ _______ _____ _____    ______ ____
ROOT
ATOM      1  CA  ALA A   2     -33.753  26.264   5.158  0.00  0.00    +0.149 C 
ATOM      2  CB  ALA A   2     -33.314  26.610   6.572  0.00  0.00    +0.031 C 
ENDROOT
BRANCH   1   5
ATOM      3  O   ALA A   2     -36.046  25.636   5.632  0.00  0.00    -0.273 OA
ATOM      4  N   ALA A   3     -34.635  24.071   4.659  0.00  0.00    -0.295 N 
ATOM      5  C   ALA A   2     -34.949  25.320   5.176  0.00  0.00    +0.241 C 
ATOM      6  H   ALA A   3     -33.725  23.916   4.317  0.00  0.00    +0.150 HD
BRANCH   4   7
ATOM      7  CA  ALA A   3     -35.588  22.987   4.606  0.00  0.00    +0.171 C 
ATOM      8  CB  ALA A   3     -35.558  22.314   3.243  0.00  0.00    +0.033 C 
BRANCH   7  10
ATOM      9  OXT ALA A   3     -35.318  22.260   6.896  0.00  0.00    -0.248 OA
ATOM     10  C   ALA A   3     -35.342  21.967   5.705  0.00  0.00    +0.332 C 
BRANCH  10  11
ATOM     11  O   ALA A   3     -35.139  20.700   5.267  0.00  0.00    -0.479 OA
ATOM     12  H   ALA A   3     -35.546  19.981   5.709  0.00  0.00    +0.295 HD
ENDBRANCH  10  11
ENDBRANCH   7  10
ENDBRANCH   4   7
ENDBRANCH   1   5
BRANCH   1  14
ATOM     13  O   ALA A   1     -32.024  27.923   3.566  0.00  0.00    -0.277 OA
ATOM     14  N   ALA A   2     -34.129  27.446   4.419  0.00  0.00    -0.300 N 
ATOM     15  C   ALA A   1     -33.220  28.186   3.675  0.00  0.00    +0.202 C 
ATOM     16  H   ALA A   2     -35.069  27.740   4.444  0.00  0.00    +0.150 HD
BRANCH  15  17
ATOM     17  CA  ALA A   1     -33.884  29.353   2.957  0.00  0.00    +0.013 C 
ATOM     18  CB  ALA A   1     -33.394  30.682   3.514  0.00  0.00    -0.015 C 
BRANCH  17  19
ATOM     19  N   ALA A   1     -35.308  29.216   3.107  0.00  0.00    +0.387 N 
ATOM     20  H1  ALA A   1     -35.760  30.107   2.897  0.00  0.00    -0.089 HD
ATOM     21  H2  ALA A   1     -35.525  28.942   4.065  0.00  0.00    -0.089 HD
ATOM     22  H3  ALA A   1     -35.651  28.502   2.463  0.00  0.00    -0.089 HD
ENDBRANCH  17  19
ENDBRANCH  15  17
ENDBRANCH   1  14
TORSDOF 7
ENDMDL
MODEL 4
REMARK VINA RESULT:      -5.1      2.878      6.318
REMARK  Name = 5478845
REMARK  7 active torsions:
REMARK  status: ('A' for Active; 'I' for Inactive)
REMARK    1  A    between atoms: CA_1  and  C_5
REMARK    2  A    between atoms: CA_1  and  N_14
REMARK    3  A    between atoms: N_4  and  CA_7
REMARK    4  A    between atoms: CA_7  and  C_10
REMARK    5  A    between atoms: C_10  and  O_11
REMARK    6  A    between atoms: C_15  and  CA_17
REMARK    7  A    between atoms: CA_17  and  N_19
REMARK                            x       y       z     vdW  Elec       q    Type
REMARK                         _______ _______ _______ _____ _____    ______ ____
ROOT
ATOM      1  CA  ALA A   2     -34.293  26.193   5.650  0.00  0.00    +0.149 C 
ATOM      2  CB  ALA A   2     -33.260  26.665   6.660  0.00  0.00    +0.031 C 
ENDROOT
BRANCH   1   5
ATOM      3  O   ALA A   2     -32.964  26.435   3.637  0.00  0.00    -0.273 OA
ATOM      4  N   ALA A   3     -34.952  27.619   3.815  0.00  0.00    -0.295 N 
ATOM      5  C   ALA A   2     -33.981  26.733   4.260  0.00  0.00    +0.241 C 
ATOM      6  H   ALA A   3     -35.733  27.792   4.389  0.00  0.00    +0.150 HD
BRANCH   4   7
ATOM      7  CA  ALA A   3     -34.863  28.299   2.544  0.00  0.00    +0.171 C 
ATOM      8  CB  ALA A   3     -36.126  28.076   1.728  0.00  0.00    +0.033 C 
BRANCH   7  10
ATOM      9  OXT ALA A   3     -33.698  30.377   2.135  0.00  0.00    -0.248 OA
ATOM     10  C   ALA A   3     -34.601  29.785   2.718  0.00  0.00    +0.332 C 
BRANCH  10  11
ATOM     11  O   ALA A   3     -35.439  30.411   3.580  0.00  0.00    -0.479 OA
ATOM     12  H   ALA A   3     -35.161  31.190   4.020  0.00  0.00    +0.295 HD
ENDBRANCH  10  11
ENDBRANCH   7  10
ENDBRANCH   4   7
ENDBRANCH   1   5
BRANCH   1  14
ATOM     13  O   ALA A   1     -36.595  24.557   5.102  0.00  0.00    -0.277 OA
ATOM     14  N   ALA A   2     -34.330  24.751   5.570  0.00  0.00    -0.300 N 
ATOM     15  C   ALA A   1     -35.494  24.046   5.299  0.00  0.00    +0.202 C 
ATOM     16  H   ALA A   2     -33.496  24.249   5.713  0.00  0.00    +0.150 HD
BRANCH  15  17
ATOM     17  CA  ALA A   1     -35.249  22.545   5.224  0.00  0.00    +0.013 C 
ATOM     18  CB  ALA A   1     -35.653  21.996   3.864  0.00  0.00    -0.015 C 
BRANCH  17  19
ATOM     19  N   ALA A   1     -35.995  21.919   6.283  0.00  0.00    +0.387 N 
ATOM     20  H1  ALA A   1     -35.355  21.421   6.902  0.00  0.00    -0.089 HD
ATOM     21  H2  ALA A   1     -36.665  21.260   5.885  0.00  0.00    -0.089 HD
ATOM     22  H3  ALA A   1     -36.496  22.632   6.815  0.00  0.00    -0.089 HD
ENDBRANCH  17  19
ENDBRANCH  15  17
ENDBRANCH   1  14
TORSDOF 7
ENDMDL
MODEL 5
REMARK VINA RESULT:      -5.0      2.160      5.883
REMARK  Name = 5478845
REMARK  7 active torsions:
REMARK  status: ('A' for Active; 'I' for Inactive)
REMARK    1  A    between atoms: CA_1  and  C_5
REMARK    2  A    between atoms: CA_1  and  N_14
REMARK    3  A    between atoms: N_4  and  CA_7
REMARK    4  A    between atoms: CA_7  and  C_10
REMARK    5  A    between atoms: C_10  and  O_11
REMARK    6  A    between atoms: C_15  and  CA_17
REMARK    7  A    between atoms: CA_17  and  N_19
REMARK                            x       y       z     vdW  Elec       q    Type
REMARK                         _______ _______ _______ _____ _____    ______ ____
ROOT
ATOM      1  CA  ALA A   2     -37.845  22.933   2.386  0.00  0.00    +0.149 C 
ATOM      2  CB  ALA A   2     -39.362  22.884   2.298  0.00  0.00    +0.031 C 
ENDROOT
BRANCH   1   5
ATOM      3  O   ALA A   2     -37.831  24.710   4.035  0.00  0.00    -0.273 OA
ATOM      4  N   ALA A   3     -36.423  22.890   4.337  0.00  0.00    -0.295 N 
ATOM      5  C   ALA A   2     -37.396  23.619   3.669  0.00  0.00    +0.241 C 
ATOM      6  H   ALA A   3     -36.141  22.024   3.962  0.00  0.00    +0.150 HD
BRANCH   4   7
ATOM      7  CA  ALA A   3     -35.805  23.350   5.559  0.00  0.00    +0.171 C 
ATOM      8  CB  ALA A   3     -35.063  22.214   6.245  0.00  0.00    +0.033 C 
BRANCH   7  10
ATOM      9  OXT ALA A   3     -33.750  24.389   4.823  0.00  0.00    -0.248 OA
ATOM     10  C   ALA A   3     -34.868  24.520   5.310  0.00  0.00    +0.332 C 
BRANCH  10  11
ATOM     11  O   ALA A   3     -35.359  25.728   5.680  0.00  0.00    -0.479 OA
ATOM     12  H   ALA A   3     -36.257  25.939   5.513  0.00  0.00    +0.295 HD
ENDBRANCH  10  11
ENDBRANCH   7  10
ENDBRANCH   4   7
ENDBRANCH   1   5
BRANCH   1  14
ATOM     13  O   ALA A   1     -36.757  21.560   0.103  0.00  0.00    -0.277 OA
ATOM     14  N   ALA A   2     -37.274  21.607   2.366  0.00  0.00    -0.300 N 
ATOM     15  C   ALA A   1     -36.772  21.025   1.210  0.00  0.00    +0.202 C 
ATOM     16  H   ALA A   2     -37.241  21.095   3.206  0.00  0.00    +0.150 HD
BRANCH  15  17
ATOM     17  CA  ALA A   1     -36.186  19.644   1.473  0.00  0.00    +0.013 C 
ATOM     18  CB  ALA A   1     -34.700  19.613   1.148  0.00  0.00    -0.015 C 
BRANCH  17  19
ATOM     19  N   ALA A   1     -36.916  18.692   0.677  0.00  0.00    +0.387 N 
ATOM     20  H1  ALA A   1     -37.679  19.167   0.194  0.00  0.00    -0.089 HD
ATOM     21  H2  ALA A   1     -37.297  17.965   1.282  0.00  0.00    -0.089 HD
ATOM     22  H3  ALA A   1     -36.289  18.270  -0.009  0.00  0.00    -0.089 HD
ENDBRANCH  17  19
ENDBRANCH  15  17
ENDBRANCH   1  14
TORSDOF 7
ENDMDL
MODEL 6
REMARK VINA RESULT:      -4.9      3.677      7.507
REMARK  Name = 5478845
REMARK  7 active torsions:
REMARK  status: ('A' for Active; 'I' for Inactive)
REMARK    1  A    between atoms: CA_1  and  C_5
REMARK    2  A    between atoms: CA_1  and  N_14
REMARK    3  A    between atoms: N_4  and  CA_7
REMARK    4  A    between atoms: CA_7  and  C_10
REMARK    5  A    between atoms: C_10  and  O_11
REMARK    6  A    between atoms: C_15  and  CA_17
REMARK    7  A    between atoms: CA_17  and  N_19
REMARK                            x       y       z     vdW  Elec       q    Type
REMARK                         _______ _______ _______ _____ _____    ______ ____
ROOT
ATOM      1  CA  ALA A   2     -34.333  27.982   3.104  0.00  0.00    +0.149 C 
ATOM      2  CB  ALA A   2     -34.911  29.363   2.844  0.00  0.00    +0.031 C 
ENDROOT
BRANCH   1   5
ATOM      3  O   ALA A   2     -32.099  27.195   3.619  0.00  0.00    -0.273 OA
ATOM      4  N   ALA A   3     -32.779  29.255   4.446  0.00  0.00    -0.295 N 
ATOM      5  C   ALA A   2     -32.946  28.080   3.725  0.00  0.00    +0.241 C 
ATOM      6  H   ALA A   3     -33.519  29.903   4.470  0.00  0.00    +0.150 HD
BRANCH   4   7
ATOM      7  CA  ALA A   3     -31.564  29.563   5.164  0.00  0.00    +0.171 C 
ATOM      8  CB  ALA A   3     -31.349  31.066   5.230  0.00  0.00    +0.033 C 
BRANCH   7  10
ATOM      9  OXT ALA A   3     -31.766  29.634   7.572  0.00  0.00    -0.248 OA
ATOM     10  C   ALA A   3     -31.570  28.967   6.562  0.00  0.00    +0.332 C 
BRANCH  10  11
ATOM     11  O   ALA A   3     -31.330  27.634   6.610  0.00  0.00    -0.479 OA
ATOM     12  H   ALA A   3     -31.831  27.048   6.077  0.00  0.00    +0.295 HD
ENDBRANCH  10  11
ENDBRANCH   7  10
ENDBRANCH   4   7
ENDBRANCH   1   5
BRANCH   1  14
ATOM     13  O   ALA A   1     -34.800  25.144   3.039  0.00  0.00    -0.277 OA
ATOM     14  N   ALA A   2     -35.171  27.222   4.003  0.00  0.00    -0.300 N 
ATOM     15  C   ALA A   1     -35.336  25.849   3.892  0.00  0.00    +0.202 C 
ATOM     16  H   ALA A   2     -35.645  27.698   4.723  0.00  0.00    +0.150 HD
BRANCH  15  17
ATOM     17  CA  ALA A   1     -36.230  25.289   4.990  0.00  0.00    +0.013 C 
ATOM     18  CB  ALA A   1     -35.666  23.988   5.541  0.00  0.00    -0.015 C 
BRANCH  17  19
ATOM     19  N   ALA A   1     -37.545  25.097   4.438  0.00  0.00    +0.387 N 
ATOM     20  H1  ALA A   1     -38.115  25.923   4.621  0.00  0.00    -0.089 HD
ATOM     21  H2  ALA A   1     -37.979  24.281   4.870  0.00  0.00    -0.089 HD
ATOM     22  H3  ALA A   1     -37.473  24.950   3.431  0.00  0.00    -0.089 HD
ENDBRANCH  17  19
ENDBRANCH  15  17
ENDBRANCH   1  14
TORSDOF 7
ENDMDL
MODEL 7
REMARK VINA RESULT:      -4.9      2.520      5.675
REMARK  Name = 5478845
REMARK  7 active torsions:
REMARK  status: ('A' for Active; 'I' for Inactive)
REMARK    1  A    between atoms: CA_1  and  C_5
REMARK    2  A    between atoms: CA_1  and  N_14
REMARK    3  A    between atoms: N_4  and  CA_7
REMARK    4  A    between atoms: CA_7  and  C_10
REMARK    5  A    between atoms: C_10  and  O_11
REMARK    6  A    between atoms: C_15  and  CA_17
REMARK    7  A    between atoms: CA_17  and  N_19
REMARK                            x       y       z     vdW  Elec       q    Type
REMARK                         _______ _______ _______ _____ _____    ______ ____
ROOT
ATOM      1  CA  ALA A   2     -35.934  23.355   4.998  0.00  0.00    +0.149 C 
ATOM      2  CB  ALA A   2     -35.388  22.517   6.143  0.00  0.00    +0.031 C 
ENDROOT
BRANCH   1   5
ATOM      3  O   ALA A   2     -33.683  24.231   4.798  0.00  0.00    -0.273 OA
ATOM      4  N   ALA A   3     -35.362  25.149   3.485  0.00  0.00    -0.295 N 
ATOM      5  C   ALA A   2     -34.854  24.266   4.427  0.00  0.00    +0.241 C 
ATOM      6  H   ALA A   3     -36.318  25.097   3.256  0.00  0.00    +0.150 HD
BRANCH   4   7
ATOM      7  CA  ALA A   3     -34.545  26.144   2.830  0.00  0.00    +0.171 C 
ATOM      8  CB  ALA A   3     -35.054  26.412   1.422  0.00  0.00    +0.033 C 
BRANCH   7  10
ATOM      9  OXT ALA A   3     -33.630  27.656   4.478  0.00  0.00    -0.248 OA
ATOM     10  C   ALA A   3     -34.484  27.436   3.626  0.00  0.00    +0.332 C 
BRANCH  10  11
ATOM     11  O   ALA A   3     -35.458  28.331   3.329  0.00  0.00    -0.479 OA
ATOM     12  H   ALA A   3     -36.349  28.048   3.266  0.00  0.00    +0.295 HD
ENDBRANCH  10  11
ENDBRANCH   7  10
ENDBRANCH   4   7
ENDBRANCH   1   5
BRANCH   1  14
ATOM     13  O   ALA A   1     -38.211  23.879   3.320  0.00  0.00    -0.277 OA
ATOM     14  N   ALA A   2     -36.428  22.523   3.926  0.00  0.00    -0.300 N 
ATOM     15  C   ALA A   1     -37.540  22.860   3.168  0.00  0.00    +0.202 C 
ATOM     16  H   ALA A   2     -35.957  21.682   3.726  0.00  0.00    +0.150 HD
BRANCH  15  17
ATOM     17  CA  ALA A   1     -37.819  21.837   2.074  0.00  0.00    +0.013 C 
ATOM     18  CB  ALA A   1     -39.316  21.645   1.879  0.00  0.00    -0.015 C 
BRANCH  17  19
ATOM     19  N   ALA A   1     -37.177  20.604   2.445  0.00  0.00    +0.387 N 
ATOM     20  H1  ALA A   1     -37.750  20.116   3.133  0.00  0.00    -0.089 HD
ATOM     21  H2  ALA A   1     -36.261  20.805   2.845  0.00  0.00    -0.089 HD
ATOM     22  H3  ALA A   1     -37.065  20.017   1.618  0.00  0.00    -0.089 HD
ENDBRANCH  17  19
ENDBRANCH  15  17
ENDBRANCH   1  14
TORSDOF 7
ENDMDL
MODEL 8
REMARK VINA RESULT:      -4.9      1.596      2.030
REMARK  Name = 5478845
REMARK  7 active torsions:
REMARK  status: ('A' for Active; 'I' for Inactive)
REMARK    1  A    between atoms: CA_1  and  C_5
REMARK    2  A    between atoms: CA_1  and  N_14
REMARK    3  A    between atoms: N_4  and  CA_7
REMARK    4  A    between atoms: CA_7  and  C_10
REMARK    5  A    between atoms: C_10  and  O_11
REMARK    6  A    between atoms: C_15  and  CA_17
REMARK    7  A    between atoms: CA_17  and  N_19
REMARK                            x       y       z     vdW  Elec       q    Type
REMARK                         _______ _______ _______ _____ _____    ______ ____
ROOT
ATOM      1  CA  ALA A   2     -35.138  22.529   4.912  0.00  0.00    +0.149 C 
ATOM      2  CB  ALA A   2     -35.538  22.067   6.304  0.00  0.00    +0.031 C 
ENDROOT
BRANCH   1   5
ATOM      3  O   ALA A   2     -35.168  20.510   3.572  0.00  0.00    -0.273 OA
ATOM      4  N   ALA A   3     -36.803  22.117   3.211  0.00  0.00    -0.295 N 
ATOM      5  C   ALA A   2     -35.688  21.589   3.847  0.00  0.00    +0.241 C 
ATOM      6  H   ALA A   3     -37.144  22.993   3.504  0.00  0.00    +0.150 HD
BRANCH   4   7
ATOM      7  CA  ALA A   3     -37.481  21.435   2.133  0.00  0.00    +0.171 C 
ATOM      8  CB  ALA A   3     -38.923  21.905   2.026  0.00  0.00    +0.033 C 
BRANCH   7  10
ATOM      9  OXT ALA A   3     -36.934  22.600   0.087  0.00  0.00    -0.248 OA
ATOM     10  C   ALA A   3     -36.763  21.622   0.807  0.00  0.00    +0.332 C 
BRANCH  10  11
ATOM     11  O   ALA A   3     -35.921  20.615   0.472  0.00  0.00    -0.479 OA
ATOM     12  H   ALA A   3     -35.412  20.672  -0.312  0.00  0.00    +0.295 HD
ENDBRANCH  10  11
ENDBRANCH   7  10
ENDBRANCH   4   7
ENDBRANCH   1   5
BRANCH   1  14
ATOM     13  O   ALA A   1     -33.570  24.886   4.401  0.00  0.00    -0.277 OA
ATOM     14  N   ALA A   2     -35.636  23.857   4.635  0.00  0.00    -0.300 N 
ATOM     15  C   ALA A   1     -34.798  24.938   4.400  0.00  0.00    +0.202 C 
ATOM     16  H   ALA A   2     -36.610  24.000   4.613  0.00  0.00    +0.150 HD
BRANCH  15  17
ATOM     17  CA  ALA A   1     -35.577  26.209   4.088  0.00  0.00    +0.013 C 
ATOM     18  CB  ALA A   1     -34.638  27.335   3.682  0.00  0.00    -0.015 C 
BRANCH  17  19
ATOM     19  N   ALA A   1     -36.341  26.560   5.256  0.00  0.00    +0.387 N 
ATOM     20  H1  ALA A   1     -35.722  26.610   6.065  0.00  0.00    -0.089 HD
ATOM     21  H2  ALA A   1     -37.058  25.853   5.418  0.00  0.00    -0.089 HD
ATOM     22  H3  ALA A   1     -36.785  27.467   5.111  0.00  0.00    -0.089 HD
ENDBRANCH  17  19
ENDBRANCH  15  17
ENDBRANCH   1  14
TORSDOF 7
ENDMDL
MODEL 9
REMARK VINA RESULT:      -4.9      2.456      6.637
REMARK  Name = 5478845
REMARK  7 active torsions:
REMARK  status: ('A' for Active; 'I' for Inactive)
REMARK    1  A    between atoms: CA_1  and  C_5
REMARK    2  A    between atoms: CA_1  and  N_14
REMARK    3  A    between atoms: N_4  and  CA_7
REMARK    4  A    between atoms: CA_7  and  C_10
REMARK    5  A    between atoms: C_10  and  O_11
REMARK    6  A    between atoms: C_15  and  CA_17
REMARK    7  A    between atoms: CA_17  and  N_19
REMARK                            x       y       z     vdW  Elec       q    Type
REMARK                         _______ _______ _______ _____ _____    ______ ____
ROOT
ATOM      1  CA  ALA A   2     -35.279  25.437   4.402  0.00  0.00    +0.149 C 
ATOM      2  CB  ALA A   2     -35.977  26.101   5.577  0.00  0.00    +0.031 C 
ENDROOT
BRANCH   1   5
ATOM      3  O   ALA A   2     -32.950  25.325   3.737  0.00  0.00    -0.273 OA
ATOM      4  N   ALA A   3     -33.740  27.270   4.726  0.00  0.00    -0.295 N 
ATOM      5  C   ALA A   2     -33.866  25.981   4.229  0.00  0.00    +0.241 C 
ATOM      6  H   ALA A   3     -34.536  27.712   5.102  0.00  0.00    +0.150 HD
BRANCH   4   7
ATOM      7  CA  ALA A   3     -32.487  27.989   4.718  0.00  0.00    +0.171 C 
ATOM      8  CB  ALA A   3     -32.614  29.276   3.917  0.00  0.00    +0.033 C 
BRANCH   7  10
ATOM      9  OXT ALA A   3     -32.066  29.404   6.633  0.00  0.00    -0.248 OA
ATOM     10  C   ALA A   3     -32.001  28.289   6.126  0.00  0.00    +0.332 C 
BRANCH  10  11
ATOM     11  O   ALA A   3     -31.475  27.226   6.782  0.00  0.00    -0.479 OA
ATOM     12  H   ALA A   3     -31.911  26.878   7.535  0.00  0.00    +0.295 HD
ENDBRANCH  10  11
ENDBRANCH   7  10
ENDBRANCH   4   7
ENDBRANCH   1   5
BRANCH   1  14
ATOM     13  O   ALA A   1     -37.289  23.483   3.754  0.00  0.00    -0.277 OA
ATOM     14  N   ALA A   2     -35.186  24.007   4.585  0.00  0.00    -0.300 N 
ATOM     15  C   ALA A   1     -36.213  23.139   4.241  0.00  0.00    +0.202 C 
ATOM     16  H   ALA A   2     -34.361  23.633   4.970  0.00  0.00    +0.150 HD
BRANCH  15  17
ATOM     17  CA  ALA A   1     -35.841  21.684   4.491  0.00  0.00    +0.013 C 
ATOM     18  CB  ALA A   1     -34.935  21.556   5.705  0.00  0.00    -0.015 C 
BRANCH  17  19
ATOM     19  N   ALA A   1     -35.203  21.178   3.305  0.00  0.00    +0.387 N 
ATOM     20  H1  ALA A   1     -34.896  21.959   2.724  0.00  0.00    -0.089 HD
ATOM     21  H2  ALA A   1     -35.863  20.603   2.782  0.00  0.00    -0.089 HD
ATOM     22  H3  ALA A   1     -34.395  20.612   3.568  0.00  0.00    -0.089 HD
ENDBRANCH  17  19
ENDBRANCH  15  17
ENDBRANCH   1  14
TORSDOF 7
ENDMDL
