MODEL 1
REMARK VINA RESULT:      -6.7      0.000      0.000
REMARK  Name = 55895
REMARK  5 active torsions:
REMARK  status: ('A' for Active; 'I' for Inactive)
REMARK    1  A    between atoms: C_6  and  O_24
REMARK    2  A    between atoms: C_9  and  C_26
REMARK    3  A    between atoms: C_15  and  N_19
REMARK    4  A    between atoms: C_26  and  O_27
REMARK    5  A    between atoms: O_27  and  C_30
REMARK                            x       y       z     vdW  Elec       q    Type
REMARK                         _______ _______ _______ _____ _____    ______ ____
ROOT
ATOM      1  O   UNL     1     -39.027  26.400   3.003  0.00  0.00    -0.286 OA
ATOM      2  O   UNL     1     -38.613  21.174   1.934  0.00  0.00    -0.285 OA
ATOM      3  N   UNL     1     -34.003  25.284   5.094  0.00  0.00    +0.388 N 
ATOM      4  N   UNL     1     -36.748  24.853   3.935  0.00  0.00    -0.290 N 
ATOM      5  C   UNL     1     -34.495  24.237   4.195  0.00  0.00    -0.036 C 
ATOM      6  C   UNL     1     -35.890  23.716   4.352  0.00  0.00    +0.141 C 
ATOM      7  C   UNL     1     -34.567  25.680   3.815  0.00  0.00    -0.057 C 
ATOM      8  C   UNL     1     -36.006  26.094   3.727  0.00  0.00    +0.070 C 
ATOM      9  C   UNL     1     -36.382  22.544   3.436  0.00  0.00    +0.111 C 
ATOM     10  C   UNL     1     -37.810  24.396   3.191  0.00  0.00    +0.088 C 
ATOM     11  C   UNL     1     -37.692  23.099   2.909  0.00  0.00    +0.042 C 
ATOM     12  C   UNL     1     -38.942  25.207   2.735  0.00  0.00    +0.206 C 
ATOM     13  C   UNL     1     -38.714  22.376   2.151  0.00  0.00    +0.210 C 
ATOM     14  C   UNL     1     -39.991  24.493   1.931  0.00  0.00    +0.039 C 
ATOM     15  C   UNL     1     -39.879  23.176   1.654  0.00  0.00    +0.120 C 
ATOM     16  C   UNL     1     -41.143  25.365   1.507  0.00  0.00    +0.036 C 
ATOM     17  H   UNL     1     -33.001  25.382   5.257  0.00  0.00    -0.084 HD
ATOM     18  H   UNL     1     -34.191  25.536   6.065  0.00  0.00    -0.084 HD
ENDROOT
BRANCH  15  19
ATOM     19  N   UNL     1     -40.785  22.457   0.919  0.00  0.00    -0.225 NA
ATOM     20  N   UNL     1     -41.335  21.825  -1.332  0.00  0.00    -0.288 N 
ATOM     21  C   UNL     1     -40.584  22.461  -0.357  0.00  0.00    +0.164 C 
ATOM     22  C   UNL     1     -40.981  21.924  -2.741  0.00  0.00    +0.114 C 
ATOM     23  C   UNL     1     -42.342  20.835  -0.978  0.00  0.00    +0.114 C 
ENDBRANCH  15  19
BRANCH   6  24
ATOM     24  O   UNL     1     -36.140  23.383   5.716  0.00  0.00    -0.341 OA
ATOM     25  C   UNL     1     -35.480  22.181   6.082  0.00  0.00    +0.176 C 
ENDBRANCH   6  24
BRANCH   9  26
ATOM     26  C   UNL     1     -35.452  22.189   2.277  0.00  0.00    +0.218 C 
BRANCH  26  27
ATOM     27  O   UNL     1     -35.071  20.832   2.408  0.00  0.00    -0.434 OA
BRANCH  27  30
ATOM     28  O   UNL     1     -34.643  19.904   0.346  0.00  0.00    -0.227 OA
ATOM     29  N   UNL     1     -36.528  19.338   1.534  0.00  0.00    -0.295 N 
ATOM     30  C   UNL     1     -35.349  20.017   1.341  0.00  0.00    +0.398 C 
ATOM     31  H   UNL     1     -37.046  19.476   2.360  0.00  0.00    +0.148 HD
ATOM     32  H   UNL     1     -36.854  18.713   0.847  0.00  0.00    +0.148 HD
ENDBRANCH  27  30
ENDBRANCH  26  27
ENDBRANCH   9  26
TORSDOF 5
ENDMDL
MODEL 2
REMARK VINA RESULT:      -6.1      3.032      7.317
REMARK  Name = 55895
REMARK  5 active torsions:
REMARK  status: ('A' for Active; 'I' for Inactive)
REMARK    1  A    between atoms: C_6  and  O_24
REMARK    2  A    between atoms: C_9  and  C_26
REMARK    3  A    between atoms: C_15  and  N_19
REMARK    4  A    between atoms: C_26  and  O_27
REMARK    5  A    between atoms: O_27  and  C_30
REMARK                            x       y       z     vdW  Elec       q    Type
REMARK                         _______ _______ _______ _____ _____    ______ ____
ROOT
ATOM      1  O   UNL     1     -36.867  28.473   1.475  0.00  0.00    -0.286 OA
ATOM      2  O   UNL     1     -32.841  25.823   3.797  0.00  0.00    -0.285 OA
ATOM      3  N   UNL     1     -39.199  23.496   2.280  0.00  0.00    +0.388 N 
ATOM      4  N   UNL     1     -37.095  25.642   2.097  0.00  0.00    -0.290 N 
ATOM      5  C   UNL     1     -37.976  23.689   3.064  0.00  0.00    -0.036 C 
ATOM      6  C   UNL     1     -36.746  24.233   2.403  0.00  0.00    +0.141 C 
ATOM      7  C   UNL     1     -39.040  24.737   3.019  0.00  0.00    -0.057 C 
ATOM      8  C   UNL     1     -38.503  25.956   2.330  0.00  0.00    +0.070 C 
ATOM      9  C   UNL     1     -35.423  24.365   3.231  0.00  0.00    +0.111 C 
ATOM     10  C   UNL     1     -36.017  26.460   2.346  0.00  0.00    +0.088 C 
ATOM     11  C   UNL     1     -35.026  25.800   2.943  0.00  0.00    +0.042 C 
ATOM     12  C   UNL     1     -35.939  27.887   2.022  0.00  0.00    +0.206 C 
ATOM     13  C   UNL     1     -33.761  26.451   3.286  0.00  0.00    +0.210 C 
ATOM     14  C   UNL     1     -34.660  28.583   2.388  0.00  0.00    +0.039 C 
ATOM     15  C   UNL     1     -33.649  27.915   2.983  0.00  0.00    +0.120 C 
ATOM     16  C   UNL     1     -34.621  30.040   2.012  0.00  0.00    +0.036 C 
ATOM     17  H   UNL     1     -39.891  22.812   2.583  0.00  0.00    -0.084 HD
ATOM     18  H   UNL     1     -39.390  23.267   1.304  0.00  0.00    -0.084 HD
ENDROOT
BRANCH  15  19
ATOM     19  N   UNL     1     -32.458  28.479   3.358  0.00  0.00    -0.225 NA
ATOM     20  N   UNL     1     -31.297  29.387   5.254  0.00  0.00    -0.288 N 
ATOM     21  C   UNL     1     -32.373  28.805   4.605  0.00  0.00    +0.164 C 
ATOM     22  C   UNL     1     -31.351  29.699   6.675  0.00  0.00    +0.114 C 
ATOM     23  C   UNL     1     -29.991  29.476   4.614  0.00  0.00    +0.114 C 
ENDBRANCH  15  19
BRANCH   6  24
ATOM     24  O   UNL     1     -36.478  23.517   1.199  0.00  0.00    -0.341 OA
ATOM     25  C   UNL     1     -35.657  22.386   1.444  0.00  0.00    +0.176 C 
ENDBRANCH   6  24
BRANCH   9  26
ATOM     26  C   UNL     1     -35.570  24.146   4.735  0.00  0.00    +0.218 C 
BRANCH  26  27
ATOM     27  O   UNL     1     -34.696  23.103   5.124  0.00  0.00    -0.434 OA
BRANCH  27  30
ATOM     28  O   UNL     1     -35.087  20.891   4.624  0.00  0.00    -0.227 OA
ATOM     29  N   UNL     1     -36.077  21.889   6.443  0.00  0.00    -0.295 N 
ATOM     30  C   UNL     1     -35.269  21.875   5.333  0.00  0.00    +0.398 C 
ATOM     31  H   UNL     1     -36.178  22.717   6.968  0.00  0.00    +0.148 HD
ATOM     32  H   UNL     1     -36.556  21.073   6.715  0.00  0.00    +0.148 HD
ENDBRANCH  27  30
ENDBRANCH  26  27
ENDBRANCH   9  26
TORSDOF 5
ENDMDL
MODEL 3
REMARK VINA RESULT:      -5.9      3.074      7.763
REMARK  Name = 55895
REMARK  5 active torsions:
REMARK  status: ('A' for Active; 'I' for Inactive)
REMARK    1  A    between atoms: C_6  and  O_24
REMARK    2  A    between atoms: C_9  and  C_26
REMARK    3  A    between atoms: C_15  and  N_19
REMARK    4  A    between atoms: C_26  and  O_27
REMARK    5  A    between atoms: O_27  and  C_30
REMARK                            x       y       z     vdW  Elec       q    Type
REMARK                         _______ _______ _______ _____ _____    ______ ____
ROOT
ATOM      1  O   UNL     1     -33.025  24.912   0.908  0.00  0.00    -0.286 OA
ATOM      2  O   UNL     1     -34.564  26.809   5.668  0.00  0.00    -0.285 OA
ATOM      3  N   UNL     1     -36.888  21.185   2.336  0.00  0.00    +0.388 N 
ATOM      4  N   UNL     1     -34.931  23.462   2.557  0.00  0.00    -0.290 N 
ATOM      5  C   UNL     1     -36.952  22.411   3.136  0.00  0.00    -0.036 C 
ATOM      6  C   UNL     1     -35.699  22.978   3.730  0.00  0.00    +0.141 C 
ATOM      7  C   UNL     1     -36.836  22.463   1.648  0.00  0.00    -0.057 C 
ATOM      8  C   UNL     1     -35.511  23.061   1.277  0.00  0.00    +0.070 C 
ATOM      9  C   UNL     1     -35.787  24.246   4.646  0.00  0.00    +0.111 C 
ATOM     10  C   UNL     1     -34.333  24.666   2.847  0.00  0.00    +0.088 C 
ATOM     11  C   UNL     1     -34.735  25.144   4.024  0.00  0.00    +0.042 C 
ATOM     12  C   UNL     1     -33.377  25.370   1.989  0.00  0.00    +0.206 C 
ATOM     13  C   UNL     1     -34.217  26.401   4.565  0.00  0.00    +0.210 C 
ATOM     14  C   UNL     1     -32.852  26.677   2.511  0.00  0.00    +0.039 C 
ATOM     15  C   UNL     1     -33.249  27.158   3.708  0.00  0.00    +0.120 C 
ATOM     16  C   UNL     1     -31.856  27.349   1.603  0.00  0.00    +0.036 C 
ATOM     17  H   UNL     1     -37.715  20.596   2.247  0.00  0.00    -0.084 HD
ATOM     18  H   UNL     1     -36.292  20.357   2.348  0.00  0.00    -0.084 HD
ENDROOT
BRANCH  15  19
ATOM     19  N   UNL     1     -32.826  28.345   4.248  0.00  0.00    -0.225 NA
ATOM     20  N   UNL     1     -31.136  29.294   5.666  0.00  0.00    -0.288 N 
ATOM     21  C   UNL     1     -31.777  28.264   4.998  0.00  0.00    +0.164 C 
ATOM     22  C   UNL     1     -29.956  29.045   6.481  0.00  0.00    +0.114 C 
ATOM     23  C   UNL     1     -31.453  30.687   5.381  0.00  0.00    +0.114 C 
ENDBRANCH  15  19
BRANCH   6  24
ATOM     24  O   UNL     1     -34.972  21.956   4.411  0.00  0.00    -0.341 OA
ATOM     25  C   UNL     1     -35.278  21.942   5.796  0.00  0.00    +0.176 C 
ENDBRANCH   6  24
BRANCH   9  26
ATOM     26  C   UNL     1     -37.144  24.947   4.658  0.00  0.00    +0.218 C 
BRANCH  26  27
ATOM     27  O   UNL     1     -37.311  25.622   3.425  0.00  0.00    -0.434 OA
BRANCH  27  30
ATOM     28  O   UNL     1     -38.945  26.611   2.141  0.00  0.00    -0.227 OA
ATOM     29  N   UNL     1     -39.467  24.988   3.683  0.00  0.00    -0.295 N 
ATOM     30  C   UNL     1     -38.603  25.813   3.006  0.00  0.00    +0.398 C 
ATOM     31  H   UNL     1     -39.123  24.368   4.367  0.00  0.00    +0.148 HD
ATOM     32  H   UNL     1     -40.431  25.015   3.485  0.00  0.00    +0.148 HD
ENDBRANCH  27  30
ENDBRANCH  26  27
ENDBRANCH   9  26
TORSDOF 5
ENDMDL
MODEL 4
REMARK VINA RESULT:      -5.9      2.992      7.455
REMARK  Name = 55895
REMARK  5 active torsions:
REMARK  status: ('A' for Active; 'I' for Inactive)
REMARK    1  A    between atoms: C_6  and  O_24
REMARK    2  A    between atoms: C_9  and  C_26
REMARK    3  A    between atoms: C_15  and  N_19
REMARK    4  A    between atoms: C_26  and  O_27
REMARK    5  A    between atoms: O_27  and  C_30
REMARK                            x       y       z     vdW  Elec       q    Type
REMARK                         _______ _______ _______ _____ _____    ______ ____
ROOT
ATOM      1  O   UNL     1     -33.155  24.573   0.710  0.00  0.00    -0.286 OA
ATOM      2  O   UNL     1     -34.268  26.625   5.523  0.00  0.00    -0.285 OA
ATOM      3  N   UNL     1     -37.270  21.227   2.363  0.00  0.00    +0.388 N 
ATOM      4  N   UNL     1     -35.101  23.313   2.465  0.00  0.00    -0.290 N 
ATOM      5  C   UNL     1     -37.179  22.457   3.154  0.00  0.00    -0.036 C 
ATOM      6  C   UNL     1     -35.851  22.908   3.679  0.00  0.00    +0.141 C 
ATOM      7  C   UNL     1     -37.134  22.492   1.661  0.00  0.00    -0.057 C 
ATOM      8  C   UNL     1     -35.780  22.962   1.219  0.00  0.00    +0.070 C 
ATOM      9  C   UNL     1     -35.774  24.182   4.587  0.00  0.00    +0.111 C 
ATOM     10  C   UNL     1     -34.380  24.457   2.714  0.00  0.00    +0.088 C 
ATOM     11  C   UNL     1     -34.676  24.976   3.905  0.00  0.00    +0.042 C 
ATOM     12  C   UNL     1     -33.408  25.066   1.803  0.00  0.00    +0.206 C 
ATOM     13  C   UNL     1     -34.017  26.181   4.408  0.00  0.00    +0.210 C 
ATOM     14  C   UNL     1     -32.738  26.320   2.286  0.00  0.00    +0.039 C 
ATOM     15  C   UNL     1     -33.027  26.842   3.497  0.00  0.00    +0.120 C 
ATOM     16  C   UNL     1     -31.732  26.893   1.324  0.00  0.00    +0.036 C 
ATOM     17  H   UNL     1     -38.152  20.717   2.321  0.00  0.00    -0.084 HD
ATOM     18  H   UNL     1     -36.754  20.347   2.352  0.00  0.00    -0.084 HD
ENDROOT
BRANCH  15  19
ATOM     19  N   UNL     1     -32.469  27.986   4.005  0.00  0.00    -0.225 NA
ATOM     20  N   UNL     1     -32.628  30.381   3.919  0.00  0.00    -0.288 N 
ATOM     21  C   UNL     1     -32.991  29.088   3.577  0.00  0.00    +0.164 C 
ATOM     22  C   UNL     1     -33.314  31.531   3.349  0.00  0.00    +0.114 C 
ATOM     23  C   UNL     1     -31.735  30.640   5.039  0.00  0.00    +0.114 C 
ENDBRANCH  15  19
BRANCH   6  24
ATOM     24  O   UNL     1     -35.188  21.826   4.332  0.00  0.00    -0.341 OA
ATOM     25  C   UNL     1     -35.287  21.936   5.743  0.00  0.00    +0.176 C 
ENDBRANCH   6  24
BRANCH   9  26
ATOM     26  C   UNL     1     -37.057  25.007   4.661  0.00  0.00    +0.218 C 
BRANCH  26  27
ATOM     27  O   UNL     1     -37.216  25.701   3.438  0.00  0.00    -0.434 OA
BRANCH  27  30
ATOM     28  O   UNL     1     -38.830  26.604   2.068  0.00  0.00    -0.227 OA
ATOM     29  N   UNL     1     -39.383  25.130   3.744  0.00  0.00    -0.295 N 
ATOM     30  C   UNL     1     -38.503  25.877   3.000  0.00  0.00    +0.398 C 
ATOM     31  H   UNL     1     -39.051  24.567   4.480  0.00  0.00    +0.148 HD
ATOM     32  H   UNL     1     -40.346  25.158   3.542  0.00  0.00    +0.148 HD
ENDBRANCH  27  30
ENDBRANCH  26  27
ENDBRANCH   9  26
TORSDOF 5
ENDMDL
MODEL 5
REMARK VINA RESULT:      -5.8      2.813      6.749
REMARK  Name = 55895
REMARK  5 active torsions:
REMARK  status: ('A' for Active; 'I' for Inactive)
REMARK    1  A    between atoms: C_6  and  O_24
REMARK    2  A    between atoms: C_9  and  C_26
REMARK    3  A    between atoms: C_15  and  N_19
REMARK    4  A    between atoms: C_26  and  O_27
REMARK    5  A    between atoms: O_27  and  C_30
REMARK                            x       y       z     vdW  Elec       q    Type
REMARK                         _______ _______ _______ _____ _____    ______ ____
ROOT
ATOM      1  O   UNL     1     -34.783  23.580   5.838  0.00  0.00    -0.286 OA
ATOM      2  O   UNL     1     -35.885  26.745   1.668  0.00  0.00    -0.285 OA
ATOM      3  N   UNL     1     -36.830  19.894   2.222  0.00  0.00    +0.388 N 
ATOM      4  N   UNL     1     -36.115  22.538   3.474  0.00  0.00    -0.290 N 
ATOM      5  C   UNL     1     -36.462  21.166   1.596  0.00  0.00    -0.036 C 
ATOM      6  C   UNL     1     -36.900  22.457   2.217  0.00  0.00    +0.141 C 
ATOM      7  C   UNL     1     -35.538  20.474   2.545  0.00  0.00    -0.057 C 
ATOM      8  C   UNL     1     -35.380  21.312   3.778  0.00  0.00    +0.070 C 
ATOM      9  C   UNL     1     -36.566  23.809   1.501  0.00  0.00    +0.111 C 
ATOM     10  C   UNL     1     -35.686  23.828   3.680  0.00  0.00    +0.088 C 
ATOM     11  C   UNL     1     -35.944  24.606   2.631  0.00  0.00    +0.042 C 
ATOM     12  C   UNL     1     -35.013  24.317   4.886  0.00  0.00    +0.206 C 
ATOM     13  C   UNL     1     -35.605  26.030   2.623  0.00  0.00    +0.210 C 
ATOM     14  C   UNL     1     -34.631  25.770   4.891  0.00  0.00    +0.039 C 
ATOM     15  C   UNL     1     -34.901  26.565   3.834  0.00  0.00    +0.120 C 
ATOM     16  C   UNL     1     -33.965  26.229   6.161  0.00  0.00    +0.036 C 
ATOM     17  H   UNL     1     -36.879  19.048   1.657  0.00  0.00    -0.084 HD
ATOM     18  H   UNL     1     -37.628  19.577   2.775  0.00  0.00    -0.084 HD
ENDROOT
BRANCH  15  19
ATOM     19  N   UNL     1     -34.575  27.894   3.756  0.00  0.00    -0.225 NA
ATOM     20  N   UNL     1     -32.785  29.382   3.169  0.00  0.00    -0.288 N 
ATOM     21  C   UNL     1     -33.377  28.142   3.342  0.00  0.00    +0.164 C 
ATOM     22  C   UNL     1     -31.415  29.503   2.692  0.00  0.00    +0.114 C 
ATOM     23  C   UNL     1     -33.575  30.605   3.206  0.00  0.00    +0.114 C 
ENDBRANCH  15  19
BRANCH   6  24
ATOM     24  O   UNL     1     -38.297  22.412   2.509  0.00  0.00    -0.341 OA
ATOM     25  C   UNL     1     -39.073  22.650   1.345  0.00  0.00    +0.176 C 
ENDBRANCH   6  24
BRANCH   9  26
ATOM     26  C   UNL     1     -35.593  23.702   0.328  0.00  0.00    +0.218 C 
BRANCH  26  27
ATOM     27  O   UNL     1     -34.275  23.655   0.842  0.00  0.00    -0.434 OA
BRANCH  27  30
ATOM     28  O   UNL     1     -32.153  23.980   0.013  0.00  0.00    -0.227 OA
ATOM     29  N   UNL     1     -33.844  25.472  -0.436  0.00  0.00    -0.295 N 
ATOM     30  C   UNL     1     -33.320  24.336   0.131  0.00  0.00    +0.398 C 
ATOM     31  H   UNL     1     -34.793  25.697  -0.300  0.00  0.00    +0.148 HD
ATOM     32  H   UNL     1     -33.271  26.061  -0.978  0.00  0.00    +0.148 HD
ENDBRANCH  27  30
ENDBRANCH  26  27
ENDBRANCH   9  26
TORSDOF 5
ENDMDL
MODEL 6
REMARK VINA RESULT:      -5.7      2.989      3.843
REMARK  Name = 55895
REMARK  5 active torsions:
REMARK  status: ('A' for Active; 'I' for Inactive)
REMARK    1  A    between atoms: C_6  and  O_24
REMARK    2  A    between atoms: C_9  and  C_26
REMARK    3  A    between atoms: C_15  and  N_19
REMARK    4  A    between atoms: C_26  and  O_27
REMARK    5  A    between atoms: O_27  and  C_30
REMARK                            x       y       z     vdW  Elec       q    Type
REMARK                         _______ _______ _______ _____ _____    ______ ____
ROOT
ATOM      1  O   UNL     1     -37.307  27.693   0.157  0.00  0.00    -0.286 OA
ATOM      2  O   UNL     1     -39.697  24.595   3.806  0.00  0.00    -0.285 OA
ATOM      3  N   UNL     1     -32.913  25.775   2.962  0.00  0.00    +0.388 N 
ATOM      4  N   UNL     1     -35.774  26.392   2.257  0.00  0.00    -0.290 N 
ATOM      5  C   UNL     1     -34.134  25.009   3.218  0.00  0.00    -0.036 C 
ATOM      6  C   UNL     1     -35.411  25.726   3.532  0.00  0.00    +0.141 C 
ATOM      7  C   UNL     1     -33.722  25.364   1.827  0.00  0.00    -0.057 C 
ATOM      8  C   UNL     1     -34.727  26.311   1.242  0.00  0.00    +0.070 C 
ATOM      9  C   UNL     1     -36.695  24.897   3.879  0.00  0.00    +0.111 C 
ATOM     10  C   UNL     1     -37.131  26.306   2.049  0.00  0.00    +0.088 C 
ATOM     11  C   UNL     1     -37.718  25.517   2.947  0.00  0.00    +0.042 C 
ATOM     12  C   UNL     1     -37.870  26.974   0.975  0.00  0.00    +0.206 C 
ATOM     13  C   UNL     1     -39.164  25.290   2.949  0.00  0.00    +0.210 C 
ATOM     14  C   UNL     1     -39.353  26.735   0.940  0.00  0.00    +0.039 C 
ATOM     15  C   UNL     1     -39.952  25.945   1.856  0.00  0.00    +0.120 C 
ATOM     16  C   UNL     1     -40.069  27.462  -0.167  0.00  0.00    +0.036 C 
ATOM     17  H   UNL     1     -32.003  25.343   3.117  0.00  0.00    -0.084 HD
ATOM     18  H   UNL     1     -32.551  26.670   3.293  0.00  0.00    -0.084 HD
ENDROOT
BRANCH  15  19
ATOM     19  N   UNL     1     -41.295  25.668   1.884  0.00  0.00    -0.225 NA
ATOM     20  N   UNL     1     -43.376  26.437   2.801  0.00  0.00    -0.288 N 
ATOM     21  C   UNL     1     -42.007  26.477   2.596  0.00  0.00    +0.164 C 
ATOM     22  C   UNL     1     -44.042  27.426   3.637  0.00  0.00    +0.114 C 
ATOM     23  C   UNL     1     -44.233  25.576   1.998  0.00  0.00    +0.114 C 
ENDBRANCH  15  19
BRANCH   6  24
ATOM     24  O   UNL     1     -35.190  26.698   4.553  0.00  0.00    -0.341 OA
ATOM     25  C   UNL     1     -34.887  26.082   5.795  0.00  0.00    +0.176 C 
ENDBRANCH   6  24
BRANCH   9  26
ATOM     26  C   UNL     1     -36.588  23.395   3.627  0.00  0.00    +0.218 C 
BRANCH  26  27
ATOM     27  O   UNL     1     -36.318  22.751   4.859  0.00  0.00    -0.434 OA
BRANCH  27  30
ATOM     28  O   UNL     1     -35.320  20.953   3.825  0.00  0.00    -0.227 OA
ATOM     29  N   UNL     1     -34.832  21.489   6.007  0.00  0.00    -0.295 N 
ATOM     30  C   UNL     1     -35.478  21.669   4.808  0.00  0.00    +0.398 C 
ATOM     31  H   UNL     1     -35.006  22.104   6.757  0.00  0.00    +0.148 HD
ATOM     32  H   UNL     1     -34.194  20.747   6.117  0.00  0.00    +0.148 HD
ENDBRANCH  27  30
ENDBRANCH  26  27
ENDBRANCH   9  26
TORSDOF 5
ENDMDL
MODEL 7
REMARK VINA RESULT:      -5.7      3.626      5.794
REMARK  Name = 55895
REMARK  5 active torsions:
REMARK  status: ('A' for Active; 'I' for Inactive)
REMARK    1  A    between atoms: C_6  and  O_24
REMARK    2  A    between atoms: C_9  and  C_26
REMARK    3  A    between atoms: C_15  and  N_19
REMARK    4  A    between atoms: C_26  and  O_27
REMARK    5  A    between atoms: O_27  and  C_30
REMARK                            x       y       z     vdW  Elec       q    Type
REMARK                         _______ _______ _______ _____ _____    ______ ____
ROOT
ATOM      1  O   UNL     1     -32.942  25.032  -0.490  0.00  0.00    -0.286 OA
ATOM      2  O   UNL     1     -35.673  21.393   2.325  0.00  0.00    -0.285 OA
ATOM      3  N   UNL     1     -35.133  28.209   3.506  0.00  0.00    +0.388 N 
ATOM      4  N   UNL     1     -34.626  25.819   1.746  0.00  0.00    -0.290 N 
ATOM      5  C   UNL     1     -35.187  26.778   3.817  0.00  0.00    -0.036 C 
ATOM      6  C   UNL     1     -35.683  25.810   2.787  0.00  0.00    +0.141 C 
ATOM      7  C   UNL     1     -33.935  27.412   3.307  0.00  0.00    -0.057 C 
ATOM      8  C   UNL     1     -33.619  26.858   1.949  0.00  0.00    +0.070 C 
ATOM      9  C   UNL     1     -35.809  24.292   3.154  0.00  0.00    +0.111 C 
ATOM     10  C   UNL     1     -34.408  24.542   1.283  0.00  0.00    +0.088 C 
ATOM     11  C   UNL     1     -35.073  23.638   2.000  0.00  0.00    +0.042 C 
ATOM     12  C   UNL     1     -33.547  24.182   0.153  0.00  0.00    +0.206 C 
ATOM     13  C   UNL     1     -35.023  22.211   1.683  0.00  0.00    +0.210 C 
ATOM     14  C   UNL     1     -33.458  22.719  -0.175  0.00  0.00    +0.039 C 
ATOM     15  C   UNL     1     -34.140  21.802   0.543  0.00  0.00    +0.120 C 
ATOM     16  C   UNL     1     -32.581  22.405  -1.358  0.00  0.00    +0.036 C 
ATOM     17  H   UNL     1     -35.167  28.892   4.261  0.00  0.00    -0.084 HD
ATOM     18  H   UNL     1     -35.683  28.830   2.911  0.00  0.00    -0.084 HD
ENDROOT
BRANCH  15  19
ATOM     19  N   UNL     1     -34.102  20.451   0.315  0.00  0.00    -0.225 NA
ATOM     20  N   UNL     1     -32.747  18.500   0.665  0.00  0.00    -0.288 N 
ATOM     21  C   UNL     1     -33.048  19.849   0.755  0.00  0.00    +0.164 C 
ATOM     22  C   UNL     1     -31.508  17.966   1.212  0.00  0.00    +0.114 C 
ATOM     23  C   UNL     1     -33.754  17.530   0.256  0.00  0.00    +0.114 C 
ENDBRANCH  15  19
BRANCH   6  24
ATOM     24  O   UNL     1     -36.920  26.265   2.240  0.00  0.00    -0.341 OA
ATOM     25  C   UNL     1     -38.022  25.813   3.011  0.00  0.00    +0.176 C 
ENDBRANCH   6  24
BRANCH   9  26
ATOM     26  C   UNL     1     -35.175  23.890   4.484  0.00  0.00    +0.218 C 
BRANCH  26  27
ATOM     27  O   UNL     1     -36.060  23.012   5.155  0.00  0.00    -0.434 OA
BRANCH  27  30
ATOM     28  O   UNL     1     -35.251  22.194   7.149  0.00  0.00    -0.227 OA
ATOM     29  N   UNL     1     -35.195  20.923   5.234  0.00  0.00    -0.295 N 
ATOM     30  C   UNL     1     -35.482  22.057   5.952  0.00  0.00    +0.398 C 
ATOM     31  H   UNL     1     -35.409  20.882   4.273  0.00  0.00    +0.148 HD
ATOM     32  H   UNL     1     -34.776  20.151   5.678  0.00  0.00    +0.148 HD
ENDBRANCH  27  30
ENDBRANCH  26  27
ENDBRANCH   9  26
TORSDOF 5
ENDMDL
MODEL 8
REMARK VINA RESULT:      -5.5      6.010     10.108
REMARK  Name = 55895
REMARK  5 active torsions:
REMARK  status: ('A' for Active; 'I' for Inactive)
REMARK    1  A    between atoms: C_6  and  O_24
REMARK    2  A    between atoms: C_9  and  C_26
REMARK    3  A    between atoms: C_15  and  N_19
REMARK    4  A    between atoms: C_26  and  O_27
REMARK    5  A    between atoms: O_27  and  C_30
REMARK                            x       y       z     vdW  Elec       q    Type
REMARK                         _______ _______ _______ _____ _____    ______ ____
ROOT
ATOM      1  O   UNL     1     -45.073  25.263   1.743  0.00  0.00    -0.286 OA
ATOM      2  O   UNL     1     -41.588  28.296   4.441  0.00  0.00    -0.285 OA
ATOM      3  N   UNL     1     -48.483  28.014   5.158  0.00  0.00    +0.388 N 
ATOM      4  N   UNL     1     -45.941  26.942   3.952  0.00  0.00    -0.290 N 
ATOM      5  C   UNL     1     -47.152  28.620   5.067  0.00  0.00    -0.036 C 
ATOM      6  C   UNL     1     -45.932  27.760   5.190  0.00  0.00    +0.141 C 
ATOM      7  C   UNL     1     -47.900  28.208   3.841  0.00  0.00    -0.057 C 
ATOM      8  C   UNL     1     -47.169  27.082   3.173  0.00  0.00    +0.070 C 
ATOM      9  C   UNL     1     -44.515  28.426   5.168  0.00  0.00    +0.111 C 
ATOM     10  C   UNL     1     -44.663  26.818   3.459  0.00  0.00    +0.088 C 
ATOM     11  C   UNL     1     -43.803  27.591   4.121  0.00  0.00    +0.042 C 
ATOM     12  C   UNL     1     -44.262  25.963   2.339  0.00  0.00    +0.206 C 
ATOM     13  C   UNL     1     -42.376  27.612   3.798  0.00  0.00    +0.210 C 
ATOM     14  C   UNL     1     -42.806  25.988   1.971  0.00  0.00    +0.039 C 
ATOM     15  C   UNL     1     -41.930  26.761   2.647  0.00  0.00    +0.120 C 
ATOM     16  C   UNL     1     -42.443  25.074   0.831  0.00  0.00    +0.036 C 
ATOM     17  H   UNL     1     -49.279  28.582   5.448  0.00  0.00    -0.084 HD
ATOM     18  H   UNL     1     -48.867  27.211   5.656  0.00  0.00    -0.084 HD
ENDROOT
BRANCH  15  19
ATOM     19  N   UNL     1     -40.592  26.848   2.366  0.00  0.00    -0.225 NA
ATOM     20  N   UNL     1     -38.470  25.850   2.887  0.00  0.00    -0.288 N 
ATOM     21  C   UNL     1     -39.845  25.991   2.980  0.00  0.00    +0.164 C 
ATOM     22  C   UNL     1     -37.763  24.831   3.648  0.00  0.00    +0.114 C 
ATOM     23  C   UNL     1     -37.713  26.533   1.846  0.00  0.00    +0.114 C 
ENDBRANCH  15  19
BRANCH   6  24
ATOM     24  O   UNL     1     -46.038  26.920   6.339  0.00  0.00    -0.341 OA
ATOM     25  C   UNL     1     -45.827  27.653   7.535  0.00  0.00    +0.176 C 
ENDBRANCH   6  24
BRANCH   9  26
ATOM     26  C   UNL     1     -44.495  29.902   4.773  0.00  0.00    +0.218 C 
BRANCH  26  27
ATOM     27  O   UNL     1     -43.663  30.598   5.683  0.00  0.00    -0.434 OA
BRANCH  27  30
ATOM     28  O   UNL     1     -45.273  31.574   7.006  0.00  0.00    -0.227 OA
ATOM     29  N   UNL     1     -43.472  30.488   7.934  0.00  0.00    -0.295 N 
ATOM     30  C   UNL     1     -44.229  30.943   6.883  0.00  0.00    +0.398 C 
ATOM     31  H   UNL     1     -42.642  29.986   7.762  0.00  0.00    +0.148 HD
ATOM     32  H   UNL     1     -43.758  30.663   8.860  0.00  0.00    +0.148 HD
ENDBRANCH  27  30
ENDBRANCH  26  27
ENDBRANCH   9  26
TORSDOF 5
ENDMDL
MODEL 9
REMARK VINA RESULT:      -5.5      2.456      5.133
REMARK  Name = 55895
REMARK  5 active torsions:
REMARK  status: ('A' for Active; 'I' for Inactive)
REMARK    1  A    between atoms: C_6  and  O_24
REMARK    2  A    between atoms: C_9  and  C_26
REMARK    3  A    between atoms: C_15  and  N_19
REMARK    4  A    between atoms: C_26  and  O_27
REMARK    5  A    between atoms: O_27  and  C_30
REMARK                            x       y       z     vdW  Elec       q    Type
REMARK                         _______ _______ _______ _____ _____    ______ ____
ROOT
ATOM      1  O   UNL     1     -39.874  22.156   0.060  0.00  0.00    -0.286 OA
ATOM      2  O   UNL     1     -38.459  26.571   2.728  0.00  0.00    -0.285 OA
ATOM      3  N   UNL     1     -34.858  20.693   1.945  0.00  0.00    +0.388 N 
ATOM      4  N   UNL     1     -37.235  22.407   1.253  0.00  0.00    -0.290 N 
ATOM      5  C   UNL     1     -35.407  21.866   2.628  0.00  0.00    -0.036 C 
ATOM      6  C   UNL     1     -35.996  22.987   1.828  0.00  0.00    +0.141 C 
ATOM      7  C   UNL     1     -36.234  20.642   2.409  0.00  0.00    -0.057 C 
ATOM      8  C   UNL     1     -37.355  20.966   1.467  0.00  0.00    +0.070 C 
ATOM      9  C   UNL     1     -36.512  24.271   2.563  0.00  0.00    +0.111 C 
ATOM     10  C   UNL     1     -38.252  23.332   1.292  0.00  0.00    +0.088 C 
ATOM     11  C   UNL     1     -37.902  24.420   1.975  0.00  0.00    +0.042 C 
ATOM     12  C   UNL     1     -39.574  23.169   0.681  0.00  0.00    +0.206 C 
ATOM     13  C   UNL     1     -38.808  25.559   2.132  0.00  0.00    +0.210 C 
ATOM     14  C   UNL     1     -40.531  24.314   0.852  0.00  0.00    +0.039 C 
ATOM     15  C   UNL     1     -40.175  25.423   1.534  0.00  0.00    +0.120 C 
ATOM     16  C   UNL     1     -41.865  24.107   0.185  0.00  0.00    +0.036 C 
ATOM     17  H   UNL     1     -34.147  20.126   2.405  0.00  0.00    -0.084 HD
ATOM     18  H   UNL     1     -34.404  20.541   1.044  0.00  0.00    -0.084 HD
ENDROOT
BRANCH  15  19
ATOM     19  N   UNL     1     -40.993  26.503   1.743  0.00  0.00    -0.225 NA
ATOM     20  N   UNL     1     -42.847  27.256   3.070  0.00  0.00    -0.288 N 
ATOM     21  C   UNL     1     -41.894  26.340   2.654  0.00  0.00    +0.164 C 
ATOM     22  C   UNL     1     -43.805  26.924   4.115  0.00  0.00    +0.114 C 
ATOM     23  C   UNL     1     -42.771  28.655   2.672  0.00  0.00    +0.114 C 
ENDBRANCH  15  19
BRANCH   6  24
ATOM     24  O   UNL     1     -35.100  23.371   0.786  0.00  0.00    -0.341 OA
ATOM     25  C   UNL     1     -34.228  24.406   1.212  0.00  0.00    +0.176 C 
ENDBRANCH   6  24
BRANCH   9  26
ATOM     26  C   UNL     1     -36.588  24.163   4.085  0.00  0.00    +0.218 C 
BRANCH  26  27
ATOM     27  O   UNL     1     -35.435  24.773   4.636  0.00  0.00    -0.434 OA
BRANCH  27  30
ATOM     28  O   UNL     1     -34.580  26.907   4.538  0.00  0.00    -0.227 OA
ATOM     29  N   UNL     1     -36.702  26.513   5.332  0.00  0.00    -0.295 N 
ATOM     30  C   UNL     1     -35.490  26.132   4.811  0.00  0.00    +0.398 C 
ATOM     31  H   UNL     1     -37.389  25.835   5.527  0.00  0.00    +0.148 HD
ATOM     32  H   UNL     1     -36.884  27.464   5.510  0.00  0.00    +0.148 HD
ENDBRANCH  27  30
ENDBRANCH  26  27
ENDBRANCH   9  26
TORSDOF 5
ENDMDL
