MODEL 1
REMARK VINA RESULT:      -6.0      0.000      0.000
REMARK  Name = 5281953
REMARK  7 active torsions:
REMARK  status: ('A' for Active; 'I' for Inactive)
REMARK    1  A    between atoms: C_3  and  C_12
REMARK    2  A    between atoms: C_6  and  O_24
REMARK    3  A    between atoms: C_8  and  O_26
REMARK    4  A    between atoms: C_10  and  O_28
REMARK    5  A    between atoms: C_15  and  O_18
REMARK    6  A    between atoms: C_16  and  O_20
REMARK    7  A    between atoms: C_17  and  O_22
REMARK                            x       y       z     vdW  Elec       q    Type
REMARK                         _______ _______ _______ _____ _____    ______ ____
ROOT
ATOM      1  O   UNL     1     -34.450  20.220   1.791  0.00  0.00    -0.450 OA
ATOM      2  O   UNL     1     -37.043  18.035  -0.470  0.00  0.00    -0.283 OA
ATOM      3  C   UNL     1     -35.778  20.592   1.650  0.00  0.00    +0.182 A 
ATOM      4  C   UNL     1     -34.856  18.290   0.375  0.00  0.00    +0.110 A 
ATOM      5  C   UNL     1     -34.020  19.080   1.160  0.00  0.00    +0.155 A 
ATOM      6  C   UNL     1     -36.684  19.922   0.915  0.00  0.00    +0.208 A 
ATOM      7  C   UNL     1     -36.263  18.688   0.211  0.00  0.00    +0.238 A 
ATOM      8  C   UNL     1     -34.361  17.140  -0.245  0.00  0.00    +0.143 C 
ATOM      9  C   UNL     1     -32.681  18.727   1.329  0.00  0.00    +0.074 C 
ATOM     10  C   UNL     1     -32.184  17.579   0.711  0.00  0.00    +0.140 C 
ATOM     11  C   UNL     1     -33.022  16.788  -0.074  0.00  0.00    +0.073 C 
ENDROOT
BRANCH   3  12
ATOM     12  C   UNL     1     -36.107  21.831   2.376  0.00  0.00    +0.044 C 
ATOM     13  C   UNL     1     -35.892  21.909   3.753  0.00  0.00    +0.043 C 
ATOM     14  C   UNL     1     -36.630  22.926   1.689  0.00  0.00    +0.043 C 
ATOM     15  C   UNL     1     -36.939  24.100   2.377  0.00  0.00    +0.175 C 
ATOM     16  C   UNL     1     -36.203  23.083   4.442  0.00  0.00    +0.175 C 
ATOM     17  C   UNL     1     -36.726  24.178   3.754  0.00  0.00    +0.202 C 
BRANCH  15  18
ATOM     18  O   UNL     1     -37.449  25.162   1.695  0.00  0.00    -0.468 OA
ATOM     19  C   UNL     1     -38.826  25.098   1.329  0.00  0.00    +0.253 C 
ENDBRANCH  15  18
BRANCH  16  20
ATOM     20  O   UNL     1     -35.989  23.146   5.785  0.00  0.00    -0.468 OA
ATOM     21  C   UNL     1     -35.276  22.063   6.379  0.00  0.00    +0.253 C 
ENDBRANCH  16  20
BRANCH  17  22
ATOM     22  O   UNL     1     -37.027  25.325   4.427  0.00  0.00    -0.501 OA
ATOM     23  H   UNL     1     -36.375  25.990   4.533  0.00  0.00    +0.292 HD
ENDBRANCH  17  22
ENDBRANCH   3  12
BRANCH   6  24
ATOM     24  O   UNL     1     -37.990  20.338   0.769  0.00  0.00    -0.501 OA
ATOM     25  H   UNL     1     -38.684  19.849   1.167  0.00  0.00    +0.292 HD
ENDBRANCH   6  24
BRANCH   8  26
ATOM     26  O   UNL     1     -35.136  16.333  -1.023  0.00  0.00    -0.505 OA
ATOM     27  H   UNL     1     -35.794  15.795  -0.629  0.00  0.00    +0.292 HD
ENDBRANCH   8  26
BRANCH  10  28
ATOM     28  O   UNL     1     -30.877  17.231   0.875  0.00  0.00    -0.505 OA
ATOM     29  H   UNL     1     -30.206  17.881   0.801  0.00  0.00    +0.292 HD
ENDBRANCH  10  28
TORSDOF 7
ENDMDL
MODEL 2
REMARK VINA RESULT:      -6.0      0.023      2.560
REMARK  Name = 5281953
REMARK  7 active torsions:
REMARK  status: ('A' for Active; 'I' for Inactive)
REMARK    1  A    between atoms: C_3  and  C_12
REMARK    2  A    between atoms: C_6  and  O_24
REMARK    3  A    between atoms: C_8  and  O_26
REMARK    4  A    between atoms: C_10  and  O_28
REMARK    5  A    between atoms: C_15  and  O_18
REMARK    6  A    between atoms: C_16  and  O_20
REMARK    7  A    between atoms: C_17  and  O_22
REMARK                            x       y       z     vdW  Elec       q    Type
REMARK                         _______ _______ _______ _____ _____    ______ ____
ROOT
ATOM      1  O   UNL     1     -34.445  20.221   1.794  0.00  0.00    -0.450 OA
ATOM      2  O   UNL     1     -37.056  18.041  -0.452  0.00  0.00    -0.283 OA
ATOM      3  C   UNL     1     -35.773  20.597   1.660  0.00  0.00    +0.182 A 
ATOM      4  C   UNL     1     -34.864  18.290   0.382  0.00  0.00    +0.110 A 
ATOM      5  C   UNL     1     -34.022  19.079   1.162  0.00  0.00    +0.155 A 
ATOM      6  C   UNL     1     -36.684  19.928   0.930  0.00  0.00    +0.208 A 
ATOM      7  C   UNL     1     -36.271  18.692   0.225  0.00  0.00    +0.238 A 
ATOM      8  C   UNL     1     -34.376  17.139  -0.240  0.00  0.00    +0.143 C 
ATOM      9  C   UNL     1     -32.683  18.722   1.324  0.00  0.00    +0.074 C 
ATOM     10  C   UNL     1     -32.192  17.572   0.705  0.00  0.00    +0.140 C 
ATOM     11  C   UNL     1     -33.037  16.783  -0.076  0.00  0.00    +0.073 C 
ENDROOT
BRANCH   3  12
ATOM     12  C   UNL     1     -36.094  21.837   2.386  0.00  0.00    +0.044 C 
ATOM     13  C   UNL     1     -36.604  22.937   1.695  0.00  0.00    +0.043 C 
ATOM     14  C   UNL     1     -35.893  21.912   3.765  0.00  0.00    +0.043 C 
ATOM     15  C   UNL     1     -36.201  23.087   4.452  0.00  0.00    +0.175 C 
ATOM     16  C   UNL     1     -36.910  24.113   2.383  0.00  0.00    +0.175 C 
ATOM     17  C   UNL     1     -36.709  24.187   3.761  0.00  0.00    +0.202 C 
BRANCH  15  18
ATOM     18  O   UNL     1     -36.000  23.147   5.798  0.00  0.00    -0.468 OA
ATOM     19  C   UNL     1     -35.284  22.069   6.396  0.00  0.00    +0.253 C 
ENDBRANCH  15  18
BRANCH  16  20
ATOM     20  O   UNL     1     -37.406  25.179   1.696  0.00  0.00    -0.468 OA
ATOM     21  C   UNL     1     -38.780  25.125   1.318  0.00  0.00    +0.253 C 
ENDBRANCH  16  20
BRANCH  17  22
ATOM     22  O   UNL     1     -37.010  25.334   4.433  0.00  0.00    -0.501 OA
ATOM     23  H   UNL     1     -37.249  26.106   3.958  0.00  0.00    +0.292 HD
ENDBRANCH  17  22
ENDBRANCH   3  12
BRANCH   6  24
ATOM     24  O   UNL     1     -37.990  20.348   0.791  0.00  0.00    -0.501 OA
ATOM     25  H   UNL     1     -38.616  19.796   0.364  0.00  0.00    +0.292 HD
ENDBRANCH   6  24
BRANCH   8  26
ATOM     26  O   UNL     1     -35.158  16.333  -1.012  0.00  0.00    -0.505 OA
ATOM     27  H   UNL     1     -35.531  16.664  -1.806  0.00  0.00    +0.292 HD
ENDBRANCH   8  26
BRANCH  10  28
ATOM     28  O   UNL     1     -30.886  17.220   0.862  0.00  0.00    -0.505 OA
ATOM     29  H   UNL     1     -30.422  16.812   0.157  0.00  0.00    +0.292 HD
ENDBRANCH  10  28
TORSDOF 7
ENDMDL
MODEL 3
REMARK VINA RESULT:      -6.0      1.545      7.588
REMARK  Name = 5281953
REMARK  7 active torsions:
REMARK  status: ('A' for Active; 'I' for Inactive)
REMARK    1  A    between atoms: C_3  and  C_12
REMARK    2  A    between atoms: C_6  and  O_24
REMARK    3  A    between atoms: C_8  and  O_26
REMARK    4  A    between atoms: C_10  and  O_28
REMARK    5  A    between atoms: C_15  and  O_18
REMARK    6  A    between atoms: C_16  and  O_20
REMARK    7  A    between atoms: C_17  and  O_22
REMARK                            x       y       z     vdW  Elec       q    Type
REMARK                         _______ _______ _______ _____ _____    ______ ____
ROOT
ATOM      1  O   UNL     1     -36.041  23.055   1.812  0.00  0.00    -0.450 OA
ATOM      2  O   UNL     1     -35.796  23.074   5.881  0.00  0.00    -0.283 OA
ATOM      3  C   UNL     1     -35.763  21.899   2.526  0.00  0.00    +0.182 A 
ATOM      4  C   UNL     1     -36.182  24.291   3.897  0.00  0.00    +0.110 A 
ATOM      5  C   UNL     1     -36.250  24.219   2.508  0.00  0.00    +0.155 A 
ATOM      6  C   UNL     1     -35.661  21.837   3.866  0.00  0.00    +0.208 A 
ATOM      7  C   UNL     1     -35.873  23.071   4.659  0.00  0.00    +0.238 A 
ATOM      8  C   UNL     1     -36.402  25.505   4.552  0.00  0.00    +0.143 C 
ATOM      9  C   UNL     1     -36.537  25.362   1.763  0.00  0.00    +0.074 C 
ATOM     10  C   UNL     1     -36.758  26.576   2.413  0.00  0.00    +0.140 C 
ATOM     11  C   UNL     1     -36.690  26.648   3.804  0.00  0.00    +0.073 C 
ENDROOT
BRANCH   3  12
ATOM     12  C   UNL     1     -35.560  20.725   1.660  0.00  0.00    +0.044 C 
ATOM     13  C   UNL     1     -36.662  20.034   1.154  0.00  0.00    +0.043 C 
ATOM     14  C   UNL     1     -34.269  20.304   1.343  0.00  0.00    +0.043 C 
ATOM     15  C   UNL     1     -34.078  19.194   0.521  0.00  0.00    +0.175 C 
ATOM     16  C   UNL     1     -36.471  18.921   0.333  0.00  0.00    +0.175 C 
ATOM     17  C   UNL     1     -35.180  18.502   0.016  0.00  0.00    +0.202 C 
BRANCH  15  18
ATOM     18  O   UNL     1     -32.812  18.794   0.218  0.00  0.00    -0.468 OA
ATOM     19  C   UNL     1     -32.112  18.048   1.213  0.00  0.00    +0.253 C 
ENDBRANCH  15  18
BRANCH  16  20
ATOM     20  O   UNL     1     -37.556  18.256  -0.153  0.00  0.00    -0.468 OA
ATOM     21  C   UNL     1     -38.502  19.017  -0.901  0.00  0.00    +0.253 C 
ENDBRANCH  16  20
BRANCH  17  22
ATOM     22  O   UNL     1     -34.993  17.417  -0.788  0.00  0.00    -0.501 OA
ATOM     23  H   UNL     1     -34.206  17.335  -1.289  0.00  0.00    +0.292 HD
ENDBRANCH  17  22
ENDBRANCH   3  12
BRANCH   6  24
ATOM     24  O   UNL     1     -35.351  20.677   4.543  0.00  0.00    -0.501 OA
ATOM     25  H   UNL     1     -34.532  20.600   4.990  0.00  0.00    +0.292 HD
ENDBRANCH   6  24
BRANCH   8  26
ATOM     26  O   UNL     1     -36.347  25.630   5.908  0.00  0.00    -0.505 OA
ATOM     27  H   UNL     1     -36.870  25.073   6.451  0.00  0.00    +0.292 HD
ENDBRANCH   8  26
BRANCH  10  28
ATOM     28  O   UNL     1     -37.039  27.695   1.688  0.00  0.00    -0.505 OA
ATOM     29  H   UNL     1     -37.054  28.533   2.106  0.00  0.00    +0.292 HD
ENDBRANCH  10  28
TORSDOF 7
ENDMDL
MODEL 4
REMARK VINA RESULT:      -6.0      1.781      7.232
REMARK  Name = 5281953
REMARK  7 active torsions:
REMARK  status: ('A' for Active; 'I' for Inactive)
REMARK    1  A    between atoms: C_3  and  C_12
REMARK    2  A    between atoms: C_6  and  O_24
REMARK    3  A    between atoms: C_8  and  O_26
REMARK    4  A    between atoms: C_10  and  O_28
REMARK    5  A    between atoms: C_15  and  O_18
REMARK    6  A    between atoms: C_16  and  O_20
REMARK    7  A    between atoms: C_17  and  O_22
REMARK                            x       y       z     vdW  Elec       q    Type
REMARK                         _______ _______ _______ _____ _____    ______ ____
ROOT
ATOM      1  O   UNL     1     -35.440  23.175   1.814  0.00  0.00    -0.450 OA
ATOM      2  O   UNL     1     -35.791  23.156   5.874  0.00  0.00    -0.283 OA
ATOM      3  C   UNL     1     -35.507  21.989   2.529  0.00  0.00    +0.182 A 
ATOM      4  C   UNL     1     -35.632  24.421   3.889  0.00  0.00    +0.110 A 
ATOM      5  C   UNL     1     -35.510  24.359   2.503  0.00  0.00    +0.155 A 
ATOM      6  C   UNL     1     -35.615  21.911   3.867  0.00  0.00    +0.208 A 
ATOM      7  C   UNL     1     -35.689  23.165   4.654  0.00  0.00    +0.238 A 
ATOM      8  C   UNL     1     -35.697  25.656   4.537  0.00  0.00    +0.143 C 
ATOM      9  C   UNL     1     -35.451  25.535   1.755  0.00  0.00    +0.074 C 
ATOM     10  C   UNL     1     -35.516  26.771   2.399  0.00  0.00    +0.140 C 
ATOM     11  C   UNL     1     -35.638  26.831   3.787  0.00  0.00    +0.073 C 
ENDROOT
BRANCH   3  12
ATOM     12  C   UNL     1     -35.420  20.796   1.670  0.00  0.00    +0.044 C 
ATOM     13  C   UNL     1     -34.173  20.254   1.353  0.00  0.00    +0.043 C 
ATOM     14  C   UNL     1     -36.583  20.204   1.175  0.00  0.00    +0.043 C 
ATOM     15  C   UNL     1     -36.500  19.072   0.364  0.00  0.00    +0.175 C 
ATOM     16  C   UNL     1     -34.090  19.122   0.541  0.00  0.00    +0.175 C 
ATOM     17  C   UNL     1     -35.253  18.531   0.047  0.00  0.00    +0.202 C 
BRANCH  15  18
ATOM     18  O   UNL     1     -37.642  18.504  -0.112  0.00  0.00    -0.468 OA
ATOM     19  C   UNL     1     -38.554  19.359  -0.799  0.00  0.00    +0.253 C 
ENDBRANCH  15  18
BRANCH  16  20
ATOM     20  O   UNL     1     -32.867  18.605   0.240  0.00  0.00    -0.468 OA
ATOM     21  C   UNL     1     -32.145  17.986   1.302  0.00  0.00    +0.253 C 
ENDBRANCH  16  20
BRANCH  17  22
ATOM     22  O   UNL     1     -35.172  17.425  -0.745  0.00  0.00    -0.501 OA
ATOM     23  H   UNL     1     -35.844  17.248  -1.373  0.00  0.00    +0.292 HD
ENDBRANCH  17  22
ENDBRANCH   3  12
BRANCH   6  24
ATOM     24  O   UNL     1     -35.646  20.715   4.551  0.00  0.00    -0.501 OA
ATOM     25  H   UNL     1     -36.437  20.213   4.580  0.00  0.00    +0.292 HD
ENDBRANCH   6  24
BRANCH   8  26
ATOM     26  O   UNL     1     -35.816  25.771   5.890  0.00  0.00    -0.505 OA
ATOM     27  H   UNL     1     -35.219  26.312   6.369  0.00  0.00    +0.292 HD
ENDBRANCH   8  26
BRANCH  10  28
ATOM     28  O   UNL     1     -35.459  27.920   1.671  0.00  0.00    -0.505 OA
ATOM     29  H   UNL     1     -36.066  28.062   0.971  0.00  0.00    +0.292 HD
ENDBRANCH  10  28
TORSDOF 7
ENDMDL
MODEL 5
REMARK VINA RESULT:      -6.0      3.683      7.793
REMARK  Name = 5281953
REMARK  7 active torsions:
REMARK  status: ('A' for Active; 'I' for Inactive)
REMARK    1  A    between atoms: C_3  and  C_12
REMARK    2  A    between atoms: C_6  and  O_24
REMARK    3  A    between atoms: C_8  and  O_26
REMARK    4  A    between atoms: C_10  and  O_28
REMARK    5  A    between atoms: C_15  and  O_18
REMARK    6  A    between atoms: C_16  and  O_20
REMARK    7  A    between atoms: C_17  and  O_22
REMARK                            x       y       z     vdW  Elec       q    Type
REMARK                         _______ _______ _______ _____ _____    ______ ____
ROOT
ATOM      1  O   UNL     1     -34.747  25.190   4.362  0.00  0.00    -0.450 OA
ATOM      2  O   UNL     1     -32.801  27.240   1.426  0.00  0.00    -0.283 OA
ATOM      3  C   UNL     1     -34.956  24.907   3.021  0.00  0.00    +0.182 A 
ATOM      4  C   UNL     1     -33.152  26.911   3.735  0.00  0.00    +0.110 A 
ATOM      5  C   UNL     1     -33.850  26.176   4.690  0.00  0.00    +0.155 A 
ATOM      6  C   UNL     1     -34.354  25.548   2.003  0.00  0.00    +0.208 A 
ATOM      7  C   UNL     1     -33.381  26.624   2.310  0.00  0.00    +0.238 A 
ATOM      8  C   UNL     1     -32.253  27.905   4.128  0.00  0.00    +0.143 C 
ATOM      9  C   UNL     1     -33.654  26.430   6.047  0.00  0.00    +0.074 C 
ATOM     10  C   UNL     1     -32.756  27.422   6.444  0.00  0.00    +0.140 C 
ATOM     11  C   UNL     1     -32.057  28.157   5.486  0.00  0.00    +0.073 C 
ENDROOT
BRANCH   3  12
ATOM     12  C   UNL     1     -35.940  23.832   2.809  0.00  0.00    +0.044 C 
ATOM     13  C   UNL     1     -37.298  24.139   2.707  0.00  0.00    +0.043 C 
ATOM     14  C   UNL     1     -35.516  22.506   2.706  0.00  0.00    +0.043 C 
ATOM     15  C   UNL     1     -36.449  21.489   2.501  0.00  0.00    +0.175 C 
ATOM     16  C   UNL     1     -38.231  23.121   2.504  0.00  0.00    +0.175 C 
ATOM     17  C   UNL     1     -37.806  21.797   2.401  0.00  0.00    +0.202 C 
BRANCH  15  18
ATOM     18  O   UNL     1     -36.022  20.200   2.402  0.00  0.00    -0.468 OA
ATOM     19  C   UNL     1     -34.723  19.987   1.855  0.00  0.00    +0.253 C 
ENDBRANCH  15  18
BRANCH  16  20
ATOM     20  O   UNL     1     -39.552  23.436   2.408  0.00  0.00    -0.468 OA
ATOM     21  C   UNL     1     -39.931  24.762   2.773  0.00  0.00    +0.253 C 
ENDBRANCH  16  20
BRANCH  17  22
ATOM     22  O   UNL     1     -38.718  20.803   2.201  0.00  0.00    -0.501 OA
ATOM     23  H   UNL     1     -38.472  19.909   2.337  0.00  0.00    +0.292 HD
ENDBRANCH  17  22
ENDBRANCH   3  12
BRANCH   6  24
ATOM     24  O   UNL     1     -34.609  25.264   0.679  0.00  0.00    -0.501 OA
ATOM     25  H   UNL     1     -33.898  25.134   0.082  0.00  0.00    +0.292 HD
ENDBRANCH   6  24
BRANCH   8  26
ATOM     26  O   UNL     1     -31.546  28.652   3.234  0.00  0.00    -0.505 OA
ATOM     27  H   UNL     1     -30.838  28.266   2.758  0.00  0.00    +0.292 HD
ENDBRANCH   8  26
BRANCH  10  28
ATOM     28  O   UNL     1     -32.561  27.672   7.768  0.00  0.00    -0.505 OA
ATOM     29  H   UNL     1     -33.214  28.132   8.259  0.00  0.00    +0.292 HD
ENDBRANCH  10  28
TORSDOF 7
ENDMDL
MODEL 6
REMARK VINA RESULT:      -5.9      3.622      7.534
REMARK  Name = 5281953
REMARK  7 active torsions:
REMARK  status: ('A' for Active; 'I' for Inactive)
REMARK    1  A    between atoms: C_3  and  C_12
REMARK    2  A    between atoms: C_6  and  O_24
REMARK    3  A    between atoms: C_8  and  O_26
REMARK    4  A    between atoms: C_10  and  O_28
REMARK    5  A    between atoms: C_15  and  O_18
REMARK    6  A    between atoms: C_16  and  O_20
REMARK    7  A    between atoms: C_17  and  O_22
REMARK                            x       y       z     vdW  Elec       q    Type
REMARK                         _______ _______ _______ _____ _____    ______ ____
ROOT
ATOM      1  O   UNL     1     -34.882  25.198   4.317  0.00  0.00    -0.450 OA
ATOM      2  O   UNL     1     -32.974  27.320   1.407  0.00  0.00    -0.283 OA
ATOM      3  C   UNL     1     -35.125  24.962   2.972  0.00  0.00    +0.182 A 
ATOM      4  C   UNL     1     -33.278  26.917   3.711  0.00  0.00    +0.110 A 
ATOM      5  C   UNL     1     -33.965  26.160   4.657  0.00  0.00    +0.155 A 
ATOM      6  C   UNL     1     -34.536  25.630   1.963  0.00  0.00    +0.208 A 
ATOM      7  C   UNL     1     -33.543  26.682   2.283  0.00  0.00    +0.238 A 
ATOM      8  C   UNL     1     -32.357  27.885   4.117  0.00  0.00    +0.143 C 
ATOM      9  C   UNL     1     -33.735  26.365   6.017  0.00  0.00    +0.074 C 
ATOM     10  C   UNL     1     -32.815  27.331   6.426  0.00  0.00    +0.140 C 
ATOM     11  C   UNL     1     -32.128  28.089   5.479  0.00  0.00    +0.073 C 
ENDROOT
BRANCH   3  12
ATOM     12  C   UNL     1     -36.128  23.908   2.746  0.00  0.00    +0.044 C 
ATOM     13  C   UNL     1     -35.718  22.592   2.528  0.00  0.00    +0.043 C 
ATOM     14  C   UNL     1     -37.487  24.223   2.752  0.00  0.00    +0.043 C 
ATOM     15  C   UNL     1     -38.437  23.223   2.540  0.00  0.00    +0.175 C 
ATOM     16  C   UNL     1     -36.668  21.591   2.315  0.00  0.00    +0.175 C 
ATOM     17  C   UNL     1     -38.027  21.907   2.321  0.00  0.00    +0.202 C 
BRANCH  15  18
ATOM     18  O   UNL     1     -39.760  23.543   2.549  0.00  0.00    -0.468 OA
ATOM     19  C   UNL     1     -40.094  24.914   2.755  0.00  0.00    +0.253 C 
ENDBRANCH  15  18
BRANCH  16  20
ATOM     20  O   UNL     1     -36.254  20.311   2.102  0.00  0.00    -0.468 OA
ATOM     21  C   UNL     1     -34.849  20.094   1.999  0.00  0.00    +0.253 C 
ENDBRANCH  16  20
BRANCH  17  22
ATOM     22  O   UNL     1     -38.954  20.929   2.115  0.00  0.00    -0.501 OA
ATOM     23  H   UNL     1     -39.680  21.086   1.543  0.00  0.00    +0.292 HD
ENDBRANCH  17  22
ENDBRANCH   3  12
BRANCH   6  24
ATOM     24  O   UNL     1     -34.825  25.393   0.636  0.00  0.00    -0.501 OA
ATOM     25  H   UNL     1     -34.398  25.893  -0.032  0.00  0.00    +0.292 HD
ENDBRANCH   6  24
BRANCH   8  26
ATOM     26  O   UNL     1     -31.660  28.653   3.233  0.00  0.00    -0.505 OA
ATOM     27  H   UNL     1     -30.780  28.910   3.428  0.00  0.00    +0.292 HD
ENDBRANCH   8  26
BRANCH  10  28
ATOM     28  O   UNL     1     -32.588  27.534   7.754  0.00  0.00    -0.505 OA
ATOM     29  H   UNL     1     -33.106  27.084   8.392  0.00  0.00    +0.292 HD
ENDBRANCH  10  28
TORSDOF 7
ENDMDL
MODEL 7
REMARK VINA RESULT:      -5.9      1.426      7.541
REMARK  Name = 5281953
REMARK  7 active torsions:
REMARK  status: ('A' for Active; 'I' for Inactive)
REMARK    1  A    between atoms: C_3  and  C_12
REMARK    2  A    between atoms: C_6  and  O_24
REMARK    3  A    between atoms: C_8  and  O_26
REMARK    4  A    between atoms: C_10  and  O_28
REMARK    5  A    between atoms: C_15  and  O_18
REMARK    6  A    between atoms: C_16  and  O_20
REMARK    7  A    between atoms: C_17  and  O_22
REMARK                            x       y       z     vdW  Elec       q    Type
REMARK                         _______ _______ _______ _____ _____    ______ ____
ROOT
ATOM      1  O   UNL     1     -35.980  22.551   1.232  0.00  0.00    -0.450 OA
ATOM      2  O   UNL     1     -36.231  23.113   5.261  0.00  0.00    -0.283 OA
ATOM      3  C   UNL     1     -35.674  21.535   2.124  0.00  0.00    +0.182 A 
ATOM      4  C   UNL     1     -36.498  24.016   3.098  0.00  0.00    +0.110 A 
ATOM      5  C   UNL     1     -36.389  23.761   1.733  0.00  0.00    +0.155 A 
ATOM      6  C   UNL     1     -35.728  21.655   3.463  0.00  0.00    +0.208 A 
ATOM      7  C   UNL     1     -36.160  22.946   4.050  0.00  0.00    +0.238 A 
ATOM      8  C   UNL     1     -36.917  25.268   3.551  0.00  0.00    +0.143 C 
ATOM      9  C   UNL     1     -36.700  24.759   0.810  0.00  0.00    +0.074 C 
ATOM     10  C   UNL     1     -37.121  26.011   1.258  0.00  0.00    +0.140 C 
ATOM     11  C   UNL     1     -37.229  26.266   2.625  0.00  0.00    +0.073 C 
ENDROOT
BRANCH   3  12
ATOM     12  C   UNL     1     -35.250  20.293   1.457  0.00  0.00    +0.044 C 
ATOM     13  C   UNL     1     -36.121  19.637   0.586  0.00  0.00    +0.043 C 
ATOM     14  C   UNL     1     -33.977  19.772   1.692  0.00  0.00    +0.043 C 
ATOM     15  C   UNL     1     -33.575  18.597   1.057  0.00  0.00    +0.175 C 
ATOM     16  C   UNL     1     -35.719  18.461  -0.049  0.00  0.00    +0.175 C 
ATOM     17  C   UNL     1     -34.447  17.941   0.187  0.00  0.00    +0.202 C 
BRANCH  15  18
ATOM     18  O   UNL     1     -32.329  18.100   1.294  0.00  0.00    -0.468 OA
ATOM     19  C   UNL     1     -31.254  18.655   0.540  0.00  0.00    +0.253 C 
ENDBRANCH  15  18
BRANCH  16  20
ATOM     20  O   UNL     1     -36.580  17.831  -0.895  0.00  0.00    -0.468 OA
ATOM     21  C   UNL     1     -37.647  17.092  -0.304  0.00  0.00    +0.253 C 
ENDBRANCH  16  20
BRANCH  17  22
ATOM     22  O   UNL     1     -34.054  16.793  -0.434  0.00  0.00    -0.501 OA
ATOM     23  H   UNL     1     -34.162  15.967  -0.004  0.00  0.00    +0.292 HD
ENDBRANCH  17  22
ENDBRANCH   3  12
BRANCH   6  24
ATOM     24  O   UNL     1     -35.385  20.635   4.324  0.00  0.00    -0.501 OA
ATOM     25  H   UNL     1     -35.704  19.767   4.172  0.00  0.00    +0.292 HD
ENDBRANCH   6  24
BRANCH   8  26
ATOM     26  O   UNL     1     -37.039  25.569   4.874  0.00  0.00    -0.505 OA
ATOM     27  H   UNL     1     -37.785  25.269   5.356  0.00  0.00    +0.292 HD
ENDBRANCH   8  26
BRANCH  10  28
ATOM     28  O   UNL     1     -37.426  26.988   0.359  0.00  0.00    -0.505 OA
ATOM     29  H   UNL     1     -37.456  26.789  -0.556  0.00  0.00    +0.292 HD
ENDBRANCH  10  28
TORSDOF 7
ENDMDL
MODEL 8
REMARK VINA RESULT:      -5.9      5.005      8.940
REMARK  Name = 5281953
REMARK  7 active torsions:
REMARK  status: ('A' for Active; 'I' for Inactive)
REMARK    1  A    between atoms: C_3  and  C_12
REMARK    2  A    between atoms: C_6  and  O_24
REMARK    3  A    between atoms: C_8  and  O_26
REMARK    4  A    between atoms: C_10  and  O_28
REMARK    5  A    between atoms: C_15  and  O_18
REMARK    6  A    between atoms: C_16  and  O_20
REMARK    7  A    between atoms: C_17  and  O_22
REMARK                            x       y       z     vdW  Elec       q    Type
REMARK                         _______ _______ _______ _____ _____    ______ ____
ROOT
ATOM      1  O   UNL     1     -33.115  26.758   4.863  0.00  0.00    -0.450 OA
ATOM      2  O   UNL     1     -33.785  29.928   2.390  0.00  0.00    -0.283 OA
ATOM      3  C   UNL     1     -33.955  26.654   3.765  0.00  0.00    +0.182 A 
ATOM      4  C   UNL     1     -32.677  29.076   4.291  0.00  0.00    +0.110 A 
ATOM      5  C   UNL     1     -32.492  27.957   5.098  0.00  0.00    +0.155 A 
ATOM      6  C   UNL     1     -34.226  27.661   2.914  0.00  0.00    +0.208 A 
ATOM      7  C   UNL     1     -33.580  28.976   3.133  0.00  0.00    +0.238 A 
ATOM      8  C   UNL     1     -32.018  30.273   4.581  0.00  0.00    +0.143 C 
ATOM      9  C   UNL     1     -31.645  28.026   6.204  0.00  0.00    +0.074 C 
ATOM     10  C   UNL     1     -30.984  29.220   6.497  0.00  0.00    +0.140 C 
ATOM     11  C   UNL     1     -31.170  30.340   5.688  0.00  0.00    +0.073 C 
ENDROOT
BRANCH   3  12
ATOM     12  C   UNL     1     -34.558  25.317   3.628  0.00  0.00    +0.044 C 
ATOM     13  C   UNL     1     -35.097  24.677   4.745  0.00  0.00    +0.043 C 
ATOM     14  C   UNL     1     -34.594  24.691   2.382  0.00  0.00    +0.043 C 
ATOM     15  C   UNL     1     -35.168  23.426   2.252  0.00  0.00    +0.175 C 
ATOM     16  C   UNL     1     -35.670  23.411   4.616  0.00  0.00    +0.175 C 
ATOM     17  C   UNL     1     -35.705  22.786   3.370  0.00  0.00    +0.202 C 
BRANCH  15  18
ATOM     18  O   UNL     1     -35.197  22.825   1.030  0.00  0.00    -0.468 OA
ATOM     19  C   UNL     1     -33.991  22.211   0.581  0.00  0.00    +0.253 C 
ENDBRANCH  15  18
BRANCH  16  20
ATOM     20  O   UNL     1     -36.191  22.798   5.715  0.00  0.00    -0.468 OA
ATOM     21  C   UNL     1     -35.294  22.033   6.516  0.00  0.00    +0.253 C 
ENDBRANCH  16  20
BRANCH  17  22
ATOM     22  O   UNL     1     -36.266  21.550   3.243  0.00  0.00    -0.501 OA
ATOM     23  H   UNL     1     -36.071  20.881   3.870  0.00  0.00    +0.292 HD
ENDBRANCH  17  22
ENDBRANCH   3  12
BRANCH   6  24
ATOM     24  O   UNL     1     -35.092  27.533   1.850  0.00  0.00    -0.501 OA
ATOM     25  H   UNL     1     -35.866  27.011   1.936  0.00  0.00    +0.292 HD
ENDBRANCH   6  24
BRANCH   8  26
ATOM     26  O   UNL     1     -32.165  31.396   3.824  0.00  0.00    -0.505 OA
ATOM     27  H   UNL     1     -31.518  32.073   3.859  0.00  0.00    +0.292 HD
ENDBRANCH   8  26
BRANCH  10  28
ATOM     28  O   UNL     1     -30.155  29.290   7.576  0.00  0.00    -0.505 OA
ATOM     29  H   UNL     1     -30.423  28.927   8.397  0.00  0.00    +0.292 HD
ENDBRANCH  10  28
TORSDOF 7
ENDMDL
MODEL 9
REMARK VINA RESULT:      -5.9      3.693      7.739
REMARK  Name = 5281953
REMARK  7 active torsions:
REMARK  status: ('A' for Active; 'I' for Inactive)
REMARK    1  A    between atoms: C_3  and  C_12
REMARK    2  A    between atoms: C_6  and  O_24
REMARK    3  A    between atoms: C_8  and  O_26
REMARK    4  A    between atoms: C_10  and  O_28
REMARK    5  A    between atoms: C_15  and  O_18
REMARK    6  A    between atoms: C_16  and  O_20
REMARK    7  A    between atoms: C_17  and  O_22
REMARK                            x       y       z     vdW  Elec       q    Type
REMARK                         _______ _______ _______ _____ _____    ______ ____
ROOT
ATOM      1  O   UNL     1     -34.482  25.622   2.624  0.00  0.00    -0.450 OA
ATOM      2  O   UNL     1     -33.707  26.603   6.503  0.00  0.00    -0.283 OA
ATOM      3  C   UNL     1     -35.022  24.898   3.675  0.00  0.00    +0.182 A 
ATOM      4  C   UNL     1     -33.382  27.087   4.218  0.00  0.00    +0.110 A 
ATOM      5  C   UNL     1     -33.683  26.699   2.914  0.00  0.00    +0.155 A 
ATOM      6  C   UNL     1     -34.802  25.162   4.976  0.00  0.00    +0.208 A 
ATOM      7  C   UNL     1     -33.940  26.313   5.337  0.00  0.00    +0.238 A 
ATOM      8  C   UNL     1     -32.560  28.191   4.453  0.00  0.00    +0.143 C 
ATOM      9  C   UNL     1     -33.163  27.414   1.835  0.00  0.00    +0.074 C 
ATOM     10  C   UNL     1     -32.342  28.518   2.066  0.00  0.00    +0.140 C 
ATOM     11  C   UNL     1     -32.041  28.906   3.372  0.00  0.00    +0.073 C 
ENDROOT
BRANCH   3  12
ATOM     12  C   UNL     1     -35.858  23.771   3.226  0.00  0.00    +0.044 C 
ATOM     13  C   UNL     1     -35.305  22.495   3.114  0.00  0.00    +0.043 C 
ATOM     14  C   UNL     1     -37.202  23.978   2.915  0.00  0.00    +0.043 C 
ATOM     15  C   UNL     1     -37.994  22.910   2.492  0.00  0.00    +0.175 C 
ATOM     16  C   UNL     1     -36.097  21.426   2.691  0.00  0.00    +0.175 C 
ATOM     17  C   UNL     1     -37.440  21.634   2.380  0.00  0.00    +0.202 C 
BRANCH  15  18
ATOM     18  O   UNL     1     -39.304  23.125   2.192  0.00  0.00    -0.468 OA
ATOM     19  C   UNL     1     -39.866  24.372   2.595  0.00  0.00    +0.253 C 
ENDBRANCH  15  18
BRANCH  16  20
ATOM     20  O   UNL     1     -35.544  20.186   2.586  0.00  0.00    -0.468 OA
ATOM     21  C   UNL     1     -34.550  20.002   1.580  0.00  0.00    +0.253 C 
ENDBRANCH  16  20
BRANCH  17  22
ATOM     22  O   UNL     1     -38.214  20.589   1.967  0.00  0.00    -0.501 OA
ATOM     23  H   UNL     1     -37.962  20.088   1.217  0.00  0.00    +0.292 HD
ENDBRANCH  17  22
ENDBRANCH   3  12
BRANCH   6  24
ATOM     24  O   UNL     1     -35.329  24.401   5.997  0.00  0.00    -0.501 OA
ATOM     25  H   UNL     1     -35.029  24.526   6.876  0.00  0.00    +0.292 HD
ENDBRANCH   6  24
BRANCH   8  26
ATOM     26  O   UNL     1     -32.234  28.612   5.707  0.00  0.00    -0.505 OA
ATOM     27  H   UNL     1     -32.274  28.013   6.427  0.00  0.00    +0.292 HD
ENDBRANCH   8  26
BRANCH  10  28
ATOM     28  O   UNL     1     -31.833  29.219   1.015  0.00  0.00    -0.505 OA
ATOM     29  H   UNL     1     -32.214  30.039   0.770  0.00  0.00    +0.292 HD
ENDBRANCH  10  28
TORSDOF 7
ENDMDL
