MODEL 1
REMARK VINA RESULT:      -4.9      0.000      0.000
REMARK  Name = 193187
REMARK  11 active torsions:
REMARK  status: ('A' for Active; 'I' for Inactive)
REMARK    1  A    between atoms: CA_1  and  N_2
REMARK    2  A    between atoms: CA_1  and  C_12
REMARK    3  A    between atoms: CA_1  and  CB_15
REMARK    4  A    between atoms: N_2  and  CA_5
REMARK    5  A    between atoms: CA_5  and  C_8
REMARK    6  A    between atoms: C_8  and  O_9
REMARK    7  A    between atoms: C_12  and  O_13
REMARK    8  A    between atoms: CB_15  and  CG_16
REMARK    9  A    between atoms: CG_16  and  CD_17
REMARK   10  A    between atoms: CD_17  and  CE_18
REMARK   11  A    between atoms: CE_18  and  NZ_19
REMARK                            x       y       z     vdW  Elec       q    Type
REMARK                         _______ _______ _______ _____ _____    ______ ____
ROOT
ATOM      1  CA  ALA A   1     -36.239  22.051   2.606  0.00  0.00    +0.040 C 
ENDROOT
BRANCH   1   2
ATOM      2  N   ALA A   1     -37.607  22.171   3.113  0.00  0.00    +0.400 N 
ATOM      3  H1  ALA A   1     -37.585  22.596   4.040  0.00  0.00    -0.083 HD
ATOM      4  H2  ALA A   1     -38.022  21.240   3.161  0.00  0.00    -0.083 HD
BRANCH   2   5
ATOM      5  CA  ALA A   1     -38.412  22.996   2.228  0.00  0.00    +0.040 C 
ATOM      6  CB  ALA A   1     -38.775  24.299   2.929  0.00  0.00    -0.012 C 
BRANCH   5   8
ATOM      7  OXT ALA A   1     -40.625  22.642   1.249  0.00  0.00    -0.253 OA
ATOM      8  C   ALA A   1     -39.658  22.217   1.862  0.00  0.00    +0.293 C 
BRANCH   8   9
ATOM      9  O   ALA A   1     -39.560  20.935   2.303  0.00  0.00    -0.482 OA
ATOM     10  H   ALA A   1     -39.016  20.732   3.039  0.00  0.00    +0.295 HD
ENDBRANCH   8   9
ENDBRANCH   5   8
ENDBRANCH   2   5
ENDBRANCH   1   2
BRANCH   1  12
ATOM     11  OXT ALA A   1     -34.713  20.182   2.664  0.00  0.00    -0.253 OA
ATOM     12  C   ALA A   1     -35.870  20.582   2.624  0.00  0.00    +0.293 C 
BRANCH  12  13
ATOM     13  O   ALA A   1     -36.934  19.743   2.571  0.00  0.00    -0.482 OA
ATOM     14  H   ALA A   1     -36.866  18.926   2.117  0.00  0.00    +0.295 HD
ENDBRANCH  12  13
ENDBRANCH   1  12
BRANCH   1  15
ATOM     15  CB  ALA A   1     -35.267  22.924   3.410  0.00  0.00    -0.011 C 
BRANCH  15  16
ATOM     16  CG  ALA A   1     -35.520  22.940   4.923  0.00  0.00    -0.004 C 
BRANCH  16  17
ATOM     17  CD  ALA A   1     -35.319  24.316   5.564  0.00  0.00    -0.024 C 
BRANCH  17  18
ATOM     18  CE  ALA A   1     -35.656  25.435   4.578  0.00  0.00    -0.086 C 
BRANCH  18  19
ATOM     19  NZ  ALA A   1     -36.454  26.463   5.233  0.00  0.00    +0.380 N 
ATOM     20  HZ1 ALA A   1     -36.170  27.382   4.893  0.00  0.00    -0.089 HD
ATOM     21  HZ2 ALA A   1     -36.310  26.415   6.242  0.00  0.00    -0.089 HD
ATOM     22  HZ3 ALA A   1     -37.442  26.313   5.023  0.00  0.00    -0.089 HD
ENDBRANCH  18  19
ENDBRANCH  17  18
ENDBRANCH  16  17
ENDBRANCH  15  16
ENDBRANCH   1  15
TORSDOF 11
ENDMDL
MODEL 2
REMARK VINA RESULT:      -4.9      2.206      2.714
REMARK  Name = 193187
REMARK  11 active torsions:
REMARK  status: ('A' for Active; 'I' for Inactive)
REMARK    1  A    between atoms: CA_1  and  N_2
REMARK    2  A    between atoms: CA_1  and  C_12
REMARK    3  A    between atoms: CA_1  and  CB_15
REMARK    4  A    between atoms: N_2  and  CA_5
REMARK    5  A    between atoms: CA_5  and  C_8
REMARK    6  A    between atoms: C_8  and  O_9
REMARK    7  A    between atoms: C_12  and  O_13
REMARK    8  A    between atoms: CB_15  and  CG_16
REMARK    9  A    between atoms: CG_16  and  CD_17
REMARK   10  A    between atoms: CD_17  and  CE_18
REMARK   11  A    between atoms: CE_18  and  NZ_19
REMARK                            x       y       z     vdW  Elec       q    Type
REMARK                         _______ _______ _______ _____ _____    ______ ____
ROOT
ATOM      1  CA  ALA A   1     -35.731  22.740   4.253  0.00  0.00    +0.040 C 
ENDROOT
BRANCH   1   2
ATOM      2  N   ALA A   1     -37.110  22.845   3.774  0.00  0.00    +0.400 N 
ATOM      3  H1  ALA A   1     -37.692  23.240   4.512  0.00  0.00    -0.083 HD
ATOM      4  H2  ALA A   1     -37.442  21.913   3.523  0.00  0.00    -0.083 HD
BRANCH   2   5
ATOM      5  CA  ALA A   1     -37.183  23.699   2.600  0.00  0.00    +0.040 C 
ATOM      6  CB  ALA A   1     -35.788  23.896   2.020  0.00  0.00    -0.012 C 
BRANCH   5   8
ATOM      7  OXT ALA A   1     -37.597  26.107   2.484  0.00  0.00    -0.253 OA
ATOM      8  C   ALA A   1     -37.784  25.024   3.019  0.00  0.00    +0.293 C 
BRANCH   8   9
ATOM      9  O   ALA A   1     -38.599  24.855   4.094  0.00  0.00    -0.482 OA
ATOM     10  H   ALA A   1     -39.306  25.451   4.245  0.00  0.00    +0.295 HD
ENDBRANCH   8   9
ENDBRANCH   5   8
ENDBRANCH   2   5
ENDBRANCH   1   2
BRANCH   1  12
ATOM     11  OXT ALA A   1     -35.286  20.540   3.366  0.00  0.00    -0.253 OA
ATOM     12  C   ALA A   1     -35.389  21.268   4.347  0.00  0.00    +0.293 C 
BRANCH  12  13
ATOM     13  O   ALA A   1     -35.224  20.816   5.615  0.00  0.00    -0.482 OA
ATOM     14  H   ALA A   1     -35.722  20.084   5.921  0.00  0.00    +0.295 HD
ENDBRANCH  12  13
ENDBRANCH   1  12
BRANCH   1  15
ATOM     15  CB  ALA A   1     -35.542  23.487   5.579  0.00  0.00    -0.011 C 
BRANCH  15  16
ATOM     16  CG  ALA A   1     -34.517  24.628   5.532  0.00  0.00    -0.004 C 
BRANCH  16  17
ATOM     17  CD  ALA A   1     -35.145  26.007   5.307  0.00  0.00    -0.024 C 
BRANCH  17  18
ATOM     18  CE  ALA A   1     -34.510  26.710   4.108  0.00  0.00    -0.086 C 
BRANCH  18  19
ATOM     19  NZ  ALA A   1     -35.351  27.815   3.666  0.00  0.00    +0.380 N 
ATOM     20  HZ1 ALA A   1     -34.807  28.441   3.073  0.00  0.00    -0.089 HD
ATOM     21  HZ2 ALA A   1     -35.693  28.329   4.478  0.00  0.00    -0.089 HD
ATOM     22  HZ3 ALA A   1     -36.144  27.449   3.137  0.00  0.00    -0.089 HD
ENDBRANCH  18  19
ENDBRANCH  17  18
ENDBRANCH  16  17
ENDBRANCH  15  16
ENDBRANCH   1  15
TORSDOF 11
ENDMDL
MODEL 3
REMARK VINA RESULT:      -4.8      1.937      2.799
REMARK  Name = 193187
REMARK  11 active torsions:
REMARK  status: ('A' for Active; 'I' for Inactive)
REMARK    1  A    between atoms: CA_1  and  N_2
REMARK    2  A    between atoms: CA_1  and  C_12
REMARK    3  A    between atoms: CA_1  and  CB_15
REMARK    4  A    between atoms: N_2  and  CA_5
REMARK    5  A    between atoms: CA_5  and  C_8
REMARK    6  A    between atoms: C_8  and  O_9
REMARK    7  A    between atoms: C_12  and  O_13
REMARK    8  A    between atoms: CB_15  and  CG_16
REMARK    9  A    between atoms: CG_16  and  CD_17
REMARK   10  A    between atoms: CD_17  and  CE_18
REMARK   11  A    between atoms: CE_18  and  NZ_19
REMARK                            x       y       z     vdW  Elec       q    Type
REMARK                         _______ _______ _______ _____ _____    ______ ____
ROOT
ATOM      1  CA  ALA A   1     -35.674  22.879   4.565  0.00  0.00    +0.040 C 
ENDROOT
BRANCH   1   2
ATOM      2  N   ALA A   1     -36.816  22.535   3.717  0.00  0.00    +0.400 N 
ATOM      3  H1  ALA A   1     -37.453  23.330   3.673  0.00  0.00    -0.083 HD
ATOM      4  H2  ALA A   1     -37.289  21.725   4.118  0.00  0.00    -0.083 HD
BRANCH   2   5
ATOM      5  CA  ALA A   1     -36.376  22.201   2.372  0.00  0.00    +0.040 C 
ATOM      6  CB  ALA A   1     -36.714  23.342   1.422  0.00  0.00    -0.012 C 
BRANCH   5   8
ATOM      7  OXT ALA A   1     -37.886  20.808   1.046  0.00  0.00    -0.253 OA
ATOM      8  C   ALA A   1     -37.075  20.925   1.952  0.00  0.00    +0.293 C 
BRANCH   8   9
ATOM      9  O   ALA A   1     -36.665  19.884   2.724  0.00  0.00    -0.482 OA
ATOM     10  H   ALA A   1     -35.928  19.985   3.294  0.00  0.00    +0.295 HD
ENDBRANCH   8   9
ENDBRANCH   5   8
ENDBRANCH   2   5
ENDBRANCH   1   2
BRANCH   1  12
ATOM     11  OXT ALA A   1     -35.938  22.068   6.822  0.00  0.00    -0.253 OA
ATOM     12  C   ALA A   1     -35.593  21.845   5.668  0.00  0.00    +0.293 C 
BRANCH  12  13
ATOM     13  O   ALA A   1     -35.085  20.651   5.273  0.00  0.00    -0.482 OA
ATOM     14  H   ALA A   1     -35.288  19.873   5.754  0.00  0.00    +0.295 HD
ENDBRANCH  12  13
ENDBRANCH   1  12
BRANCH   1  15
ATOM     15  CB  ALA A   1     -35.783  24.315   5.093  0.00  0.00    -0.011 C 
BRANCH  15  16
ATOM     16  CG  ALA A   1     -34.448  24.949   5.507  0.00  0.00    -0.004 C 
BRANCH  16  17
ATOM     17  CD  ALA A   1     -34.202  26.324   4.878  0.00  0.00    -0.024 C 
BRANCH  17  18
ATOM     18  CE  ALA A   1     -35.267  26.647   3.831  0.00  0.00    -0.086 C 
BRANCH  18  19
ATOM     19  NZ  ALA A   1     -35.241  28.067   3.504  0.00  0.00    +0.380 N 
ATOM     20  HZ1 ALA A   1     -36.192  28.396   3.342  0.00  0.00    -0.089 HD
ATOM     21  HZ2 ALA A   1     -34.683  28.212   2.662  0.00  0.00    -0.089 HD
ATOM     22  HZ3 ALA A   1     -34.827  28.587   4.279  0.00  0.00    -0.089 HD
ENDBRANCH  18  19
ENDBRANCH  17  18
ENDBRANCH  16  17
ENDBRANCH  15  16
ENDBRANCH   1  15
TORSDOF 11
ENDMDL
MODEL 4
REMARK VINA RESULT:      -4.8      1.503      1.713
REMARK  Name = 193187
REMARK  11 active torsions:
REMARK  status: ('A' for Active; 'I' for Inactive)
REMARK    1  A    between atoms: CA_1  and  N_2
REMARK    2  A    between atoms: CA_1  and  C_12
REMARK    3  A    between atoms: CA_1  and  CB_15
REMARK    4  A    between atoms: N_2  and  CA_5
REMARK    5  A    between atoms: CA_5  and  C_8
REMARK    6  A    between atoms: C_8  and  O_9
REMARK    7  A    between atoms: C_12  and  O_13
REMARK    8  A    between atoms: CB_15  and  CG_16
REMARK    9  A    between atoms: CG_16  and  CD_17
REMARK   10  A    between atoms: CD_17  and  CE_18
REMARK   11  A    between atoms: CE_18  and  NZ_19
REMARK                            x       y       z     vdW  Elec       q    Type
REMARK                         _______ _______ _______ _____ _____    ______ ____
ROOT
ATOM      1  CA  ALA A   1     -36.425  22.060   2.364  0.00  0.00    +0.040 C 
ENDROOT
BRANCH   1   2
ATOM      2  N   ALA A   1     -37.756  22.250   2.941  0.00  0.00    +0.400 N 
ATOM      3  H1  ALA A   1     -37.685  22.866   3.751  0.00  0.00    -0.083 HD
ATOM      4  H2  ALA A   1     -38.126  21.341   3.219  0.00  0.00    -0.083 HD
BRANCH   2   5
ATOM      5  CA  ALA A   1     -38.658  22.844   1.967  0.00  0.00    +0.040 C 
ATOM      6  CB  ALA A   1     -39.581  23.838   2.660  0.00  0.00    -0.012 C 
BRANCH   5   8
ATOM      7  OXT ALA A   1     -39.566  21.515   0.125  0.00  0.00    -0.253 OA
ATOM      8  C   ALA A   1     -39.455  21.729   1.323  0.00  0.00    +0.293 C 
BRANCH   8   9
ATOM      9  O   ALA A   1     -40.044  20.957   2.276  0.00  0.00    -0.482 OA
ATOM     10  H   ALA A   1     -40.648  20.285   2.027  0.00  0.00    +0.295 HD
ENDBRANCH   8   9
ENDBRANCH   5   8
ENDBRANCH   2   5
ENDBRANCH   1   2
BRANCH   1  12
ATOM     11  OXT ALA A   1     -34.846  20.313   2.895  0.00  0.00    -0.253 OA
ATOM     12  C   ALA A   1     -36.002  20.633   2.645  0.00  0.00    +0.293 C 
BRANCH  12  13
ATOM     13  O   ALA A   1     -37.014  19.732   2.578  0.00  0.00    -0.482 OA
ATOM     14  H   ALA A   1     -37.861  19.999   2.279  0.00  0.00    +0.295 HD
ENDBRANCH  12  13
ENDBRANCH   1  12
BRANCH   1  15
ATOM     15  CB  ALA A   1     -35.430  23.098   2.898  0.00  0.00    -0.011 C 
BRANCH  15  16
ATOM     16  CG  ALA A   1     -35.845  23.764   4.217  0.00  0.00    -0.004 C 
BRANCH  16  17
ATOM     17  CD  ALA A   1     -34.805  23.617   5.331  0.00  0.00    -0.024 C 
BRANCH  17  18
ATOM     18  CE  ALA A   1     -34.804  22.197   5.898  0.00  0.00    -0.086 C 
BRANCH  18  19
ATOM     19  NZ  ALA A   1     -36.148  21.817   6.315  0.00  0.00    +0.380 N 
ATOM     20  HZ1 ALA A   1     -36.806  22.018   5.564  0.00  0.00    -0.089 HD
ATOM     21  HZ2 ALA A   1     -36.408  22.347   7.147  0.00  0.00    -0.089 HD
ATOM     22  HZ3 ALA A   1     -36.168  20.819   6.528  0.00  0.00    -0.089 HD
ENDBRANCH  18  19
ENDBRANCH  17  18
ENDBRANCH  16  17
ENDBRANCH  15  16
ENDBRANCH   1  15
TORSDOF 11
ENDMDL
MODEL 5
REMARK VINA RESULT:      -4.5      3.234      5.050
REMARK  Name = 193187
REMARK  11 active torsions:
REMARK  status: ('A' for Active; 'I' for Inactive)
REMARK    1  A    between atoms: CA_1  and  N_2
REMARK    2  A    between atoms: CA_1  and  C_12
REMARK    3  A    between atoms: CA_1  and  CB_15
REMARK    4  A    between atoms: N_2  and  CA_5
REMARK    5  A    between atoms: CA_5  and  C_8
REMARK    6  A    between atoms: C_8  and  O_9
REMARK    7  A    between atoms: C_12  and  O_13
REMARK    8  A    between atoms: CB_15  and  CG_16
REMARK    9  A    between atoms: CG_16  and  CD_17
REMARK   10  A    between atoms: CD_17  and  CE_18
REMARK   11  A    between atoms: CE_18  and  NZ_19
REMARK                            x       y       z     vdW  Elec       q    Type
REMARK                         _______ _______ _______ _____ _____    ______ ____
ROOT
ATOM      1  CA  ALA A   1     -35.616  22.813   4.396  0.00  0.00    +0.040 C 
ENDROOT
BRANCH   1   2
ATOM      2  N   ALA A   1     -34.588  23.836   4.598  0.00  0.00    +0.400 N 
ATOM      3  H1  ALA A   1     -33.734  23.550   4.120  0.00  0.00    -0.083 HD
ATOM      4  H2  ALA A   1     -34.417  23.936   5.598  0.00  0.00    -0.083 HD
BRANCH   2   5
ATOM      5  CA  ALA A   1     -35.027  25.117   4.068  0.00  0.00    +0.040 C 
ATOM      6  CB  ALA A   1     -34.034  25.609   3.023  0.00  0.00    -0.012 C 
BRANCH   5   8
ATOM      7  OXT ALA A   1     -34.204  26.473   5.930  0.00  0.00    -0.253 OA
ATOM      8  C   ALA A   1     -35.124  26.094   5.221  0.00  0.00    +0.293 C 
BRANCH   8   9
ATOM      9  O   ALA A   1     -36.406  26.524   5.369  0.00  0.00    -0.482 OA
ATOM     10  H   ALA A   1     -36.827  26.465   6.205  0.00  0.00    +0.295 HD
ENDBRANCH   8   9
ENDBRANCH   5   8
ENDBRANCH   2   5
ENDBRANCH   1   2
BRANCH   1  12
ATOM     11  OXT ALA A   1     -35.954  22.215   6.710  0.00  0.00    -0.253 OA
ATOM     12  C   ALA A   1     -35.579  21.884   5.592  0.00  0.00    +0.293 C 
BRANCH  12  13
ATOM     13  O   ALA A   1     -35.075  20.654   5.322  0.00  0.00    -0.482 OA
ATOM     14  H   ALA A   1     -35.265  19.934   5.891  0.00  0.00    +0.295 HD
ENDBRANCH  12  13
ENDBRANCH   1  12
BRANCH   1  15
ATOM     15  CB  ALA A   1     -35.425  22.083   3.061  0.00  0.00    -0.011 C 
BRANCH  15  16
ATOM     16  CG  ALA A   1     -36.612  22.193   2.094  0.00  0.00    -0.004 C 
BRANCH  16  17
ATOM     17  CD  ALA A   1     -37.825  22.911   2.692  0.00  0.00    -0.024 C 
BRANCH  17  18
ATOM     18  CE  ALA A   1     -39.112  22.502   1.977  0.00  0.00    -0.086 C 
BRANCH  18  19
ATOM     19  NZ  ALA A   1     -39.403  21.095   2.222  0.00  0.00    +0.380 N 
ATOM     20  HZ1 ALA A   1     -38.725  20.718   2.883  0.00  0.00    -0.089 HD
ATOM     21  HZ2 ALA A   1     -39.347  20.578   1.345  0.00  0.00    -0.089 HD
ATOM     22  HZ3 ALA A   1     -40.343  21.005   2.610  0.00  0.00    -0.089 HD
ENDBRANCH  18  19
ENDBRANCH  17  18
ENDBRANCH  16  17
ENDBRANCH  15  16
ENDBRANCH   1  15
TORSDOF 11
ENDMDL
MODEL 6
REMARK VINA RESULT:      -4.5      2.792      5.097
REMARK  Name = 193187
REMARK  11 active torsions:
REMARK  status: ('A' for Active; 'I' for Inactive)
REMARK    1  A    between atoms: CA_1  and  N_2
REMARK    2  A    between atoms: CA_1  and  C_12
REMARK    3  A    between atoms: CA_1  and  CB_15
REMARK    4  A    between atoms: N_2  and  CA_5
REMARK    5  A    between atoms: CA_5  and  C_8
REMARK    6  A    between atoms: C_8  and  O_9
REMARK    7  A    between atoms: C_12  and  O_13
REMARK    8  A    between atoms: CB_15  and  CG_16
REMARK    9  A    between atoms: CG_16  and  CD_17
REMARK   10  A    between atoms: CD_17  and  CE_18
REMARK   11  A    between atoms: CE_18  and  NZ_19
REMARK                            x       y       z     vdW  Elec       q    Type
REMARK                         _______ _______ _______ _____ _____    ______ ____
ROOT
ATOM      1  CA  ALA A   1     -36.377  22.230   2.811  0.00  0.00    +0.040 C 
ENDROOT
BRANCH   1   2
ATOM      2  N   ALA A   1     -36.763  22.621   4.168  0.00  0.00    +0.400 N 
ATOM      3  H1  ALA A   1     -36.962  21.783   4.714  0.00  0.00    -0.083 HD
ATOM      4  H2  ALA A   1     -37.591  23.215   4.116  0.00  0.00    -0.083 HD
BRANCH   2   5
ATOM      5  CA  ALA A   1     -35.693  23.368   4.811  0.00  0.00    +0.040 C 
ATOM      6  CB  ALA A   1     -35.275  22.664   6.096  0.00  0.00    -0.012 C 
BRANCH   5   8
ATOM      7  OXT ALA A   1     -35.602  25.645   5.698  0.00  0.00    -0.253 OA
ATOM      8  C   ALA A   1     -36.203  24.763   5.103  0.00  0.00    +0.293 C 
BRANCH   8   9
ATOM      9  O   ALA A   1     -37.453  24.927   4.592  0.00  0.00    -0.482 OA
ATOM     10  H   ALA A   1     -37.583  25.464   3.835  0.00  0.00    +0.295 HD
ENDBRANCH   8   9
ENDBRANCH   5   8
ENDBRANCH   2   5
ENDBRANCH   1   2
BRANCH   1  12
ATOM     11  OXT ALA A   1     -38.117  22.778   1.230  0.00  0.00    -0.253 OA
ATOM     12  C   ALA A   1     -37.649  21.975   2.029  0.00  0.00    +0.293 C 
BRANCH  12  13
ATOM     13  O   ALA A   1     -38.239  20.785   2.302  0.00  0.00    -0.482 OA
ATOM     14  H   ALA A   1     -37.866  20.213   2.945  0.00  0.00    +0.295 HD
ENDBRANCH  12  13
ENDBRANCH   1  12
BRANCH   1  15
ATOM     15  CB  ALA A   1     -35.428  21.026   2.825  0.00  0.00    -0.011 C 
BRANCH  15  16
ATOM     16  CG  ALA A   1     -34.675  20.788   1.509  0.00  0.00    -0.004 C 
BRANCH  16  17
ATOM     17  CD  ALA A   1     -34.635  19.317   1.084  0.00  0.00    -0.024 C 
BRANCH  17  18
ATOM     18  CE  ALA A   1     -35.740  19.007   0.074  0.00  0.00    -0.086 C 
BRANCH  18  19
ATOM     19  NZ  ALA A   1     -36.936  18.536   0.760  0.00  0.00    +0.380 N 
ATOM     20  HZ1 ALA A   1     -36.992  17.521   0.687  0.00  0.00    -0.089 HD
ATOM     21  HZ2 ALA A   1     -37.761  18.954   0.332  0.00  0.00    -0.089 HD
ATOM     22  HZ3 ALA A   1     -36.891  18.805   1.744  0.00  0.00    -0.089 HD
ENDBRANCH  18  19
ENDBRANCH  17  18
ENDBRANCH  16  17
ENDBRANCH  15  16
ENDBRANCH   1  15
TORSDOF 11
ENDMDL
MODEL 7
REMARK VINA RESULT:      -4.5      2.498      4.430
REMARK  Name = 193187
REMARK  11 active torsions:
REMARK  status: ('A' for Active; 'I' for Inactive)
REMARK    1  A    between atoms: CA_1  and  N_2
REMARK    2  A    between atoms: CA_1  and  C_12
REMARK    3  A    between atoms: CA_1  and  CB_15
REMARK    4  A    between atoms: N_2  and  CA_5
REMARK    5  A    between atoms: CA_5  and  C_8
REMARK    6  A    between atoms: C_8  and  O_9
REMARK    7  A    between atoms: C_12  and  O_13
REMARK    8  A    between atoms: CB_15  and  CG_16
REMARK    9  A    between atoms: CG_16  and  CD_17
REMARK   10  A    between atoms: CD_17  and  CE_18
REMARK   11  A    between atoms: CE_18  and  NZ_19
REMARK                            x       y       z     vdW  Elec       q    Type
REMARK                         _______ _______ _______ _____ _____    ______ ____
ROOT
ATOM      1  CA  ALA A   1     -36.903  24.396   3.570  0.00  0.00    +0.040 C 
ENDROOT
BRANCH   1   2
ATOM      2  N   ALA A   1     -37.018  22.950   3.763  0.00  0.00    +0.400 N 
ATOM      3  H1  ALA A   1     -37.467  22.537   2.946  0.00  0.00    -0.083 HD
ATOM      4  H2  ALA A   1     -37.574  22.773   4.599  0.00  0.00    -0.083 HD
BRANCH   2   5
ATOM      5  CA  ALA A   1     -35.705  22.350   3.940  0.00  0.00    +0.040 C 
ATOM      6  CB  ALA A   1     -35.585  21.108   3.066  0.00  0.00    -0.012 C 
BRANCH   5   8
ATOM      7  OXT ALA A   1     -35.727  22.741   6.354  0.00  0.00    -0.253 OA
ATOM      8  C   ALA A   1     -35.543  21.996   5.403  0.00  0.00    +0.293 C 
BRANCH   8   9
ATOM      9  O   ALA A   1     -35.167  20.696   5.537  0.00  0.00    -0.482 OA
ATOM     10  H   ALA A   1     -35.699  20.102   6.029  0.00  0.00    +0.295 HD
ENDBRANCH   8   9
ENDBRANCH   5   8
ENDBRANCH   2   5
ENDBRANCH   1   2
BRANCH   1  12
ATOM     11  OXT ALA A   1     -39.307  24.253   3.397  0.00  0.00    -0.253 OA
ATOM     12  C   ALA A   1     -38.307  24.957   3.468  0.00  0.00    +0.293 C 
BRANCH  12  13
ATOM     13  O   ALA A   1     -38.361  26.312   3.441  0.00  0.00    -0.482 OA
ATOM     14  H   ALA A   1     -38.178  26.773   2.646  0.00  0.00    +0.295 HD
ENDBRANCH  12  13
ENDBRANCH   1  12
BRANCH   1  15
ATOM     15  CB  ALA A   1     -36.032  24.731   2.354  0.00  0.00    -0.011 C 
BRANCH  15  16
ATOM     16  CG  ALA A   1     -34.999  25.841   2.590  0.00  0.00    -0.004 C 
BRANCH  16  17
ATOM     17  CD  ALA A   1     -33.851  25.424   3.514  0.00  0.00    -0.024 C 
BRANCH  17  18
ATOM     18  CE  ALA A   1     -33.810  26.297   4.768  0.00  0.00    -0.086 C 
BRANCH  18  19
ATOM     19  NZ  ALA A   1     -34.516  25.644   5.863  0.00  0.00    +0.380 N 
ATOM     20  HZ1 ALA A   1     -33.896  24.971   6.313  0.00  0.00    -0.089 HD
ATOM     21  HZ2 ALA A   1     -35.336  25.160   5.499  0.00  0.00    -0.089 HD
ATOM     22  HZ3 ALA A   1     -34.810  26.345   6.544  0.00  0.00    -0.089 HD
ENDBRANCH  18  19
ENDBRANCH  17  18
ENDBRANCH  16  17
ENDBRANCH  15  16
ENDBRANCH   1  15
TORSDOF 11
ENDMDL
MODEL 8
REMARK VINA RESULT:      -4.5      2.087      3.720
REMARK  Name = 193187
REMARK  11 active torsions:
REMARK  status: ('A' for Active; 'I' for Inactive)
REMARK    1  A    between atoms: CA_1  and  N_2
REMARK    2  A    between atoms: CA_1  and  C_12
REMARK    3  A    between atoms: CA_1  and  CB_15
REMARK    4  A    between atoms: N_2  and  CA_5
REMARK    5  A    between atoms: CA_5  and  C_8
REMARK    6  A    between atoms: C_8  and  O_9
REMARK    7  A    between atoms: C_12  and  O_13
REMARK    8  A    between atoms: CB_15  and  CG_16
REMARK    9  A    between atoms: CG_16  and  CD_17
REMARK   10  A    between atoms: CD_17  and  CE_18
REMARK   11  A    between atoms: CE_18  and  NZ_19
REMARK                            x       y       z     vdW  Elec       q    Type
REMARK                         _______ _______ _______ _____ _____    ______ ____
ROOT
ATOM      1  CA  ALA A   1     -36.553  23.872   3.825  0.00  0.00    +0.040 C 
ENDROOT
BRANCH   1   2
ATOM      2  N   ALA A   1     -37.049  22.515   3.590  0.00  0.00    +0.400 N 
ATOM      3  H1  ALA A   1     -38.067  22.535   3.538  0.00  0.00    -0.083 HD
ATOM      4  H2  ALA A   1     -36.746  21.917   4.359  0.00  0.00    -0.083 HD
BRANCH   2   5
ATOM      5  CA  ALA A   1     -36.517  21.982   2.346  0.00  0.00    +0.040 C 
ATOM      6  CB  ALA A   1     -37.618  21.934   1.295  0.00  0.00    -0.012 C 
BRANCH   5   8
ATOM      7  OXT ALA A   1     -34.825  20.310   2.916  0.00  0.00    -0.253 OA
ATOM      8  C   ALA A   1     -35.977  20.594   2.622  0.00  0.00    +0.293 C 
BRANCH   8   9
ATOM      9  O   ALA A   1     -36.968  19.670   2.513  0.00  0.00    -0.482 OA
ATOM     10  H   ALA A   1     -37.342  19.480   1.675  0.00  0.00    +0.295 HD
ENDBRANCH   8   9
ENDBRANCH   5   8
ENDBRANCH   2   5
ENDBRANCH   1   2
BRANCH   1  12
ATOM     11  OXT ALA A   1     -38.881  24.434   3.526  0.00  0.00    -0.253 OA
ATOM     12  C   ALA A   1     -37.740  24.812   3.760  0.00  0.00    +0.293 C 
BRANCH  12  13
ATOM     13  O   ALA A   1     -37.426  26.115   3.964  0.00  0.00    -0.482 OA
ATOM     14  H   ALA A   1     -36.832  26.353   4.648  0.00  0.00    +0.295 HD
ENDBRANCH  12  13
ENDBRANCH   1  12
BRANCH   1  15
ATOM     15  CB  ALA A   1     -35.440  24.239   2.835  0.00  0.00    -0.011 C 
BRANCH  15  16
ATOM     16  CG  ALA A   1     -34.139  24.727   3.486  0.00  0.00    -0.004 C 
BRANCH  16  17
ATOM     17  CD  ALA A   1     -34.186  24.737   5.017  0.00  0.00    -0.024 C 
BRANCH  17  18
ATOM     18  CE  ALA A   1     -33.993  26.151   5.563  0.00  0.00    -0.086 C 
BRANCH  18  19
ATOM     19  NZ  ALA A   1     -34.679  27.119   4.716  0.00  0.00    +0.380 N 
ATOM     20  HZ1 ALA A   1     -35.209  27.766   5.300  0.00  0.00    -0.089 HD
ATOM     21  HZ2 ALA A   1     -35.316  26.630   4.087  0.00  0.00    -0.089 HD
ATOM     22  HZ3 ALA A   1     -33.993  27.639   4.168  0.00  0.00    -0.089 HD
ENDBRANCH  18  19
ENDBRANCH  17  18
ENDBRANCH  16  17
ENDBRANCH  15  16
ENDBRANCH   1  15
TORSDOF 11
ENDMDL
MODEL 9
REMARK VINA RESULT:      -4.4      2.972      4.610
REMARK  Name = 193187
REMARK  11 active torsions:
REMARK  status: ('A' for Active; 'I' for Inactive)
REMARK    1  A    between atoms: CA_1  and  N_2
REMARK    2  A    between atoms: CA_1  and  C_12
REMARK    3  A    between atoms: CA_1  and  CB_15
REMARK    4  A    between atoms: N_2  and  CA_5
REMARK    5  A    between atoms: CA_5  and  C_8
REMARK    6  A    between atoms: C_8  and  O_9
REMARK    7  A    between atoms: C_12  and  O_13
REMARK    8  A    between atoms: CB_15  and  CG_16
REMARK    9  A    between atoms: CG_16  and  CD_17
REMARK   10  A    between atoms: CD_17  and  CE_18
REMARK   11  A    between atoms: CE_18  and  NZ_19
REMARK                            x       y       z     vdW  Elec       q    Type
REMARK                         _______ _______ _______ _____ _____    ______ ____
ROOT
ATOM      1  CA  ALA A   1     -36.316  24.776   4.802  0.00  0.00    +0.040 C 
ENDROOT
BRANCH   1   2
ATOM      2  N   ALA A   1     -35.308  23.803   4.377  0.00  0.00    +0.400 N 
ATOM      3  H1  ALA A   1     -34.445  23.965   4.896  0.00  0.00    -0.083 HD
ATOM      4  H2  ALA A   1     -35.145  23.915   3.376  0.00  0.00    -0.083 HD
BRANCH   2   5
ATOM      5  CA  ALA A   1     -35.767  22.446   4.626  0.00  0.00    +0.040 C 
ATOM      6  CB  ALA A   1     -35.058  21.879   5.849  0.00  0.00    -0.012 C 
BRANCH   5   8
ATOM      7  OXT ALA A   1     -35.388  20.396   3.346  0.00  0.00    -0.253 OA
ATOM      8  C   ALA A   1     -35.468  21.615   3.397  0.00  0.00    +0.293 C 
BRANCH   8   9
ATOM      9  O   ALA A   1     -35.305  22.417   2.311  0.00  0.00    -0.482 OA
ATOM     10  H   ALA A   1     -36.051  22.690   1.814  0.00  0.00    +0.295 HD
ENDBRANCH   8   9
ENDBRANCH   5   8
ENDBRANCH   2   5
ENDBRANCH   1   2
BRANCH   1  12
ATOM     11  OXT ALA A   1     -36.573  25.086   2.422  0.00  0.00    -0.253 OA
ATOM     12  C   ALA A   1     -36.973  25.330   3.554  0.00  0.00    +0.293 C 
BRANCH  12  13
ATOM     13  O   ALA A   1     -38.034  26.138   3.799  0.00  0.00    -0.482 OA
ATOM     14  H   ALA A   1     -38.865  25.953   3.407  0.00  0.00    +0.295 HD
ENDBRANCH  12  13
ENDBRANCH   1  12
BRANCH   1  15
ATOM     15  CB  ALA A   1     -35.702  25.864   5.691  0.00  0.00    -0.011 C 
BRANCH  15  16
ATOM     16  CG  ALA A   1     -34.293  26.311   5.278  0.00  0.00    -0.004 C 
BRANCH  16  17
ATOM     17  CD  ALA A   1     -33.376  26.621   6.464  0.00  0.00    -0.024 C 
BRANCH  17  18
ATOM     18  CE  ALA A   1     -32.320  27.660   6.086  0.00  0.00    -0.086 C 
BRANCH  18  19
ATOM     19  NZ  ALA A   1     -32.109  28.591   7.187  0.00  0.00    +0.380 N 
ATOM     20  HZ1 ALA A   1     -31.228  29.085   7.050  0.00  0.00    -0.089 HD
ATOM     21  HZ2 ALA A   1     -32.077  28.077   8.067  0.00  0.00    -0.089 HD
ATOM     22  HZ3 ALA A   1     -32.876  29.264   7.215  0.00  0.00    -0.089 HD
ENDBRANCH  18  19
ENDBRANCH  17  18
ENDBRANCH  16  17
ENDBRANCH  15  16
ENDBRANCH   1  15
TORSDOF 11
ENDMDL
