MODEL 1
REMARK VINA RESULT:      -5.9      0.000      0.000
REMARK  Name = 6030
REMARK  8 active torsions:
REMARK  status: ('A' for Active; 'I' for Inactive)
REMARK    1  A    between atoms: C_2  and  O_15
REMARK    2  A    between atoms: C_3  and  O_17
REMARK    3  A    between atoms: C_4  and  C_19
REMARK    4  A    between atoms: C_5  and  N_8
REMARK    5  A    between atoms: C_19  and  O_20
REMARK    6  A    between atoms: O_20  and  P_21
REMARK    7  A    between atoms: P_21  and  O_23
REMARK    8  A    between atoms: P_21  and  O_25
REMARK                            x       y       z     vdW  Elec       q    Type
REMARK                         _______ _______ _______ _____ _____    ______ ____
ROOT
ATOM      1  O   UNL     1     -37.051  23.525   3.832  0.00  0.00    -0.333 OA
ATOM      2  C   UNL     1     -38.862  24.141   2.436  0.00  0.00    +0.171 C 
ATOM      3  C   UNL     1     -37.946  25.336   2.594  0.00  0.00    +0.187 C 
ATOM      4  C   UNL     1     -37.955  22.988   2.842  0.00  0.00    +0.176 C 
ATOM      5  C   UNL     1     -37.147  24.959   3.829  0.00  0.00    +0.229 C 
ENDROOT
BRANCH   5   8
ATOM      6  O   UNL     1     -35.957  26.290   6.018  0.00  0.00    -0.252 OA
ATOM      7  O   UNL     1     -32.065  27.055   3.670  0.00  0.00    -0.270 OA
ATOM      8  N   UNL     1     -35.824  25.515   3.817  0.00  0.00    -0.217 N 
ATOM      9  N   UNL     1     -34.020  26.671   4.847  0.00  0.00    -0.236 N 
ATOM     10  C   UNL     1     -35.321  26.164   4.969  0.00  0.00    +0.315 C 
ATOM     11  C   UNL     1     -35.039  25.415   2.674  0.00  0.00    +0.076 C 
ATOM     12  C   UNL     1     -33.801  25.902   2.573  0.00  0.00    +0.074 C 
ATOM     13  C   UNL     1     -33.202  26.595   3.731  0.00  0.00    +0.254 C 
ATOM     14  H   UNL     1     -33.649  27.127   5.636  0.00  0.00    +0.159 HD
ENDBRANCH   5   8
BRANCH   2  15
ATOM     15  O   UNL     1     -39.934  24.210   3.376  0.00  0.00    -0.379 OA
ATOM     16  H   UNL     1     -40.401  25.054   3.272  0.00  0.00    +0.211 HD
ENDBRANCH   2  15
BRANCH   3  17
ATOM     17  O   UNL     1     -38.663  26.543   2.758  0.00  0.00    -0.378 OA
ATOM     18  H   UNL     1     -38.553  26.864   3.667  0.00  0.00    +0.211 HD
ENDBRANCH   3  17
BRANCH   4  19
ATOM     19  C   UNL     1     -37.124  22.439   1.690  0.00  0.00    +0.186 C 
BRANCH  19  20
ATOM     20  O   UNL     1     -35.823  22.143   2.169  0.00  0.00    -0.271 OA
BRANCH  20  21
ATOM     21  P   UNL     1     -35.504  20.631   2.651  0.00  0.00    +0.473 P 
ATOM     22  O   UNL     1     -34.317  19.993   1.991  0.00  0.00    -0.227 OA
BRANCH  21  23
ATOM     23  O   UNL     1     -36.909  19.857   2.443  0.00  0.00    -0.303 OA
ATOM     24  H   UNL     1     -36.745  18.903   2.377  0.00  0.00    +0.222 HD
ENDBRANCH  21  23
BRANCH  21  25
ATOM     25  O   UNL     1     -35.395  20.779   4.258  0.00  0.00    -0.303 OA
ATOM     26  H   UNL     1     -35.759  19.985   4.680  0.00  0.00    +0.222 HD
ENDBRANCH  21  25
ENDBRANCH  20  21
ENDBRANCH  19  20
ENDBRANCH   4  19
TORSDOF 8
ENDMDL
MODEL 2
REMARK VINA RESULT:      -5.7      2.628      5.410
REMARK  Name = 6030
REMARK  8 active torsions:
REMARK  status: ('A' for Active; 'I' for Inactive)
REMARK    1  A    between atoms: C_2  and  O_15
REMARK    2  A    between atoms: C_3  and  O_17
REMARK    3  A    between atoms: C_4  and  C_19
REMARK    4  A    between atoms: C_5  and  N_8
REMARK    5  A    between atoms: C_19  and  O_20
REMARK    6  A    between atoms: O_20  and  P_21
REMARK    7  A    between atoms: P_21  and  O_23
REMARK    8  A    between atoms: P_21  and  O_25
REMARK                            x       y       z     vdW  Elec       q    Type
REMARK                         _______ _______ _______ _____ _____    ______ ____
ROOT
ATOM      1  O   UNL     1     -37.064  22.941   4.076  0.00  0.00    -0.333 OA
ATOM      2  C   UNL     1     -35.568  21.652   2.767  0.00  0.00    +0.171 C 
ATOM      3  C   UNL     1     -36.564  22.321   1.844  0.00  0.00    +0.187 C 
ATOM      4  C   UNL     1     -35.692  22.490   4.031  0.00  0.00    +0.176 C 
ATOM      5  C   UNL     1     -37.682  22.693   2.802  0.00  0.00    +0.229 C 
ENDROOT
BRANCH   5   8
ATOM      6  O   UNL     1     -40.359  22.713   1.901  0.00  0.00    -0.252 OA
ATOM      7  O   UNL     1     -40.295  27.274   1.244  0.00  0.00    -0.270 OA
ATOM      8  N   UNL     1     -38.390  23.871   2.391  0.00  0.00    -0.217 N 
ATOM      9  N   UNL     1     -40.325  24.984   1.574  0.00  0.00    -0.236 N 
ATOM     10  C   UNL     1     -39.732  23.772   1.954  0.00  0.00    +0.315 C 
ATOM     11  C   UNL     1     -37.755  25.108   2.421  0.00  0.00    +0.076 C 
ATOM     12  C   UNL     1     -38.334  26.254   2.056  0.00  0.00    +0.074 C 
ATOM     13  C   UNL     1     -39.734  26.237   1.587  0.00  0.00    +0.254 C 
ATOM     14  H   UNL     1     -41.259  24.940   1.266  0.00  0.00    +0.159 HD
ENDBRANCH   5   8
BRANCH   2  15
ATOM     15  O   UNL     1     -35.993  20.324   3.075  0.00  0.00    -0.379 OA
ATOM     16  H   UNL     1     -35.708  19.722   2.370  0.00  0.00    +0.211 HD
ENDBRANCH   2  15
BRANCH   3  17
ATOM     17  O   UNL     1     -36.999  21.463   0.809  0.00  0.00    -0.378 OA
ATOM     18  H   UNL     1     -36.610  21.748  -0.033  0.00  0.00    +0.211 HD
ENDBRANCH   3  17
BRANCH   4  19
ATOM     19  C   UNL     1     -34.790  23.717   4.032  0.00  0.00    +0.186 C 
BRANCH  19  20
ATOM     20  O   UNL     1     -35.026  24.454   5.219  0.00  0.00    -0.271 OA
BRANCH  20  21
ATOM     21  P   UNL     1     -34.907  26.067   5.163  0.00  0.00    +0.473 P 
ATOM     22  O   UNL     1     -33.871  26.657   6.076  0.00  0.00    -0.227 OA
BRANCH  21  23
ATOM     23  O   UNL     1     -36.422  26.574   5.418  0.00  0.00    -0.303 OA
ATOM     24  H   UNL     1     -36.914  25.889   5.897  0.00  0.00    +0.222 HD
ENDBRANCH  21  23
BRANCH  21  25
ATOM     25  O   UNL     1     -34.676  26.359   3.590  0.00  0.00    -0.303 OA
ATOM     26  H   UNL     1     -35.481  26.747   3.212  0.00  0.00    +0.222 HD
ENDBRANCH  21  25
ENDBRANCH  20  21
ENDBRANCH  19  20
ENDBRANCH   4  19
TORSDOF 8
ENDMDL
MODEL 3
REMARK VINA RESULT:      -5.7      2.820      5.416
REMARK  Name = 6030
REMARK  8 active torsions:
REMARK  status: ('A' for Active; 'I' for Inactive)
REMARK    1  A    between atoms: C_2  and  O_15
REMARK    2  A    between atoms: C_3  and  O_17
REMARK    3  A    between atoms: C_4  and  C_19
REMARK    4  A    between atoms: C_5  and  N_8
REMARK    5  A    between atoms: C_19  and  O_20
REMARK    6  A    between atoms: O_20  and  P_21
REMARK    7  A    between atoms: P_21  and  O_23
REMARK    8  A    between atoms: P_21  and  O_25
REMARK                            x       y       z     vdW  Elec       q    Type
REMARK                         _______ _______ _______ _____ _____    ______ ____
ROOT
ATOM      1  O   UNL     1     -36.795  24.177   4.517  0.00  0.00    -0.333 OA
ATOM      2  C   UNL     1     -35.259  22.640   5.460  0.00  0.00    +0.171 C 
ATOM      3  C   UNL     1     -35.546  22.222   4.033  0.00  0.00    +0.187 C 
ATOM      4  C   UNL     1     -35.705  24.095   5.462  0.00  0.00    +0.176 C 
ATOM      5  C   UNL     1     -36.836  22.969   3.740  0.00  0.00    +0.229 C 
ENDROOT
BRANCH   5   8
ATOM      6  O   UNL     1     -39.302  23.392   2.430  0.00  0.00    -0.252 OA
ATOM      7  O   UNL     1     -37.225  24.275  -1.588  0.00  0.00    -0.270 OA
ATOM      8  N   UNL     1     -36.968  23.311   2.353  0.00  0.00    -0.217 N 
ATOM      9  N   UNL     1     -38.266  23.831   0.430  0.00  0.00    -0.236 N 
ATOM     10  C   UNL     1     -38.253  23.501   1.792  0.00  0.00    +0.315 C 
ATOM     11  C   UNL     1     -35.834  23.455   1.562  0.00  0.00    +0.076 C 
ATOM     12  C   UNL     1     -35.862  23.770   0.265  0.00  0.00    +0.074 C 
ATOM     13  C   UNL     1     -37.164  23.985  -0.397  0.00  0.00    +0.254 C 
ATOM     14  H   UNL     1     -39.149  23.968   0.018  0.00  0.00    +0.159 HD
ENDBRANCH   5   8
BRANCH   2  15
ATOM     15  O   UNL     1     -36.096  21.921   6.365  0.00  0.00    -0.379 OA
ATOM     16  H   UNL     1     -35.753  22.016   7.267  0.00  0.00    +0.211 HD
ENDBRANCH   2  15
BRANCH   3  17
ATOM     17  O   UNL     1     -35.687  20.823   3.902  0.00  0.00    -0.378 OA
ATOM     18  H   UNL     1     -35.905  20.604   2.982  0.00  0.00    +0.211 HD
ENDBRANCH   3  17
BRANCH   4  19
ATOM     19  C   UNL     1     -34.617  25.061   5.013  0.00  0.00    +0.186 C 
BRANCH  19  20
ATOM     20  O   UNL     1     -35.194  26.341   4.826  0.00  0.00    -0.271 OA
BRANCH  20  21
ATOM     21  P   UNL     1     -35.223  26.963   3.331  0.00  0.00    +0.473 P 
ATOM     22  O   UNL     1     -34.180  26.418   2.399  0.00  0.00    -0.227 OA
BRANCH  21  23
ATOM     23  O   UNL     1     -35.161  28.561   3.579  0.00  0.00    -0.303 OA
ATOM     24  H   UNL     1     -36.042  28.882   3.830  0.00  0.00    +0.222 HD
ENDBRANCH  21  23
BRANCH  21  25
ATOM     25  O   UNL     1     -36.751  26.717   2.866  0.00  0.00    -0.303 OA
ATOM     26  H   UNL     1     -37.084  27.511   2.418  0.00  0.00    +0.222 HD
ENDBRANCH  21  25
ENDBRANCH  20  21
ENDBRANCH  19  20
ENDBRANCH   4  19
TORSDOF 8
ENDMDL
MODEL 4
REMARK VINA RESULT:      -5.6      2.749      5.715
REMARK  Name = 6030
REMARK  8 active torsions:
REMARK  status: ('A' for Active; 'I' for Inactive)
REMARK    1  A    between atoms: C_2  and  O_15
REMARK    2  A    between atoms: C_3  and  O_17
REMARK    3  A    between atoms: C_4  and  C_19
REMARK    4  A    between atoms: C_5  and  N_8
REMARK    5  A    between atoms: C_19  and  O_20
REMARK    6  A    between atoms: O_20  and  P_21
REMARK    7  A    between atoms: P_21  and  O_23
REMARK    8  A    between atoms: P_21  and  O_25
REMARK                            x       y       z     vdW  Elec       q    Type
REMARK                         _______ _______ _______ _____ _____    ______ ____
ROOT
ATOM      1  O   UNL     1     -36.204  25.634   5.299  0.00  0.00    -0.333 OA
ATOM      2  C   UNL     1     -35.110  23.536   5.191  0.00  0.00    +0.171 C 
ATOM      3  C   UNL     1     -36.081  23.635   4.033  0.00  0.00    +0.187 C 
ATOM      4  C   UNL     1     -34.942  24.994   5.592  0.00  0.00    +0.176 C 
ATOM      5  C   UNL     1     -37.000  24.755   4.487  0.00  0.00    +0.229 C 
ENDROOT
BRANCH   5   8
ATOM      6  O   UNL     1     -39.696  24.633   3.653  0.00  0.00    -0.252 OA
ATOM      7  O   UNL     1     -38.970  27.657   0.251  0.00  0.00    -0.270 OA
ATOM      8  N   UNL     1     -37.543  25.501   3.388  0.00  0.00    -0.217 N 
ATOM      9  N   UNL     1     -39.333  26.139   1.959  0.00  0.00    -0.236 N 
ATOM     10  C   UNL     1     -38.910  25.367   3.050  0.00  0.00    +0.315 C 
ATOM     11  C   UNL     1     -36.723  26.353   2.656  0.00  0.00    +0.076 C 
ATOM     12  C   UNL     1     -37.141  27.082   1.619  0.00  0.00    +0.074 C 
ATOM     13  C   UNL     1     -38.555  27.000   1.201  0.00  0.00    +0.254 C 
ATOM     14  H   UNL     1     -40.280  26.062   1.706  0.00  0.00    +0.159 HD
ENDBRANCH   5   8
BRANCH   2  15
ATOM     15  O   UNL     1     -35.713  22.845   6.285  0.00  0.00    -0.379 OA
ATOM     16  H   UNL     1     -36.077  23.489   6.912  0.00  0.00    +0.211 HD
ENDBRANCH   2  15
BRANCH   3  17
ATOM     17  O   UNL     1     -36.772  22.424   3.806  0.00  0.00    -0.378 OA
ATOM     18  H   UNL     1     -37.322  22.215   4.577  0.00  0.00    +0.211 HD
ENDBRANCH   3  17
BRANCH   4  19
ATOM     19  C   UNL     1     -33.853  25.714   4.808  0.00  0.00    +0.186 C 
BRANCH  19  20
ATOM     20  O   UNL     1     -33.876  27.087   5.154  0.00  0.00    -0.271 OA
BRANCH  20  21
ATOM     21  P   UNL     1     -32.466  27.849   5.382  0.00  0.00    +0.473 P 
ATOM     22  O   UNL     1     -32.563  29.345   5.476  0.00  0.00    -0.227 OA
BRANCH  21  23
ATOM     23  O   UNL     1     -31.530  27.291   4.188  0.00  0.00    -0.303 OA
ATOM     24  H   UNL     1     -30.694  27.785   4.175  0.00  0.00    +0.222 HD
ENDBRANCH  21  23
BRANCH  21  25
ATOM     25  O   UNL     1     -31.869  27.120   6.696  0.00  0.00    -0.303 OA
ATOM     26  H   UNL     1     -30.941  27.377   6.814  0.00  0.00    +0.222 HD
ENDBRANCH  21  25
ENDBRANCH  20  21
ENDBRANCH  19  20
ENDBRANCH   4  19
TORSDOF 8
ENDMDL
MODEL 5
REMARK VINA RESULT:      -5.5      2.065      4.431
REMARK  Name = 6030
REMARK  8 active torsions:
REMARK  status: ('A' for Active; 'I' for Inactive)
REMARK    1  A    between atoms: C_2  and  O_15
REMARK    2  A    between atoms: C_3  and  O_17
REMARK    3  A    between atoms: C_4  and  C_19
REMARK    4  A    between atoms: C_5  and  N_8
REMARK    5  A    between atoms: C_19  and  O_20
REMARK    6  A    between atoms: O_20  and  P_21
REMARK    7  A    between atoms: P_21  and  O_23
REMARK    8  A    between atoms: P_21  and  O_25
REMARK                            x       y       z     vdW  Elec       q    Type
REMARK                         _______ _______ _______ _____ _____    ______ ____
ROOT
ATOM      1  O   UNL     1     -35.798  24.343   2.859  0.00  0.00    -0.333 OA
ATOM      2  C   UNL     1     -35.225  24.580   5.146  0.00  0.00    +0.171 C 
ATOM      3  C   UNL     1     -36.505  25.346   4.886  0.00  0.00    +0.187 C 
ATOM      4  C   UNL     1     -35.171  23.637   3.952  0.00  0.00    +0.176 C 
ATOM      5  C   UNL     1     -36.481  25.497   3.375  0.00  0.00    +0.229 C 
ENDROOT
BRANCH   5   8
ATOM      6  O   UNL     1     -37.360  27.480   1.566  0.00  0.00    -0.252 OA
ATOM      7  O   UNL     1     -41.559  25.604   1.265  0.00  0.00    -0.270 OA
ATOM      8  N   UNL     1     -37.798  25.550   2.808  0.00  0.00    -0.217 N 
ATOM      9  N   UNL     1     -39.450  26.545   1.417  0.00  0.00    -0.236 N 
ATOM     10  C   UNL     1     -38.139  26.589   1.909  0.00  0.00    +0.315 C 
ATOM     11  C   UNL     1     -38.738  24.581   3.142  0.00  0.00    +0.076 C 
ATOM     12  C   UNL     1     -39.984  24.553   2.665  0.00  0.00    +0.074 C 
ATOM     13  C   UNL     1     -40.419  25.602   1.722  0.00  0.00    +0.254 C 
ATOM     14  H   UNL     1     -39.710  27.258   0.791  0.00  0.00    +0.159 HD
ENDBRANCH   5   8
BRANCH   2  15
ATOM     15  O   UNL     1     -34.100  25.455   5.067  0.00  0.00    -0.379 OA
ATOM     16  H   UNL     1     -33.927  25.839   5.941  0.00  0.00    +0.211 HD
ENDBRANCH   2  15
BRANCH   3  17
ATOM     17  O   UNL     1     -36.532  26.590   5.556  0.00  0.00    -0.378 OA
ATOM     18  H   UNL     1     -37.065  27.221   5.046  0.00  0.00    +0.211 HD
ENDBRANCH   3  17
BRANCH   4  19
ATOM     19  C   UNL     1     -35.933  22.337   4.176  0.00  0.00    +0.186 C 
BRANCH  19  20
ATOM     20  O   UNL     1     -35.132  21.258   3.728  0.00  0.00    -0.271 OA
BRANCH  20  21
ATOM     21  P   UNL     1     -35.497  20.560   2.314  0.00  0.00    +0.473 P 
ATOM     22  O   UNL     1     -35.573  21.500   1.146  0.00  0.00    -0.227 OA
BRANCH  21  23
ATOM     23  O   UNL     1     -36.854  19.739   2.630  0.00  0.00    -0.303 OA
ATOM     24  H   UNL     1     -37.623  20.284   2.398  0.00  0.00    +0.222 HD
ENDBRANCH  21  23
BRANCH  21  25
ATOM     25  O   UNL     1     -34.380  19.398   2.185  0.00  0.00    -0.303 OA
ATOM     26  H   UNL     1     -33.543  19.787   1.886  0.00  0.00    +0.222 HD
ENDBRANCH  21  25
ENDBRANCH  20  21
ENDBRANCH  19  20
ENDBRANCH   4  19
TORSDOF 8
ENDMDL
MODEL 6
REMARK VINA RESULT:      -5.5      2.925      4.351
REMARK  Name = 6030
REMARK  8 active torsions:
REMARK  status: ('A' for Active; 'I' for Inactive)
REMARK    1  A    between atoms: C_2  and  O_15
REMARK    2  A    between atoms: C_3  and  O_17
REMARK    3  A    between atoms: C_4  and  C_19
REMARK    4  A    between atoms: C_5  and  N_8
REMARK    5  A    between atoms: C_19  and  O_20
REMARK    6  A    between atoms: O_20  and  P_21
REMARK    7  A    between atoms: P_21  and  O_23
REMARK    8  A    between atoms: P_21  and  O_25
REMARK                            x       y       z     vdW  Elec       q    Type
REMARK                         _______ _______ _______ _____ _____    ______ ____
ROOT
ATOM      1  O   UNL     1     -39.214  23.640   2.958  0.00  0.00    -0.333 OA
ATOM      2  C   UNL     1     -38.894  25.860   2.198  0.00  0.00    +0.171 C 
ATOM      3  C   UNL     1     -37.537  25.217   2.395  0.00  0.00    +0.187 C 
ATOM      4  C   UNL     1     -39.812  24.649   2.116  0.00  0.00    +0.176 C 
ATOM      5  C   UNL     1     -37.875  24.039   3.293  0.00  0.00    +0.229 C 
ENDROOT
BRANCH   5   8
ATOM      6  O   UNL     1     -36.281  22.882   5.317  0.00  0.00    -0.252 OA
ATOM      7  O   UNL     1     -34.523  19.770   2.408  0.00  0.00    -0.270 OA
ATOM      8  N   UNL     1     -36.992  22.926   3.092  0.00  0.00    -0.217 N 
ATOM      9  N   UNL     1     -35.406  21.333   3.867  0.00  0.00    -0.236 N 
ATOM     10  C   UNL     1     -36.235  22.420   4.176  0.00  0.00    +0.315 C 
ATOM     11  C   UNL     1     -36.883  22.345   1.834  0.00  0.00    +0.076 C 
ATOM     12  C   UNL     1     -36.088  21.309   1.556  0.00  0.00    +0.074 C 
ATOM     13  C   UNL     1     -35.264  20.723   2.631  0.00  0.00    +0.254 C 
ATOM     14  H   UNL     1     -34.870  20.965   4.605  0.00  0.00    +0.159 HD
ENDBRANCH   5   8
BRANCH   2  15
ATOM     15  O   UNL     1     -39.259  26.612   3.356  0.00  0.00    -0.379 OA
ATOM     16  H   UNL     1     -38.492  27.117   3.668  0.00  0.00    +0.211 HD
ENDBRANCH   2  15
BRANCH   3  17
ATOM     17  O   UNL     1     -36.605  26.100   2.984  0.00  0.00    -0.378 OA
ATOM     18  H   UNL     1     -36.499  25.879   3.923  0.00  0.00    +0.211 HD
ENDBRANCH   3  17
BRANCH   4  19
ATOM     19  C   UNL     1     -39.935  24.080   0.709  0.00  0.00    +0.186 C 
BRANCH  19  20
ATOM     20  O   UNL     1     -40.895  23.038   0.722  0.00  0.00    -0.271 OA
BRANCH  20  21
ATOM     21  P   UNL     1     -40.398  21.526   0.429  0.00  0.00    +0.473 P 
ATOM     22  O   UNL     1     -39.266  21.411  -0.551  0.00  0.00    -0.227 OA
BRANCH  21  23
ATOM     23  O   UNL     1     -41.754  20.749   0.013  0.00  0.00    -0.303 OA
ATOM     24  H   UNL     1     -42.516  21.189   0.422  0.00  0.00    +0.222 HD
ENDBRANCH  21  23
BRANCH  21  25
ATOM     25  O   UNL     1     -40.080  20.956   1.908  0.00  0.00    -0.303 OA
ATOM     26  H   UNL     1     -40.549  20.116   2.038  0.00  0.00    +0.222 HD
ENDBRANCH  21  25
ENDBRANCH  20  21
ENDBRANCH  19  20
ENDBRANCH   4  19
TORSDOF 8
ENDMDL
MODEL 7
REMARK VINA RESULT:      -5.5      2.224      3.120
REMARK  Name = 6030
REMARK  8 active torsions:
REMARK  status: ('A' for Active; 'I' for Inactive)
REMARK    1  A    between atoms: C_2  and  O_15
REMARK    2  A    between atoms: C_3  and  O_17
REMARK    3  A    between atoms: C_4  and  C_19
REMARK    4  A    between atoms: C_5  and  N_8
REMARK    5  A    between atoms: C_19  and  O_20
REMARK    6  A    between atoms: O_20  and  P_21
REMARK    7  A    between atoms: P_21  and  O_23
REMARK    8  A    between atoms: P_21  and  O_25
REMARK                            x       y       z     vdW  Elec       q    Type
REMARK                         _______ _______ _______ _____ _____    ______ ____
ROOT
ATOM      1  O   UNL     1     -35.677  21.167   3.405  0.00  0.00    -0.333 OA
ATOM      2  C   UNL     1     -37.014  21.100   1.451  0.00  0.00    +0.171 C 
ATOM      3  C   UNL     1     -36.820  22.546   1.854  0.00  0.00    +0.187 C 
ATOM      4  C   UNL     1     -35.880  20.407   2.194  0.00  0.00    +0.176 C 
ATOM      5  C   UNL     1     -36.384  22.414   3.303  0.00  0.00    +0.229 C 
ENDROOT
BRANCH   5   8
ATOM      6  O   UNL     1     -35.968  23.189   5.987  0.00  0.00    -0.252 OA
ATOM      7  O   UNL     1     -33.022  26.515   4.761  0.00  0.00    -0.270 OA
ATOM      8  N   UNL     1     -35.513  23.478   3.713  0.00  0.00    -0.217 N 
ATOM      9  N   UNL     1     -34.502  24.845   5.375  0.00  0.00    -0.236 N 
ATOM     10  C   UNL     1     -35.376  23.788   5.087  0.00  0.00    +0.315 C 
ATOM     11  C   UNL     1     -34.807  24.203   2.761  0.00  0.00    +0.076 C 
ATOM     12  C   UNL     1     -33.977  25.208   3.050  0.00  0.00    +0.074 C 
ATOM     13  C   UNL     1     -33.778  25.595   4.461  0.00  0.00    +0.254 C 
ATOM     14  H   UNL     1     -34.390  25.079   6.324  0.00  0.00    +0.159 HD
ENDBRANCH   5   8
BRANCH   2  15
ATOM     15  O   UNL     1     -38.248  20.602   1.969  0.00  0.00    -0.379 OA
ATOM     16  H   UNL     1     -38.286  19.641   1.847  0.00  0.00    +0.211 HD
ENDBRANCH   2  15
BRANCH   3  17
ATOM     17  O   UNL     1     -38.002  23.307   1.710  0.00  0.00    -0.378 OA
ATOM     18  H   UNL     1     -37.910  24.143   2.194  0.00  0.00    +0.211 HD
ENDBRANCH   3  17
BRANCH   4  19
ATOM     19  C   UNL     1     -34.571  20.394   1.417  0.00  0.00    +0.186 C 
BRANCH  19  20
ATOM     20  O   UNL     1     -33.787  19.302   1.865  0.00  0.00    -0.271 OA
BRANCH  20  21
ATOM     21  P   UNL     1     -33.097  18.342   0.760  0.00  0.00    +0.473 P 
ATOM     22  O   UNL     1     -32.651  19.038  -0.493  0.00  0.00    -0.227 OA
BRANCH  21  23
ATOM     23  O   UNL     1     -34.182  17.161   0.546  0.00  0.00    -0.303 OA
ATOM     24  H   UNL     1     -34.894  17.478  -0.032  0.00  0.00    +0.222 HD
ENDBRANCH  21  23
BRANCH  21  25
ATOM     25  O   UNL     1     -31.918  17.617   1.596  0.00  0.00    -0.303 OA
ATOM     26  H   UNL     1     -31.428  18.281   2.105  0.00  0.00    +0.222 HD
ENDBRANCH  21  25
ENDBRANCH  20  21
ENDBRANCH  19  20
ENDBRANCH   4  19
TORSDOF 8
ENDMDL
MODEL 8
REMARK VINA RESULT:      -5.4      2.109      4.320
REMARK  Name = 6030
REMARK  8 active torsions:
REMARK  status: ('A' for Active; 'I' for Inactive)
REMARK    1  A    between atoms: C_2  and  O_15
REMARK    2  A    between atoms: C_3  and  O_17
REMARK    3  A    between atoms: C_4  and  C_19
REMARK    4  A    between atoms: C_5  and  N_8
REMARK    5  A    between atoms: C_19  and  O_20
REMARK    6  A    between atoms: O_20  and  P_21
REMARK    7  A    between atoms: P_21  and  O_23
REMARK    8  A    between atoms: P_21  and  O_25
REMARK                            x       y       z     vdW  Elec       q    Type
REMARK                         _______ _______ _______ _____ _____    ______ ____
ROOT
ATOM      1  O   UNL     1     -36.171  23.388   1.400  0.00  0.00    -0.333 OA
ATOM      2  C   UNL     1     -37.147  21.306   1.969  0.00  0.00    +0.171 C 
ATOM      3  C   UNL     1     -36.279  21.764   3.121  0.00  0.00    +0.187 C 
ATOM      4  C   UNL     1     -37.367  22.602   1.201  0.00  0.00    +0.176 C 
ATOM      5  C   UNL     1     -35.392  22.802   2.456  0.00  0.00    +0.229 C 
ENDROOT
BRANCH   5   8
ATOM      6  O   UNL     1     -33.645  24.915   1.779  0.00  0.00    -0.252 OA
ATOM      7  O   UNL     1     -33.885  26.713   6.015  0.00  0.00    -0.270 OA
ATOM      8  N   UNL     1     -34.982  23.836   3.362  0.00  0.00    -0.217 N 
ATOM      9  N   UNL     1     -33.765  25.809   3.889  0.00  0.00    -0.236 N 
ATOM     10  C   UNL     1     -34.101  24.851   2.922  0.00  0.00    +0.315 C 
ATOM     11  C   UNL     1     -35.452  23.838   4.671  0.00  0.00    +0.076 C 
ATOM     12  C   UNL     1     -35.123  24.758   5.580  0.00  0.00    +0.074 C 
ATOM     13  C   UNL     1     -34.207  25.852   5.202  0.00  0.00    +0.254 C 
ATOM     14  H   UNL     1     -33.153  26.525   3.606  0.00  0.00    +0.159 HD
ENDBRANCH   5   8
BRANCH   2  15
ATOM     15  O   UNL     1     -36.421  20.412   1.125  0.00  0.00    -0.379 OA
ATOM     16  H   UNL     1     -36.039  19.701   1.662  0.00  0.00    +0.211 HD
ENDBRANCH   2  15
BRANCH   3  17
ATOM     17  O   UNL     1     -35.540  20.703   3.690  0.00  0.00    -0.378 OA
ATOM     18  H   UNL     1     -36.142  19.981   3.931  0.00  0.00    +0.211 HD
ENDBRANCH   3  17
BRANCH   4  19
ATOM     19  C   UNL     1     -38.554  23.410   1.708  0.00  0.00    +0.186 C 
BRANCH  19  20
ATOM     20  O   UNL     1     -38.258  24.789   1.569  0.00  0.00    -0.271 OA
BRANCH  20  21
ATOM     21  P   UNL     1     -38.594  25.778   2.805  0.00  0.00    +0.473 P 
ATOM     22  O   UNL     1     -39.819  26.626   2.622  0.00  0.00    -0.227 OA
BRANCH  21  23
ATOM     23  O   UNL     1     -37.216  26.595   3.030  0.00  0.00    -0.303 OA
ATOM     24  H   UNL     1     -36.489  25.968   3.173  0.00  0.00    +0.222 HD
ENDBRANCH  21  23
BRANCH  21  25
ATOM     25  O   UNL     1     -38.642  24.774   4.071  0.00  0.00    -0.303 OA
ATOM     26  H   UNL     1     -39.530  24.789   4.462  0.00  0.00    +0.222 HD
ENDBRANCH  21  25
ENDBRANCH  20  21
ENDBRANCH  19  20
ENDBRANCH   4  19
TORSDOF 8
ENDMDL
MODEL 9
REMARK VINA RESULT:      -5.4      3.321      5.417
REMARK  Name = 6030
REMARK  8 active torsions:
REMARK  status: ('A' for Active; 'I' for Inactive)
REMARK    1  A    between atoms: C_2  and  O_15
REMARK    2  A    between atoms: C_3  and  O_17
REMARK    3  A    between atoms: C_4  and  C_19
REMARK    4  A    between atoms: C_5  and  N_8
REMARK    5  A    between atoms: C_19  and  O_20
REMARK    6  A    between atoms: O_20  and  P_21
REMARK    7  A    between atoms: P_21  and  O_23
REMARK    8  A    between atoms: P_21  and  O_25
REMARK                            x       y       z     vdW  Elec       q    Type
REMARK                         _______ _______ _______ _____ _____    ______ ____
ROOT
ATOM      1  O   UNL     1     -37.946  23.662   1.238  0.00  0.00    -0.333 OA
ATOM      2  C   UNL     1     -40.082  23.355   2.214  0.00  0.00    +0.171 C 
ATOM      3  C   UNL     1     -39.401  22.008   2.110  0.00  0.00    +0.187 C 
ATOM      4  C   UNL     1     -38.908  24.317   2.094  0.00  0.00    +0.176 C 
ATOM      5  C   UNL     1     -38.314  22.282   1.085  0.00  0.00    +0.229 C 
ENDROOT
BRANCH   5   8
ATOM      6  O   UNL     1     -37.996  19.679   0.036  0.00  0.00    -0.252 OA
ATOM      7  O   UNL     1     -33.813  19.234   1.917  0.00  0.00    -0.270 OA
ATOM      8  N   UNL     1     -37.152  21.464   1.284  0.00  0.00    -0.217 N 
ATOM      9  N   UNL     1     -35.913  19.459   0.973  0.00  0.00    -0.236 N 
ATOM     10  C   UNL     1     -37.093  20.171   0.715  0.00  0.00    +0.315 C 
ATOM     11  C   UNL     1     -36.087  21.944   2.037  0.00  0.00    +0.076 C 
ATOM     12  C   UNL     1     -34.969  21.255   2.275  0.00  0.00    +0.074 C 
ATOM     13  C   UNL     1     -34.828  19.895   1.717  0.00  0.00    +0.254 C 
ATOM     14  H   UNL     1     -35.849  18.556   0.588  0.00  0.00    +0.159 HD
ENDBRANCH   5   8
BRANCH   2  15
ATOM     15  O   UNL     1     -40.939  23.565   1.091  0.00  0.00    -0.379 OA
ATOM     16  H   UNL     1     -40.778  24.447   0.722  0.00  0.00    +0.211 HD
ENDBRANCH   2  15
BRANCH   3  17
ATOM     17  O   UNL     1     -40.288  20.987   1.702  0.00  0.00    -0.378 OA
ATOM     18  H   UNL     1     -40.062  20.702   0.803  0.00  0.00    +0.211 HD
ENDBRANCH   3  17
BRANCH   4  19
ATOM     19  C   UNL     1     -38.233  24.613   3.426  0.00  0.00    +0.186 C 
BRANCH  19  20
ATOM     20  O   UNL     1     -36.979  25.224   3.174  0.00  0.00    -0.271 OA
BRANCH  20  21
ATOM     21  P   UNL     1     -35.911  25.320   4.386  0.00  0.00    +0.473 P 
ATOM     22  O   UNL     1     -34.478  25.450   3.957  0.00  0.00    -0.227 OA
BRANCH  21  23
ATOM     23  O   UNL     1     -36.245  24.027   5.297  0.00  0.00    -0.303 OA
ATOM     24  H   UNL     1     -37.078  23.628   4.999  0.00  0.00    +0.222 HD
ENDBRANCH  21  23
BRANCH  21  25
ATOM     25  O   UNL     1     -36.474  26.553   5.268  0.00  0.00    -0.303 OA
ATOM     26  H   UNL     1     -37.224  26.962   4.809  0.00  0.00    +0.222 HD
ENDBRANCH  21  25
ENDBRANCH  20  21
ENDBRANCH  19  20
ENDBRANCH   4  19
TORSDOF 8
ENDMDL
