MODEL 1
REMARK VINA RESULT:      -6.8      0.000      0.000
REMARK  Name = 54708532
REMARK  5 active torsions:
REMARK  status: ('A' for Active; 'I' for Inactive)
REMARK    1  A    between atoms: C_4  and  C_12
REMARK    2  A    between atoms: C_7  and  O_26
REMARK    3  A    between atoms: C_9  and  C_29
REMARK    4  A    between atoms: C_13  and  C_18
REMARK    5  A    between atoms: C_19  and  O_24
REMARK                            x       y       z     vdW  Elec       q    Type
REMARK                         _______ _______ _______ _____ _____    ______ ____
ROOT
ATOM      1  S   UNL     1     -35.936  25.872   4.505  0.00  0.00    -0.069 S 
ATOM      2  O   UNL     1     -40.587  26.516   2.958  0.00  0.00    -0.266 OA
ATOM      3  N   UNL     1     -38.426  26.230   3.683  0.00  0.00    -0.315 N 
ATOM      4  C   UNL     1     -35.895  23.710   3.086  0.00  0.00    +0.011 C 
ATOM      5  C   UNL     1     -37.184  24.284   2.918  0.00  0.00    +0.057 A 
ATOM      6  C   UNL     1     -37.308  25.441   3.634  0.00  0.00    +0.092 A 
ATOM      7  C   UNL     1     -38.309  23.856   2.154  0.00  0.00    +0.150 A 
ATOM      8  C   UNL     1     -35.108  24.475   3.929  0.00  0.00    +0.037 C 
ATOM      9  C   UNL     1     -39.456  24.573   2.143  0.00  0.00    +0.158 A 
ATOM     10  C   UNL     1     -39.548  25.854   2.957  0.00  0.00    +0.271 A 
ATOM     11  H   UNL     1     -38.435  27.051   4.225  0.00  0.00    +0.169 HD
ENDROOT
BRANCH   4  12
ATOM     12  C   UNL     1     -35.354  22.503   2.516  0.00  0.00    +0.001 C 
ATOM     13  C   UNL     1     -34.306  20.164   1.414  0.00  0.00    +0.003 C 
ATOM     14  C   UNL     1     -34.671  22.550   1.301  0.00  0.00    +0.000 C 
ATOM     15  C   UNL     1     -35.513  21.286   3.181  0.00  0.00    +0.000 C 
ATOM     16  C   UNL     1     -34.147  21.380   0.750  0.00  0.00    +0.000 C 
ATOM     17  C   UNL     1     -34.989  20.117   2.629  0.00  0.00    +0.000 C 
BRANCH  13  18
ATOM     18  C   UNL     1     -33.761  18.952   0.843  0.00  0.00    +0.034 C 
ATOM     19  C   UNL     1     -34.535  18.143   0.010  0.00  0.00    +0.134 C 
ATOM     20  C   UNL     1     -32.443  18.598   1.132  0.00  0.00    +0.003 C 
ATOM     21  C   UNL     1     -33.991  16.978  -0.533  0.00  0.00    +0.037 C 
ATOM     22  C   UNL     1     -31.899  17.434   0.587  0.00  0.00    +0.000 C 
ATOM     23  C   UNL     1     -32.672  16.624  -0.244  0.00  0.00    +0.003 C 
BRANCH  19  24
ATOM     24  O   UNL     1     -35.825  18.465  -0.288  0.00  0.00    -0.506 OA
ATOM     25  H   UNL     1     -36.322  19.001   0.298  0.00  0.00    +0.292 HD
ENDBRANCH  19  24
ENDBRANCH  13  18
ENDBRANCH   4  12
BRANCH   7  26
ATOM     26  O   UNL     1     -38.123  22.681   1.455  0.00  0.00    -0.505 OA
ATOM     27  H   UNL     1     -38.002  22.702   0.527  0.00  0.00    +0.292 HD
ENDBRANCH   7  26
BRANCH   9  29
ATOM     28  N   UNL     1     -41.526  23.840   0.777  0.00  0.00    -0.191 NA
ATOM     29  C   UNL     1     -40.597  24.168   1.391  0.00  0.00    +0.108 C 
ENDBRANCH   9  29
TORSDOF 5
ENDMDL
MODEL 2
REMARK VINA RESULT:      -6.6      4.317      7.670
REMARK  Name = 54708532
REMARK  5 active torsions:
REMARK  status: ('A' for Active; 'I' for Inactive)
REMARK    1  A    between atoms: C_4  and  C_12
REMARK    2  A    between atoms: C_7  and  O_26
REMARK    3  A    between atoms: C_9  and  C_29
REMARK    4  A    between atoms: C_13  and  C_18
REMARK    5  A    between atoms: C_19  and  O_24
REMARK                            x       y       z     vdW  Elec       q    Type
REMARK                         _______ _______ _______ _____ _____    ______ ____
ROOT
ATOM      1  S   UNL     1     -35.936  21.567   3.370  0.00  0.00    -0.069 S 
ATOM      2  O   UNL     1     -40.423  23.112   1.985  0.00  0.00    -0.266 OA
ATOM      3  N   UNL     1     -38.342  22.380   2.628  0.00  0.00    -0.315 N 
ATOM      4  C   UNL     1     -35.342  24.052   3.776  0.00  0.00    +0.011 C 
ATOM      5  C   UNL     1     -36.688  24.023   3.322  0.00  0.00    +0.057 A 
ATOM      6  C   UNL     1     -37.101  22.743   3.076  0.00  0.00    +0.092 A 
ATOM      7  C   UNL     1     -37.624  25.073   3.095  0.00  0.00    +0.150 A 
ATOM      8  C   UNL     1     -34.807  22.777   3.850  0.00  0.00    +0.037 C 
ATOM      9  C   UNL     1     -38.875  24.809   2.652  0.00  0.00    +0.158 A 
ATOM     10  C   UNL     1     -39.289  23.368   2.391  0.00  0.00    +0.271 A 
ATOM     11  H   UNL     1     -38.561  21.433   2.475  0.00  0.00    +0.169 HD
ENDROOT
BRANCH   4  12
ATOM     12  C   UNL     1     -34.528  25.182   4.142  0.00  0.00    +0.001 C 
ATOM     13  C   UNL     1     -32.953  27.372   4.851  0.00  0.00    +0.003 C 
ATOM     14  C   UNL     1     -33.794  25.858   3.167  0.00  0.00    +0.000 C 
ATOM     15  C   UNL     1     -34.475  25.602   5.471  0.00  0.00    +0.000 C 
ATOM     16  C   UNL     1     -33.006  26.953   3.522  0.00  0.00    +0.000 C 
ATOM     17  C   UNL     1     -33.687  26.697   5.826  0.00  0.00    +0.000 C 
BRANCH  13  18
ATOM     18  C   UNL     1     -32.137  28.509   5.219  0.00  0.00    +0.034 C 
ATOM     19  C   UNL     1     -31.152  28.396   6.201  0.00  0.00    +0.134 C 
ATOM     20  C   UNL     1     -32.342  29.729   4.574  0.00  0.00    +0.003 C 
ATOM     21  C   UNL     1     -30.374  29.503   6.539  0.00  0.00    +0.037 C 
ATOM     22  C   UNL     1     -31.562  30.836   4.912  0.00  0.00    +0.000 C 
ATOM     23  C   UNL     1     -30.579  30.723   5.894  0.00  0.00    +0.003 C 
BRANCH  19  24
ATOM     24  O   UNL     1     -30.931  27.216   6.846  0.00  0.00    -0.506 OA
ATOM     25  H   UNL     1     -30.065  26.986   7.121  0.00  0.00    +0.292 HD
ENDBRANCH  19  24
ENDBRANCH  13  18
ENDBRANCH   4  12
BRANCH   7  26
ATOM     26  O   UNL     1     -37.149  26.341   3.358  0.00  0.00    -0.505 OA
ATOM     27  H   UNL     1     -37.573  27.088   2.985  0.00  0.00    +0.292 HD
ENDBRANCH   7  26
BRANCH   9  29
ATOM     28  N   UNL     1     -40.610  26.675   2.220  0.00  0.00    -0.191 NA
ATOM     29  C   UNL     1     -39.831  25.838   2.414  0.00  0.00    +0.108 C 
ENDBRANCH   9  29
TORSDOF 5
ENDMDL
MODEL 3
REMARK VINA RESULT:      -6.5      4.165      7.590
REMARK  Name = 54708532
REMARK  5 active torsions:
REMARK  status: ('A' for Active; 'I' for Inactive)
REMARK    1  A    between atoms: C_4  and  C_12
REMARK    2  A    between atoms: C_7  and  O_26
REMARK    3  A    between atoms: C_9  and  C_29
REMARK    4  A    between atoms: C_13  and  C_18
REMARK    5  A    between atoms: C_19  and  O_24
REMARK                            x       y       z     vdW  Elec       q    Type
REMARK                         _______ _______ _______ _____ _____    ______ ____
ROOT
ATOM      1  S   UNL     1     -36.259  21.651   2.828  0.00  0.00    -0.069 S 
ATOM      2  O   UNL     1     -40.800  23.346   1.856  0.00  0.00    -0.266 OA
ATOM      3  N   UNL     1     -38.695  22.544   2.307  0.00  0.00    -0.315 N 
ATOM      4  C   UNL     1     -35.618  24.081   3.441  0.00  0.00    +0.011 C 
ATOM      5  C   UNL     1     -36.987  24.103   3.063  0.00  0.00    +0.057 A 
ATOM      6  C   UNL     1     -37.426  22.855   2.717  0.00  0.00    +0.092 A 
ATOM      7  C   UNL     1     -37.924  25.175   2.993  0.00  0.00    +0.150 A 
ATOM      8  C   UNL     1     -35.093  22.802   3.360  0.00  0.00    +0.037 C 
ATOM      9  C   UNL     1     -39.200  24.961   2.597  0.00  0.00    +0.158 A 
ATOM     10  C   UNL     1     -39.643  23.556   2.221  0.00  0.00    +0.271 A 
ATOM     11  H   UNL     1     -38.932  21.618   2.075  0.00  0.00    +0.169 HD
ENDROOT
BRANCH   4  12
ATOM     12  C   UNL     1     -34.774  25.166   3.869  0.00  0.00    +0.001 C 
ATOM     13  C   UNL     1     -33.137  27.268   4.697  0.00  0.00    +0.003 C 
ATOM     14  C   UNL     1     -34.696  25.498   5.221  0.00  0.00    +0.000 C 
ATOM     15  C   UNL     1     -34.032  25.885   2.931  0.00  0.00    +0.000 C 
ATOM     16  C   UNL     1     -33.878  26.549   5.636  0.00  0.00    +0.000 C 
ATOM     17  C   UNL     1     -33.214  26.936   3.345  0.00  0.00    +0.000 C 
BRANCH  13  18
ATOM     18  C   UNL     1     -32.287  28.357   5.128  0.00  0.00    +0.034 C 
ATOM     19  C   UNL     1     -31.454  28.218   6.238  0.00  0.00    +0.134 C 
ATOM     20  C   UNL     1     -32.305  29.555   4.414  0.00  0.00    +0.003 C 
ATOM     21  C   UNL     1     -30.640  29.279   6.636  0.00  0.00    +0.037 C 
ATOM     22  C   UNL     1     -31.490  30.616   4.812  0.00  0.00    +0.000 C 
ATOM     23  C   UNL     1     -30.658  30.478   5.922  0.00  0.00    +0.003 C 
BRANCH  19  24
ATOM     24  O   UNL     1     -31.417  27.058   6.953  0.00  0.00    -0.506 OA
ATOM     25  H   UNL     1     -32.192  26.540   7.047  0.00  0.00    +0.292 HD
ENDBRANCH  19  24
ENDBRANCH  13  18
ENDBRANCH   4  12
BRANCH   7  26
ATOM     26  O   UNL     1     -37.422  26.409   3.352  0.00  0.00    -0.505 OA
ATOM     27  H   UNL     1     -37.661  26.793   4.172  0.00  0.00    +0.292 HD
ENDBRANCH   7  26
BRANCH   9  29
ATOM     28  N   UNL     1     -40.936  26.871   2.447  0.00  0.00    -0.191 NA
ATOM     29  C   UNL     1     -40.157  26.014   2.516  0.00  0.00    +0.108 C 
ENDBRANCH   9  29
TORSDOF 5
ENDMDL
MODEL 4
REMARK VINA RESULT:      -6.4      3.861      7.309
REMARK  Name = 54708532
REMARK  5 active torsions:
REMARK  status: ('A' for Active; 'I' for Inactive)
REMARK    1  A    between atoms: C_4  and  C_12
REMARK    2  A    between atoms: C_7  and  O_26
REMARK    3  A    between atoms: C_9  and  C_29
REMARK    4  A    between atoms: C_13  and  C_18
REMARK    5  A    between atoms: C_19  and  O_24
REMARK                            x       y       z     vdW  Elec       q    Type
REMARK                         _______ _______ _______ _____ _____    ______ ____
ROOT
ATOM      1  S   UNL     1     -35.858  20.682   2.687  0.00  0.00    -0.069 S 
ATOM      2  O   UNL     1     -40.524  21.778   1.478  0.00  0.00    -0.266 OA
ATOM      3  N   UNL     1     -38.358  21.254   2.038  0.00  0.00    -0.315 N 
ATOM      4  C   UNL     1     -35.553  23.183   3.271  0.00  0.00    +0.011 C 
ATOM      5  C   UNL     1     -36.895  23.027   2.833  0.00  0.00    +0.057 A 
ATOM      6  C   UNL     1     -37.159  21.729   2.497  0.00  0.00    +0.092 A 
ATOM      7  C   UNL     1     -37.953  23.973   2.697  0.00  0.00    +0.150 A 
ATOM      8  C   UNL     1     -34.869  21.979   3.243  0.00  0.00    +0.037 C 
ATOM      9  C   UNL     1     -39.173  23.594   2.251  0.00  0.00    +0.158 A 
ATOM     10  C   UNL     1     -39.420  22.137   1.888  0.00  0.00    +0.271 A 
ATOM     11  H   UNL     1     -38.467  20.302   1.817  0.00  0.00    +0.169 HD
ENDROOT
BRANCH   4  12
ATOM     12  C   UNL     1     -34.870  24.373   3.711  0.00  0.00    +0.001 C 
ATOM     13  C   UNL     1     -33.550  26.677   4.564  0.00  0.00    +0.003 C 
ATOM     14  C   UNL     1     -34.059  25.080   2.824  0.00  0.00    +0.000 C 
ATOM     15  C   UNL     1     -35.022  24.818   5.025  0.00  0.00    +0.000 C 
ATOM     16  C   UNL     1     -33.398  26.233   3.250  0.00  0.00    +0.000 C 
ATOM     17  C   UNL     1     -34.361  25.970   5.451  0.00  0.00    +0.000 C 
BRANCH  13  18
ATOM     18  C   UNL     1     -32.865  27.874   5.005  0.00  0.00    +0.034 C 
ATOM     19  C   UNL     1     -32.237  27.920   6.250  0.00  0.00    +0.134 C 
ATOM     20  C   UNL     1     -32.836  28.988   4.166  0.00  0.00    +0.003 C 
ATOM     21  C   UNL     1     -31.581  29.082   6.657  0.00  0.00    +0.037 C 
ATOM     22  C   UNL     1     -32.179  30.149   4.573  0.00  0.00    +0.000 C 
ATOM     23  C   UNL     1     -31.552  30.197   5.817  0.00  0.00    +0.003 C 
BRANCH  19  24
ATOM     24  O   UNL     1     -32.251  26.846   7.089  0.00  0.00    -0.506 OA
ATOM     25  H   UNL     1     -32.990  26.695   7.646  0.00  0.00    +0.292 HD
ENDBRANCH  19  24
ENDBRANCH  13  18
ENDBRANCH   4  12
BRANCH   7  26
ATOM     26  O   UNL     1     -37.625  25.265   3.049  0.00  0.00    -0.505 OA
ATOM     27  H   UNL     1     -38.042  25.988   2.623  0.00  0.00    +0.292 HD
ENDBRANCH   7  26
BRANCH   9  29
ATOM     28  N   UNL     1     -41.123  25.269   1.982  0.00  0.00    -0.191 NA
ATOM     29  C   UNL     1     -40.248  24.517   2.103  0.00  0.00    +0.108 C 
ENDBRANCH   9  29
TORSDOF 5
ENDMDL
MODEL 5
REMARK VINA RESULT:      -6.3      3.595      7.571
REMARK  Name = 54708532
REMARK  5 active torsions:
REMARK  status: ('A' for Active; 'I' for Inactive)
REMARK    1  A    between atoms: C_4  and  C_12
REMARK    2  A    between atoms: C_7  and  O_26
REMARK    3  A    between atoms: C_9  and  C_29
REMARK    4  A    between atoms: C_13  and  C_18
REMARK    5  A    between atoms: C_19  and  O_24
REMARK                            x       y       z     vdW  Elec       q    Type
REMARK                         _______ _______ _______ _____ _____    ______ ____
ROOT
ATOM      1  S   UNL     1     -33.129  17.400  -0.404  0.00  0.00    -0.069 S 
ATOM      2  O   UNL     1     -37.372  15.791  -2.363  0.00  0.00    -0.266 OA
ATOM      3  N   UNL     1     -35.393  16.527  -1.457  0.00  0.00    -0.315 N 
ATOM      4  C   UNL     1     -34.510  19.257   0.751  0.00  0.00    +0.011 C 
ATOM      5  C   UNL     1     -35.427  18.473   0.001  0.00  0.00    +0.057 A 
ATOM      6  C   UNL     1     -34.790  17.455  -0.653  0.00  0.00    +0.092 A 
ATOM      7  C   UNL     1     -36.838  18.582  -0.163  0.00  0.00    +0.150 A 
ATOM      8  C   UNL     1     -33.216  18.783   0.620  0.00  0.00    +0.037 C 
ATOM      9  C   UNL     1     -37.519  17.708  -0.940  0.00  0.00    +0.158 A 
ATOM     10  C   UNL     1     -36.767  16.592  -1.650  0.00  0.00    +0.271 A 
ATOM     11  H   UNL     1     -34.862  15.823  -1.894  0.00  0.00    +0.169 HD
ENDROOT
BRANCH   4  12
ATOM     12  C   UNL     1     -34.759  20.413   1.574  0.00  0.00    +0.001 C 
ATOM     13  C   UNL     1     -35.241  22.651   3.167  0.00  0.00    +0.003 C 
ATOM     14  C   UNL     1     -35.187  20.251   2.891  0.00  0.00    +0.000 C 
ATOM     15  C   UNL     1     -34.571  21.693   1.053  0.00  0.00    +0.000 C 
ATOM     16  C   UNL     1     -35.429  21.371   3.688  0.00  0.00    +0.000 C 
ATOM     17  C   UNL     1     -34.813  22.812   1.850  0.00  0.00    +0.000 C 
BRANCH  13  18
ATOM     18  C   UNL     1     -35.490  23.812   3.994  0.00  0.00    +0.034 C 
ATOM     19  C   UNL     1     -36.764  24.376   4.070  0.00  0.00    +0.134 C 
ATOM     20  C   UNL     1     -34.437  24.364   4.725  0.00  0.00    +0.003 C 
ATOM     21  C   UNL     1     -36.984  25.494   4.875  0.00  0.00    +0.037 C 
ATOM     22  C   UNL     1     -34.659  25.481   5.530  0.00  0.00    +0.000 C 
ATOM     23  C   UNL     1     -35.931  26.046   5.605  0.00  0.00    +0.003 C 
BRANCH  19  24
ATOM     24  O   UNL     1     -37.810  23.857   3.367  0.00  0.00    -0.506 OA
ATOM     25  H   UNL     1     -38.627  24.316   3.334  0.00  0.00    +0.292 HD
ENDBRANCH  19  24
ENDBRANCH  13  18
ENDBRANCH   4  12
BRANCH   7  26
ATOM     26  O   UNL     1     -37.423  19.629   0.519  0.00  0.00    -0.505 OA
ATOM     27  H   UNL     1     -37.868  19.471   1.328  0.00  0.00    +0.292 HD
ENDBRANCH   7  26
BRANCH   9  29
ATOM     28  N   UNL     1     -40.077  17.864  -1.277  0.00  0.00    -0.191 NA
ATOM     29  C   UNL     1     -38.929  17.794  -1.125  0.00  0.00    +0.108 C 
ENDBRANCH   9  29
TORSDOF 5
ENDMDL
MODEL 6
REMARK VINA RESULT:      -6.2      6.107      9.185
REMARK  Name = 54708532
REMARK  5 active torsions:
REMARK  status: ('A' for Active; 'I' for Inactive)
REMARK    1  A    between atoms: C_4  and  C_12
REMARK    2  A    between atoms: C_7  and  O_26
REMARK    3  A    between atoms: C_9  and  C_29
REMARK    4  A    between atoms: C_13  and  C_18
REMARK    5  A    between atoms: C_19  and  O_24
REMARK                            x       y       z     vdW  Elec       q    Type
REMARK                         _______ _______ _______ _____ _____    ______ ____
ROOT
ATOM      1  S   UNL     1     -35.919  27.492   1.696  0.00  0.00    -0.069 S 
ATOM      2  O   UNL     1     -37.450  23.258   3.736  0.00  0.00    -0.266 OA
ATOM      3  N   UNL     1     -36.748  25.224   2.777  0.00  0.00    -0.315 N 
ATOM      4  C   UNL     1     -33.964  27.457   3.389  0.00  0.00    +0.011 C 
ATOM      5  C   UNL     1     -34.743  26.296   3.640  0.00  0.00    +0.057 A 
ATOM      6  C   UNL     1     -35.810  26.221   2.790  0.00  0.00    +0.092 A 
ATOM      7  C   UNL     1     -34.587  25.251   4.597  0.00  0.00    +0.150 A 
ATOM      8  C   UNL     1     -34.493  28.204   2.350  0.00  0.00    +0.037 C 
ATOM      9  C   UNL     1     -35.466  24.224   4.658  0.00  0.00    +0.158 A 
ATOM     10  C   UNL     1     -36.640  24.184   3.691  0.00  0.00    +0.271 A 
ATOM     11  H   UNL     1     -37.490  25.244   2.131  0.00  0.00    +0.169 HD
ENDROOT
BRANCH   4  12
ATOM     12  C   UNL     1     -32.769  27.914   4.051  0.00  0.00    +0.001 C 
ATOM     13  C   UNL     1     -30.454  28.796   5.331  0.00  0.00    +0.003 C 
ATOM     14  C   UNL     1     -32.858  28.558   5.284  0.00  0.00    +0.000 C 
ATOM     15  C   UNL     1     -31.523  27.709   3.458  0.00  0.00    +0.000 C 
ATOM     16  C   UNL     1     -31.699  29.001   5.925  0.00  0.00    +0.000 C 
ATOM     17  C   UNL     1     -30.365  28.151   4.098  0.00  0.00    +0.000 C 
BRANCH  13  18
ATOM     18  C   UNL     1     -29.253  29.253   5.997  0.00  0.00    +0.034 C 
ATOM     19  C   UNL     1     -28.556  28.417   6.869  0.00  0.00    +0.134 C 
ATOM     20  C   UNL     1     -28.792  30.547   5.754  0.00  0.00    +0.003 C 
ATOM     21  C   UNL     1     -27.399  28.875   7.500  0.00  0.00    +0.037 C 
ATOM     22  C   UNL     1     -27.634  31.004   6.384  0.00  0.00    +0.000 C 
ATOM     23  C   UNL     1     -26.938  30.169   7.256  0.00  0.00    +0.003 C 
BRANCH  19  24
ATOM     24  O   UNL     1     -28.984  27.148   7.125  0.00  0.00    -0.506 OA
ATOM     25  H   UNL     1     -29.901  26.970   7.206  0.00  0.00    +0.292 HD
ENDBRANCH  19  24
ENDBRANCH  13  18
ENDBRANCH   4  12
BRANCH   7  26
ATOM     26  O   UNL     1     -33.493  25.383   5.428  0.00  0.00    -0.505 OA
ATOM     27  H   UNL     1     -33.255  26.225   5.760  0.00  0.00    +0.292 HD
ENDBRANCH   7  26
BRANCH   9  29
ATOM     28  N   UNL     1     -35.233  22.306   6.375  0.00  0.00    -0.191 NA
ATOM     29  C   UNL     1     -35.336  23.167   5.604  0.00  0.00    +0.108 C 
ENDBRANCH   9  29
TORSDOF 5
ENDMDL
MODEL 7
REMARK VINA RESULT:      -6.2      4.113      8.363
REMARK  Name = 54708532
REMARK  5 active torsions:
REMARK  status: ('A' for Active; 'I' for Inactive)
REMARK    1  A    between atoms: C_4  and  C_12
REMARK    2  A    between atoms: C_7  and  O_26
REMARK    3  A    between atoms: C_9  and  C_29
REMARK    4  A    between atoms: C_13  and  C_18
REMARK    5  A    between atoms: C_19  and  O_24
REMARK                            x       y       z     vdW  Elec       q    Type
REMARK                         _______ _______ _______ _____ _____    ______ ____
ROOT
ATOM      1  S   UNL     1     -37.286  18.054  -1.198  0.00  0.00    -0.069 S 
ATOM      2  O   UNL     1     -33.124  15.397  -1.417  0.00  0.00    -0.266 OA
ATOM      3  N   UNL     1     -35.064  16.624  -1.326  0.00  0.00    -0.315 N 
ATOM      4  C   UNL     1     -36.049  19.627   0.441  0.00  0.00    +0.011 C 
ATOM      5  C   UNL     1     -35.128  18.608   0.079  0.00  0.00    +0.057 A 
ATOM      6  C   UNL     1     -35.691  17.717  -0.792  0.00  0.00    +0.092 A 
ATOM      7  C   UNL     1     -33.775  18.385   0.469  0.00  0.00    +0.150 A 
ATOM      8  C   UNL     1     -37.271  19.448  -0.185  0.00  0.00    +0.037 C 
ATOM      9  C   UNL     1     -33.077  17.330  -0.009  0.00  0.00    +0.158 A 
ATOM     10  C   UNL     1     -33.745  16.364  -0.976  0.00  0.00    +0.271 A 
ATOM     11  H   UNL     1     -35.541  16.029  -1.948  0.00  0.00    +0.169 HD
ENDROOT
BRANCH   4  12
ATOM     12  C   UNL     1     -35.866  20.748   1.327  0.00  0.00    +0.001 C 
ATOM     13  C   UNL     1     -35.513  22.918   3.043  0.00  0.00    +0.003 C 
ATOM     14  C   UNL     1     -35.692  22.029   0.803  0.00  0.00    +0.000 C 
ATOM     15  C   UNL     1     -35.864  20.552   2.708  0.00  0.00    +0.000 C 
ATOM     16  C   UNL     1     -35.515  23.115   1.662  0.00  0.00    +0.000 C 
ATOM     17  C   UNL     1     -35.687  21.638   3.566  0.00  0.00    +0.000 C 
BRANCH  13  18
ATOM     18  C   UNL     1     -35.331  24.045   3.933  0.00  0.00    +0.034 C 
ATOM     19  C   UNL     1     -36.429  24.728   4.456  0.00  0.00    +0.134 C 
ATOM     20  C   UNL     1     -34.037  24.443   4.269  0.00  0.00    +0.003 C 
ATOM     21  C   UNL     1     -36.233  25.810   5.314  0.00  0.00    +0.037 C 
ATOM     22  C   UNL     1     -33.842  25.525   5.128  0.00  0.00    +0.000 C 
ATOM     23  C   UNL     1     -34.939  26.208   5.650  0.00  0.00    +0.003 C 
BRANCH  19  24
ATOM     24  O   UNL     1     -37.704  24.360   4.143  0.00  0.00    -0.506 OA
ATOM     25  H   UNL     1     -37.871  23.858   3.370  0.00  0.00    +0.292 HD
ENDBRANCH  19  24
ENDBRANCH  13  18
ENDBRANCH   4  12
BRANCH   7  26
ATOM     26  O   UNL     1     -33.264  19.315   1.350  0.00  0.00    -0.505 OA
ATOM     27  H   UNL     1     -32.622  19.933   1.061  0.00  0.00    +0.292 HD
ENDBRANCH   7  26
BRANCH   9  29
ATOM     28  N   UNL     1     -30.623  16.877   0.667  0.00  0.00    -0.191 NA
ATOM     29  C   UNL     1     -31.724  17.081   0.364  0.00  0.00    +0.108 C 
ENDBRANCH   9  29
TORSDOF 5
ENDMDL
MODEL 8
REMARK VINA RESULT:      -5.9      5.342      7.309
REMARK  Name = 54708532
REMARK  5 active torsions:
REMARK  status: ('A' for Active; 'I' for Inactive)
REMARK    1  A    between atoms: C_4  and  C_12
REMARK    2  A    between atoms: C_7  and  O_26
REMARK    3  A    between atoms: C_9  and  C_29
REMARK    4  A    between atoms: C_13  and  C_18
REMARK    5  A    between atoms: C_19  and  O_24
REMARK                            x       y       z     vdW  Elec       q    Type
REMARK                         _______ _______ _______ _____ _____    ______ ____
ROOT
ATOM      1  S   UNL     1     -44.017  25.218   1.023  0.00  0.00    -0.069 S 
ATOM      2  O   UNL     1     -46.083  28.498   4.089  0.00  0.00    -0.266 OA
ATOM      3  N   UNL     1     -45.136  26.969   2.660  0.00  0.00    -0.315 N 
ATOM      4  C   UNL     1     -41.748  25.813   2.114  0.00  0.00    +0.011 C 
ATOM      5  C   UNL     1     -42.733  26.607   2.761  0.00  0.00    +0.057 A 
ATOM      6  C   UNL     1     -43.978  26.365   2.251  0.00  0.00    +0.092 A 
ATOM      7  C   UNL     1     -42.623  27.569   3.807  0.00  0.00    +0.150 A 
ATOM      8  C   UNL     1     -42.311  25.005   1.141  0.00  0.00    +0.037 C 
ATOM      9  C   UNL     1     -43.715  28.216   4.275  0.00  0.00    +0.158 A 
ATOM     10  C   UNL     1     -45.081  27.915   3.676  0.00  0.00    +0.271 A 
ATOM     11  H   UNL     1     -45.995  26.739   2.240  0.00  0.00    +0.169 HD
ENDROOT
BRANCH   4  12
ATOM     12  C   UNL     1     -40.327  25.760   2.342  0.00  0.00    +0.001 C 
ATOM     13  C   UNL     1     -37.575  25.656   2.785  0.00  0.00    +0.003 C 
ATOM     14  C   UNL     1     -39.472  26.581   1.608  0.00  0.00    +0.000 C 
ATOM     15  C   UNL     1     -39.806  24.887   3.298  0.00  0.00    +0.000 C 
ATOM     16  C   UNL     1     -38.095  26.530   1.829  0.00  0.00    +0.000 C 
ATOM     17  C   UNL     1     -38.430  24.835   3.518  0.00  0.00    +0.000 C 
BRANCH  13  18
ATOM     18  C   UNL     1     -36.147  25.604   3.015  0.00  0.00    +0.034 C 
ATOM     19  C   UNL     1     -35.592  26.121   4.186  0.00  0.00    +0.134 C 
ATOM     20  C   UNL     1     -35.324  25.024   2.050  0.00  0.00    +0.003 C 
ATOM     21  C   UNL     1     -34.214  26.060   4.391  0.00  0.00    +0.037 C 
ATOM     22  C   UNL     1     -33.946  24.962   2.256  0.00  0.00    +0.000 C 
ATOM     23  C   UNL     1     -33.391  25.480   3.425  0.00  0.00    +0.003 C 
BRANCH  19  24
ATOM     24  O   UNL     1     -36.373  26.693   5.146  0.00  0.00    -0.506 OA
ATOM     25  H   UNL     1     -36.488  27.623   5.164  0.00  0.00    +0.292 HD
ENDBRANCH  19  24
ENDBRANCH  13  18
ENDBRANCH   4  12
BRANCH   7  26
ATOM     26  O   UNL     1     -41.343  27.771   4.278  0.00  0.00    -0.505 OA
ATOM     27  H   UNL     1     -40.996  28.639   4.336  0.00  0.00    +0.292 HD
ENDBRANCH   7  26
BRANCH   9  29
ATOM     28  N   UNL     1     -43.573  29.971   6.168  0.00  0.00    -0.191 NA
ATOM     29  C   UNL     1     -43.636  29.184   5.318  0.00  0.00    +0.108 C 
ENDBRANCH   9  29
TORSDOF 5
ENDMDL
MODEL 9
REMARK VINA RESULT:      -5.9      4.787      7.337
REMARK  Name = 54708532
REMARK  5 active torsions:
REMARK  status: ('A' for Active; 'I' for Inactive)
REMARK    1  A    between atoms: C_4  and  C_12
REMARK    2  A    between atoms: C_7  and  O_26
REMARK    3  A    between atoms: C_9  and  C_29
REMARK    4  A    between atoms: C_13  and  C_18
REMARK    5  A    between atoms: C_19  and  O_24
REMARK                            x       y       z     vdW  Elec       q    Type
REMARK                         _______ _______ _______ _____ _____    ______ ____
ROOT
ATOM      1  S   UNL     1     -43.678  27.428   0.070  0.00  0.00    -0.069 S 
ATOM      2  O   UNL     1     -45.625  30.310   3.582  0.00  0.00    -0.266 OA
ATOM      3  N   UNL     1     -44.732  28.972   1.942  0.00  0.00    -0.315 N 
ATOM      4  C   UNL     1     -41.792  26.867   1.749  0.00  0.00    +0.011 C 
ATOM      5  C   UNL     1     -42.675  27.763   2.410  0.00  0.00    +0.057 A 
ATOM      6  C   UNL     1     -43.715  28.123   1.600  0.00  0.00    +0.092 A 
ATOM      7  C   UNL     1     -42.640  28.314   3.724  0.00  0.00    +0.150 A 
ATOM      8  C   UNL     1     -42.220  26.597   0.460  0.00  0.00    +0.037 C 
ATOM      9  C   UNL     1     -43.604  29.163   4.149  0.00  0.00    +0.158 A 
ATOM     10  C   UNL     1     -44.742  29.536   3.211  0.00  0.00    +0.271 A 
ATOM     11  H   UNL     1     -45.446  29.182   1.298  0.00  0.00    +0.169 HD
ENDROOT
BRANCH   4  12
ATOM     12  C   UNL     1     -40.584  26.253   2.236  0.00  0.00    +0.001 C 
ATOM     13  C   UNL     1     -38.245  25.062   3.180  0.00  0.00    +0.003 C 
ATOM     14  C   UNL     1     -39.342  26.718   1.805  0.00  0.00    +0.000 C 
ATOM     15  C   UNL     1     -40.657  25.192   3.140  0.00  0.00    +0.000 C 
ATOM     16  C   UNL     1     -38.172  26.122   2.277  0.00  0.00    +0.000 C 
ATOM     17  C   UNL     1     -39.487  24.597   3.611  0.00  0.00    +0.000 C 
BRANCH  13  18
ATOM     18  C   UNL     1     -37.031  24.446   3.671  0.00  0.00    +0.034 C 
ATOM     19  C   UNL     1     -36.312  25.019   4.720  0.00  0.00    +0.134 C 
ATOM     20  C   UNL     1     -36.585  23.261   3.084  0.00  0.00    +0.003 C 
ATOM     21  C   UNL     1     -35.145  24.408   5.180  0.00  0.00    +0.037 C 
ATOM     22  C   UNL     1     -35.419  22.651   3.545  0.00  0.00    +0.000 C 
ATOM     23  C   UNL     1     -34.699  23.224   4.593  0.00  0.00    +0.003 C 
BRANCH  19  24
ATOM     24  O   UNL     1     -36.725  26.175   5.312  0.00  0.00    -0.506 OA
ATOM     25  H   UNL     1     -37.616  26.269   5.586  0.00  0.00    +0.292 HD
ENDBRANCH  19  24
ENDBRANCH  13  18
ENDBRANCH   4  12
BRANCH   7  26
ATOM     26  O   UNL     1     -41.566  27.915   4.493  0.00  0.00    -0.505 OA
ATOM     27  H   UNL     1     -41.658  27.835   5.422  0.00  0.00    +0.292 HD
ENDBRANCH   7  26
BRANCH   9  29
ATOM     28  N   UNL     1     -43.587  30.192   6.520  0.00  0.00    -0.191 NA
ATOM     29  C   UNL     1     -43.594  29.731   5.456  0.00  0.00    +0.108 C 
ENDBRANCH   9  29
TORSDOF 5
ENDMDL
