MODEL 1
REMARK VINA RESULT:      -6.4      0.000      0.000
REMARK  Name = 54565471
REMARK  7 active torsions:
REMARK  status: ('A' for Active; 'I' for Inactive)
REMARK    1  A    between atoms: N_3  and  C_13
REMARK    2  A    between atoms: C_7  and  C_22
REMARK    3  A    between atoms: C_11  and  O_15
REMARK    4  A    between atoms: C_14  and  C_19
REMARK    5  A    between atoms: O_15  and  C_17
REMARK    6  A    between atoms: C_19  and  O_20
REMARK    7  A    between atoms: C_22  and  O_23
REMARK                            x       y       z     vdW  Elec       q    Type
REMARK                         _______ _______ _______ _____ _____    ______ ____
ROOT
ATOM      1  O   UNL     1     -36.070  20.644   2.761  0.00  0.00    -0.252 OA
ATOM      2  O   UNL     1     -40.417  21.194   1.368  0.00  0.00    -0.270 OA
ATOM      3  N   UNL     1     -36.992  22.787   2.866  0.00  0.00    -0.219 N 
ATOM      4  N   UNL     1     -38.238  20.933   2.070  0.00  0.00    -0.236 N 
ATOM      5  C   UNL     1     -38.111  23.577   2.635  0.00  0.00    +0.074 C 
ATOM      6  C   UNL     1     -37.024  21.404   2.582  0.00  0.00    +0.315 C 
ATOM      7  C   UNL     1     -39.271  23.122   2.145  0.00  0.00    +0.076 C 
ATOM      8  C   UNL     1     -39.383  21.674   1.821  0.00  0.00    +0.252 C 
ATOM      9  H   UNL     1     -38.284  19.971   1.864  0.00  0.00    +0.159 HD
ENDROOT
BRANCH   3  13
ATOM     10  O   UNL     1     -35.010  22.421   4.056  0.00  0.00    -0.333 OA
ATOM     11  C   UNL     1     -34.951  24.401   5.359  0.00  0.00    +0.202 C 
ATOM     12  C   UNL     1     -36.123  24.496   4.410  0.00  0.00    +0.098 C 
ATOM     13  C   UNL     1     -35.813  23.409   3.393  0.00  0.00    +0.203 C 
ATOM     14  C   UNL     1     -34.621  22.915   5.352  0.00  0.00    +0.186 C 
BRANCH  11  15
ATOM     15  O   UNL     1     -33.851  25.144   4.838  0.00  0.00    -0.449 OA
BRANCH  15  17
ATOM     16  O   UNL     1     -34.092  27.413   4.470  0.00  0.00    -0.250 OA
ATOM     17  C   UNL     1     -33.794  26.468   5.190  0.00  0.00    +0.318 C 
ATOM     18  C   UNL     1     -33.309  26.610   6.601  0.00  0.00    +0.121 C 
ENDBRANCH  15  17
ENDBRANCH  11  15
BRANCH  14  19
ATOM     19  C   UNL     1     -35.396  22.132   6.403  0.00  0.00    +0.170 C 
BRANCH  19  20
ATOM     20  O   UNL     1     -35.615  20.815   5.923  0.00  0.00    -0.379 OA
ATOM     21  H   UNL     1     -36.081  20.854   5.074  0.00  0.00    +0.211 HD
ENDBRANCH  19  20
ENDBRANCH  14  19
ENDBRANCH   3  13
BRANCH   7  22
ATOM     22  C   UNL     1     -40.465  23.990   1.906  0.00  0.00    +0.174 C 
BRANCH  22  23
ATOM     23  O   UNL     1     -40.108  25.353   2.056  0.00  0.00    -0.346 OA
ATOM     24  C   UNL     1     -41.154  26.108   2.655  0.00  0.00    +0.175 C 
ENDBRANCH  22  23
ENDBRANCH   7  22
TORSDOF 7
ENDMDL
MODEL 2
REMARK VINA RESULT:      -6.0      2.112      6.016
REMARK  Name = 54565471
REMARK  7 active torsions:
REMARK  status: ('A' for Active; 'I' for Inactive)
REMARK    1  A    between atoms: N_3  and  C_13
REMARK    2  A    between atoms: C_7  and  C_22
REMARK    3  A    between atoms: C_11  and  O_15
REMARK    4  A    between atoms: C_14  and  C_19
REMARK    5  A    between atoms: O_15  and  C_17
REMARK    6  A    between atoms: C_19  and  O_20
REMARK    7  A    between atoms: C_22  and  O_23
REMARK                            x       y       z     vdW  Elec       q    Type
REMARK                         _______ _______ _______ _____ _____    ______ ____
ROOT
ATOM      1  O   UNL     1     -39.870  21.128   1.302  0.00  0.00    -0.252 OA
ATOM      2  O   UNL     1     -35.603  20.268   2.782  0.00  0.00    -0.270 OA
ATOM      3  N   UNL     1     -38.728  22.838   2.408  0.00  0.00    -0.219 N 
ATOM      4  N   UNL     1     -37.741  20.713   2.045  0.00  0.00    -0.236 N 
ATOM      5  C   UNL     1     -37.553  23.222   3.043  0.00  0.00    +0.074 C 
ATOM      6  C   UNL     1     -38.859  21.537   1.876  0.00  0.00    +0.315 C 
ATOM      7  C   UNL     1     -36.485  22.431   3.202  0.00  0.00    +0.076 C 
ATOM      8  C   UNL     1     -36.547  21.043   2.668  0.00  0.00    +0.252 C 
ATOM      9  H   UNL     1     -37.809  19.800   1.682  0.00  0.00    +0.159 HD
ENDROOT
BRANCH   3  13
ATOM     10  O   UNL     1     -39.736  24.441   1.033  0.00  0.00    -0.333 OA
ATOM     11  C   UNL     1     -40.289  26.076   2.658  0.00  0.00    +0.202 C 
ATOM     12  C   UNL     1     -39.719  24.874   3.374  0.00  0.00    +0.098 C 
ATOM     13  C   UNL     1     -39.796  23.791   2.311  0.00  0.00    +0.203 C 
ATOM     14  C   UNL     1     -39.840  25.866   1.219  0.00  0.00    +0.186 C 
BRANCH  11  15
ATOM     15  O   UNL     1     -41.712  26.048   2.731  0.00  0.00    -0.449 OA
BRANCH  15  17
ATOM     16  O   UNL     1     -41.707  27.870   4.151  0.00  0.00    -0.250 OA
ATOM     17  C   UNL     1     -42.295  26.979   3.552  0.00  0.00    +0.318 C 
ATOM     18  C   UNL     1     -43.776  26.756   3.622  0.00  0.00    +0.121 C 
ENDBRANCH  15  17
ENDBRANCH  11  15
BRANCH  14  19
ATOM     19  C   UNL     1     -38.475  26.476   0.929  0.00  0.00    +0.170 C 
BRANCH  19  20
ATOM     20  O   UNL     1     -38.004  27.123   2.100  0.00  0.00    -0.379 OA
ATOM     21  H   UNL     1     -37.114  26.802   2.311  0.00  0.00    +0.211 HD
ENDBRANCH  19  20
ENDBRANCH  14  19
ENDBRANCH   3  13
BRANCH   7  22
ATOM     22  C   UNL     1     -35.230  22.865   3.888  0.00  0.00    +0.174 C 
BRANCH  22  23
ATOM     23  O   UNL     1     -35.502  23.174   5.243  0.00  0.00    -0.346 OA
ATOM     24  C   UNL     1     -35.324  22.042   6.087  0.00  0.00    +0.175 C 
ENDBRANCH  22  23
ENDBRANCH   7  22
TORSDOF 7
ENDMDL
MODEL 3
REMARK VINA RESULT:      -6.0      1.943      6.673
REMARK  Name = 54565471
REMARK  7 active torsions:
REMARK  status: ('A' for Active; 'I' for Inactive)
REMARK    1  A    between atoms: N_3  and  C_13
REMARK    2  A    between atoms: C_7  and  C_22
REMARK    3  A    between atoms: C_11  and  O_15
REMARK    4  A    between atoms: C_14  and  C_19
REMARK    5  A    between atoms: O_15  and  C_17
REMARK    6  A    between atoms: C_19  and  O_20
REMARK    7  A    between atoms: C_22  and  O_23
REMARK                            x       y       z     vdW  Elec       q    Type
REMARK                         _______ _______ _______ _____ _____    ______ ____
ROOT
ATOM      1  O   UNL     1     -39.151  26.193   2.679  0.00  0.00    -0.252 OA
ATOM      2  O   UNL     1     -35.589  26.338   5.583  0.00  0.00    -0.270 OA
ATOM      3  N   UNL     1     -37.831  24.280   2.890  0.00  0.00    -0.219 N 
ATOM      4  N   UNL     1     -37.371  26.252   4.124  0.00  0.00    -0.236 N 
ATOM      5  C   UNL     1     -36.732  23.695   3.509  0.00  0.00    +0.074 C 
ATOM      6  C   UNL     1     -38.191  25.611   3.189  0.00  0.00    +0.315 C 
ATOM      7  C   UNL     1     -35.950  24.310   4.404  0.00  0.00    +0.076 C 
ATOM      8  C   UNL     1     -36.267  25.717   4.770  0.00  0.00    +0.252 C 
ATOM      9  H   UNL     1     -37.604  27.182   4.348  0.00  0.00    +0.159 HD
ENDROOT
BRANCH   3  13
ATOM     10  O   UNL     1     -38.615  22.134   2.383  0.00  0.00    -0.333 OA
ATOM     11  C   UNL     1     -38.319  22.142   0.031  0.00  0.00    +0.202 C 
ATOM     12  C   UNL     1     -37.973  23.516   0.554  0.00  0.00    +0.098 C 
ATOM     13  C   UNL     1     -38.580  23.501   1.947  0.00  0.00    +0.203 C 
ATOM     14  C   UNL     1     -38.269  21.274   1.280  0.00  0.00    +0.186 C 
BRANCH  11  15
ATOM     15  O   UNL     1     -39.642  22.150  -0.500  0.00  0.00    -0.449 OA
BRANCH  15  17
ATOM     16  O   UNL     1     -41.191  20.688   0.398  0.00  0.00    -0.250 OA
ATOM     17  C   UNL     1     -40.330  20.966  -0.428  0.00  0.00    +0.318 C 
ATOM     18  C   UNL     1     -39.880  20.036  -1.514  0.00  0.00    +0.121 C 
ENDBRANCH  15  17
ENDBRANCH  11  15
BRANCH  14  19
ATOM     19  C   UNL     1     -36.882  20.704   1.550  0.00  0.00    +0.170 C 
BRANCH  19  20
ATOM     20  O   UNL     1     -36.941  19.885   2.707  0.00  0.00    -0.379 OA
ATOM     21  H   UNL     1     -36.066  19.853   3.124  0.00  0.00    +0.211 HD
ENDBRANCH  19  20
ENDBRANCH  14  19
ENDBRANCH   3  13
BRANCH   7  22
ATOM     22  C   UNL     1     -34.773  23.661   5.058  0.00  0.00    +0.174 C 
BRANCH  22  23
ATOM     23  O   UNL     1     -35.199  22.912   6.184  0.00  0.00    -0.346 OA
ATOM     24  C   UNL     1     -35.099  21.512   5.953  0.00  0.00    +0.175 C 
ENDBRANCH  22  23
ENDBRANCH   7  22
TORSDOF 7
ENDMDL
MODEL 4
REMARK VINA RESULT:      -5.9      1.753      2.701
REMARK  Name = 54565471
REMARK  7 active torsions:
REMARK  status: ('A' for Active; 'I' for Inactive)
REMARK    1  A    between atoms: N_3  and  C_13
REMARK    2  A    between atoms: C_7  and  C_22
REMARK    3  A    between atoms: C_11  and  O_15
REMARK    4  A    between atoms: C_14  and  C_19
REMARK    5  A    between atoms: O_15  and  C_17
REMARK    6  A    between atoms: C_19  and  O_20
REMARK    7  A    between atoms: C_22  and  O_23
REMARK                            x       y       z     vdW  Elec       q    Type
REMARK                         _______ _______ _______ _____ _____    ______ ____
ROOT
ATOM      1  O   UNL     1     -35.232  20.465   3.075  0.00  0.00    -0.252 OA
ATOM      2  O   UNL     1     -38.581  19.620   0.039  0.00  0.00    -0.270 OA
ATOM      3  N   UNL     1     -36.850  22.115   2.740  0.00  0.00    -0.219 N 
ATOM      4  N   UNL     1     -36.908  20.057   1.563  0.00  0.00    -0.236 N 
ATOM      5  C   UNL     1     -38.003  22.483   2.057  0.00  0.00    +0.074 C 
ATOM      6  C   UNL     1     -36.254  20.857   2.506  0.00  0.00    +0.315 C 
ATOM      7  C   UNL     1     -38.627  21.714   1.156  0.00  0.00    +0.076 C 
ATOM      8  C   UNL     1     -38.058  20.373   0.855  0.00  0.00    +0.252 C 
ATOM      9  H   UNL     1     -36.510  19.175   1.384  0.00  0.00    +0.159 HD
ENDROOT
BRANCH   3  13
ATOM     10  O   UNL     1     -37.319  23.915   4.161  0.00  0.00    -0.333 OA
ATOM     11  C   UNL     1     -35.362  25.212   3.828  0.00  0.00    +0.202 C 
ATOM     12  C   UNL     1     -35.203  23.915   3.069  0.00  0.00    +0.098 C 
ATOM     13  C   UNL     1     -36.287  23.041   3.679  0.00  0.00    +0.203 C 
ATOM     14  C   UNL     1     -36.861  25.279   4.086  0.00  0.00    +0.186 C 
BRANCH  11  15
ATOM     15  O   UNL     1     -34.661  25.133   5.066  0.00  0.00    -0.449 OA
BRANCH  15  17
ATOM     16  O   UNL     1     -33.629  26.562   6.561  0.00  0.00    -0.250 OA
ATOM     17  C   UNL     1     -33.930  26.239   5.419  0.00  0.00    +0.318 C 
ATOM     18  C   UNL     1     -33.542  27.016   4.197  0.00  0.00    +0.121 C 
ENDBRANCH  15  17
ENDBRANCH  11  15
BRANCH  14  19
ATOM     19  C   UNL     1     -37.626  25.967   2.962  0.00  0.00    +0.170 C 
BRANCH  19  20
ATOM     20  O   UNL     1     -38.879  26.405   3.462  0.00  0.00    -0.379 OA
ATOM     21  H   UNL     1     -39.493  26.537   2.724  0.00  0.00    +0.211 HD
ENDBRANCH  19  20
ENDBRANCH  14  19
ENDBRANCH   3  13
BRANCH   7  22
ATOM     22  C   UNL     1     -39.869  22.129   0.434  0.00  0.00    +0.174 C 
BRANCH  22  23
ATOM     23  O   UNL     1     -40.682  22.917   1.285  0.00  0.00    -0.346 OA
ATOM     24  C   UNL     1     -41.028  24.158   0.682  0.00  0.00    +0.175 C 
ENDBRANCH  22  23
ENDBRANCH   7  22
TORSDOF 7
ENDMDL
MODEL 5
REMARK VINA RESULT:      -5.9      2.860      4.688
REMARK  Name = 54565471
REMARK  7 active torsions:
REMARK  status: ('A' for Active; 'I' for Inactive)
REMARK    1  A    between atoms: N_3  and  C_13
REMARK    2  A    between atoms: C_7  and  C_22
REMARK    3  A    between atoms: C_11  and  O_15
REMARK    4  A    between atoms: C_14  and  C_19
REMARK    5  A    between atoms: O_15  and  C_17
REMARK    6  A    between atoms: C_19  and  O_20
REMARK    7  A    between atoms: C_22  and  O_23
REMARK                            x       y       z     vdW  Elec       q    Type
REMARK                         _______ _______ _______ _____ _____    ______ ____
ROOT
ATOM      1  O   UNL     1     -35.837  22.712   6.003  0.00  0.00    -0.252 OA
ATOM      2  O   UNL     1     -36.018  20.009   2.288  0.00  0.00    -0.270 OA
ATOM      3  N   UNL     1     -35.088  23.588   3.973  0.00  0.00    -0.219 N 
ATOM      4  N   UNL     1     -35.921  21.375   4.142  0.00  0.00    -0.236 N 
ATOM      5  C   UNL     1     -34.883  23.356   2.618  0.00  0.00    +0.074 C 
ATOM      6  C   UNL     1     -35.628  22.577   4.796  0.00  0.00    +0.315 C 
ATOM      7  C   UNL     1     -35.165  22.204   1.996  0.00  0.00    +0.076 C 
ATOM      8  C   UNL     1     -35.738  21.090   2.798  0.00  0.00    +0.252 C 
ATOM      9  H   UNL     1     -36.300  20.654   4.696  0.00  0.00    +0.159 HD
ENDROOT
BRANCH   3  13
ATOM     10  O   UNL     1     -35.855  25.762   4.376  0.00  0.00    -0.333 OA
ATOM     11  C   UNL     1     -33.887  26.984   3.871  0.00  0.00    +0.202 C 
ATOM     12  C   UNL     1     -33.562  25.511   3.784  0.00  0.00    +0.098 C 
ATOM     13  C   UNL     1     -34.737  24.872   4.507  0.00  0.00    +0.203 C 
ATOM     14  C   UNL     1     -35.408  27.007   3.806  0.00  0.00    +0.186 C 
BRANCH  11  15
ATOM     15  O   UNL     1     -33.449  27.499   5.126  0.00  0.00    -0.449 OA
BRANCH  15  17
ATOM     16  O   UNL     1     -31.259  27.810   5.795  0.00  0.00    -0.250 OA
ATOM     17  C   UNL     1     -32.234  28.134   5.128  0.00  0.00    +0.318 C 
ATOM     18  C   UNL     1     -32.256  29.302   4.188  0.00  0.00    +0.121 C 
ENDBRANCH  15  17
ENDBRANCH  11  15
BRANCH  14  19
ATOM     19  C   UNL     1     -35.939  27.085   2.380  0.00  0.00    +0.170 C 
BRANCH  19  20
ATOM     20  O   UNL     1     -37.355  27.018   2.414  0.00  0.00    -0.379 OA
ATOM     21  H   UNL     1     -37.670  27.276   3.295  0.00  0.00    +0.211 HD
ENDBRANCH  19  20
ENDBRANCH  14  19
ENDBRANCH   3  13
BRANCH   7  22
ATOM     22  C   UNL     1     -34.938  21.977   0.536  0.00  0.00    +0.174 C 
BRANCH  22  23
ATOM     23  O   UNL     1     -33.549  21.873   0.274  0.00  0.00    -0.346 OA
ATOM     24  C   UNL     1     -33.132  20.517   0.175  0.00  0.00    +0.175 C 
ENDBRANCH  22  23
ENDBRANCH   7  22
TORSDOF 7
ENDMDL
MODEL 6
REMARK VINA RESULT:      -5.9      1.483      2.169
REMARK  Name = 54565471
REMARK  7 active torsions:
REMARK  status: ('A' for Active; 'I' for Inactive)
REMARK    1  A    between atoms: N_3  and  C_13
REMARK    2  A    between atoms: C_7  and  C_22
REMARK    3  A    between atoms: C_11  and  O_15
REMARK    4  A    between atoms: C_14  and  C_19
REMARK    5  A    between atoms: O_15  and  C_17
REMARK    6  A    between atoms: C_19  and  O_20
REMARK    7  A    between atoms: C_22  and  O_23
REMARK                            x       y       z     vdW  Elec       q    Type
REMARK                         _______ _______ _______ _____ _____    ______ ____
ROOT
ATOM      1  O   UNL     1     -35.669  20.549   2.754  0.00  0.00    -0.252 OA
ATOM      2  O   UNL     1     -40.109  21.076   1.681  0.00  0.00    -0.270 OA
ATOM      3  N   UNL     1     -36.569  22.702   2.841  0.00  0.00    -0.219 N 
ATOM      4  N   UNL     1     -37.882  20.827   2.221  0.00  0.00    -0.236 N 
ATOM      5  C   UNL     1     -37.700  23.490   2.665  0.00  0.00    +0.074 C 
ATOM      6  C   UNL     1     -36.630  21.309   2.618  0.00  0.00    +0.315 C 
ATOM      7  C   UNL     1     -38.897  23.025   2.286  0.00  0.00    +0.076 C 
ATOM      8  C   UNL     1     -39.039  21.566   2.032  0.00  0.00    +0.252 C 
ATOM      9  H   UNL     1     -37.948  19.857   2.060  0.00  0.00    +0.159 HD
ENDROOT
BRANCH   3  13
ATOM     10  O   UNL     1     -35.335  23.459   4.679  0.00  0.00    -0.333 OA
ATOM     11  C   UNL     1     -34.435  25.454   3.766  0.00  0.00    +0.202 C 
ATOM     12  C   UNL     1     -35.189  24.734   2.673  0.00  0.00    +0.098 C 
ATOM     13  C   UNL     1     -35.350  23.336   3.249  0.00  0.00    +0.203 C 
ATOM     14  C   UNL     1     -34.966  24.805   5.037  0.00  0.00    +0.186 C 
BRANCH  11  15
ATOM     15  O   UNL     1     -33.039  25.195   3.637  0.00  0.00    -0.449 OA
BRANCH  15  17
ATOM     16  O   UNL     1     -31.333  25.920   2.258  0.00  0.00    -0.250 OA
ATOM     17  C   UNL     1     -32.308  26.140   2.964  0.00  0.00    +0.318 C 
ATOM     18  C   UNL     1     -32.872  27.507   3.213  0.00  0.00    +0.121 C 
ENDBRANCH  15  17
ENDBRANCH  11  15
BRANCH  14  19
ATOM     19  C   UNL     1     -36.206  25.500   5.584  0.00  0.00    +0.170 C 
BRANCH  19  20
ATOM     20  O   UNL     1     -36.239  26.831   5.092  0.00  0.00    -0.379 OA
ATOM     21  H   UNL     1     -36.988  26.932   4.485  0.00  0.00    +0.211 HD
ENDBRANCH  19  20
ENDBRANCH  14  19
ENDBRANCH   3  13
BRANCH   7  22
ATOM     22  C   UNL     1     -40.101  23.892   2.104  0.00  0.00    +0.174 C 
BRANCH  22  23
ATOM     23  O   UNL     1     -40.155  24.864   3.133  0.00  0.00    -0.346 OA
ATOM     24  C   UNL     1     -40.435  26.161   2.619  0.00  0.00    +0.175 C 
ENDBRANCH  22  23
ENDBRANCH   7  22
TORSDOF 7
ENDMDL
MODEL 7
REMARK VINA RESULT:      -5.9      2.644      6.228
REMARK  Name = 54565471
REMARK  7 active torsions:
REMARK  status: ('A' for Active; 'I' for Inactive)
REMARK    1  A    between atoms: N_3  and  C_13
REMARK    2  A    between atoms: C_7  and  C_22
REMARK    3  A    between atoms: C_11  and  O_15
REMARK    4  A    between atoms: C_14  and  C_19
REMARK    5  A    between atoms: O_15  and  C_17
REMARK    6  A    between atoms: C_19  and  O_20
REMARK    7  A    between atoms: C_22  and  O_23
REMARK                            x       y       z     vdW  Elec       q    Type
REMARK                         _______ _______ _______ _____ _____    ______ ____
ROOT
ATOM      1  O   UNL     1     -37.691  26.375   1.692  0.00  0.00    -0.252 OA
ATOM      2  O   UNL     1     -34.552  29.383   3.187  0.00  0.00    -0.270 OA
ATOM      3  N   UNL     1     -35.900  25.557   2.946  0.00  0.00    -0.219 N 
ATOM      4  N   UNL     1     -36.118  27.864   2.444  0.00  0.00    -0.236 N 
ATOM      5  C   UNL     1     -34.731  25.866   3.630  0.00  0.00    +0.074 C 
ATOM      6  C   UNL     1     -36.647  26.576   2.316  0.00  0.00    +0.315 C 
ATOM      7  C   UNL     1     -34.228  27.101   3.752  0.00  0.00    +0.076 C 
ATOM      8  C   UNL     1     -34.960  28.228   3.114  0.00  0.00    +0.252 C 
ATOM      9  H   UNL     1     -36.623  28.592   2.012  0.00  0.00    +0.159 HD
ENDROOT
BRANCH   3  13
ATOM     10  O   UNL     1     -36.684  23.753   4.214  0.00  0.00    -0.333 OA
ATOM     11  C   UNL     1     -35.515  21.981   3.160  0.00  0.00    +0.202 C 
ATOM     12  C   UNL     1     -35.230  23.253   2.395  0.00  0.00    +0.098 C 
ATOM     13  C   UNL     1     -36.320  24.187   2.895  0.00  0.00    +0.203 C 
ATOM     14  C   UNL     1     -36.050  22.490   4.491  0.00  0.00    +0.186 C 
BRANCH  11  15
ATOM     15  O   UNL     1     -36.524  21.231   2.487  0.00  0.00    -0.449 OA
BRANCH  15  17
ATOM     16  O   UNL     1     -36.755  19.628   0.838  0.00  0.00    -0.250 OA
ATOM     17  C   UNL     1     -36.084  20.215   1.678  0.00  0.00    +0.318 C 
ATOM     18  C   UNL     1     -34.644  19.910   1.962  0.00  0.00    +0.121 C 
ENDBRANCH  15  17
ENDBRANCH  11  15
BRANCH  14  19
ATOM     19  C   UNL     1     -34.951  22.733   5.517  0.00  0.00    +0.170 C 
BRANCH  19  20
ATOM     20  O   UNL     1     -34.602  21.496   6.117  0.00  0.00    -0.379 OA
ATOM     21  H   UNL     1     -33.840  21.116   5.652  0.00  0.00    +0.211 HD
ENDBRANCH  19  20
ENDBRANCH  14  19
ENDBRANCH   3  13
BRANCH   7  22
ATOM     22  C   UNL     1     -32.969  27.411   4.496  0.00  0.00    +0.174 C 
BRANCH  22  23
ATOM     23  O   UNL     1     -32.899  26.629   5.675  0.00  0.00    -0.346 OA
ATOM     24  C   UNL     1     -32.499  27.404   6.798  0.00  0.00    +0.175 C 
ENDBRANCH  22  23
ENDBRANCH   7  22
TORSDOF 7
ENDMDL
MODEL 8
REMARK VINA RESULT:      -5.6      2.325      6.642
REMARK  Name = 54565471
REMARK  7 active torsions:
REMARK  status: ('A' for Active; 'I' for Inactive)
REMARK    1  A    between atoms: N_3  and  C_13
REMARK    2  A    between atoms: C_7  and  C_22
REMARK    3  A    between atoms: C_11  and  O_15
REMARK    4  A    between atoms: C_14  and  C_19
REMARK    5  A    between atoms: O_15  and  C_17
REMARK    6  A    between atoms: C_19  and  O_20
REMARK    7  A    between atoms: C_22  and  O_23
REMARK                            x       y       z     vdW  Elec       q    Type
REMARK                         _______ _______ _______ _____ _____    ______ ____
ROOT
ATOM      1  O   UNL     1     -37.956  27.180   1.446  0.00  0.00    -0.252 OA
ATOM      2  O   UNL     1     -34.116  28.773   3.410  0.00  0.00    -0.270 OA
ATOM      3  N   UNL     1     -36.735  25.726   2.804  0.00  0.00    -0.219 N 
ATOM      4  N   UNL     1     -36.038  27.961   2.432  0.00  0.00    -0.236 N 
ATOM      5  C   UNL     1     -35.616  25.562   3.611  0.00  0.00    +0.074 C 
ATOM      6  C   UNL     1     -36.985  26.964   2.175  0.00  0.00    +0.315 C 
ATOM      7  C   UNL     1     -34.712  26.519   3.856  0.00  0.00    +0.076 C 
ATOM      8  C   UNL     1     -34.908  27.853   3.227  0.00  0.00    +0.252 C 
ATOM      9  H   UNL     1     -36.192  28.834   2.003  0.00  0.00    +0.159 HD
ENDROOT
BRANCH   3  13
ATOM     10  O   UNL     1     -37.349  23.627   3.638  0.00  0.00    -0.333 OA
ATOM     11  C   UNL     1     -37.758  22.487   1.599  0.00  0.00    +0.202 C 
ATOM     12  C   UNL     1     -37.454  23.932   1.279  0.00  0.00    +0.098 C 
ATOM     13  C   UNL     1     -37.620  24.611   2.629  0.00  0.00    +0.203 C 
ATOM     14  C   UNL     1     -37.232  22.331   3.020  0.00  0.00    +0.186 C 
BRANCH  11  15
ATOM     15  O   UNL     1     -39.168  22.277   1.579  0.00  0.00    -0.449 OA
BRANCH  15  17
ATOM     16  O   UNL     1     -40.777  20.870   0.702  0.00  0.00    -0.250 OA
ATOM     17  C   UNL     1     -39.611  21.226   0.818  0.00  0.00    +0.318 C 
ATOM     18  C   UNL     1     -38.458  20.558   0.132  0.00  0.00    +0.121 C 
ENDBRANCH  15  17
ENDBRANCH  11  15
BRANCH  14  19
ATOM     19  C   UNL     1     -35.766  21.920   3.067  0.00  0.00    +0.170 C 
BRANCH  19  20
ATOM     20  O   UNL     1     -35.655  20.701   3.783  0.00  0.00    -0.379 OA
ATOM     21  H   UNL     1     -35.947  20.835   4.698  0.00  0.00    +0.211 HD
ENDBRANCH  19  20
ENDBRANCH  14  19
ENDBRANCH   3  13
BRANCH   7  22
ATOM     22  C   UNL     1     -33.515  26.322   4.730  0.00  0.00    +0.174 C 
BRANCH  22  23
ATOM     23  O   UNL     1     -33.843  26.627   6.074  0.00  0.00    -0.346 OA
ATOM     24  C   UNL     1     -32.736  27.182   6.773  0.00  0.00    +0.175 C 
ENDBRANCH  22  23
ENDBRANCH   7  22
TORSDOF 7
ENDMDL
MODEL 9
REMARK VINA RESULT:      -5.5      2.679      4.985
REMARK  Name = 54565471
REMARK  7 active torsions:
REMARK  status: ('A' for Active; 'I' for Inactive)
REMARK    1  A    between atoms: N_3  and  C_13
REMARK    2  A    between atoms: C_7  and  C_22
REMARK    3  A    between atoms: C_11  and  O_15
REMARK    4  A    between atoms: C_14  and  C_19
REMARK    5  A    between atoms: O_15  and  C_17
REMARK    6  A    between atoms: C_19  and  O_20
REMARK    7  A    between atoms: C_22  and  O_23
REMARK                            x       y       z     vdW  Elec       q    Type
REMARK                         _______ _______ _______ _____ _____    ______ ____
ROOT
ATOM      1  O   UNL     1     -37.348  27.381   1.859  0.00  0.00    -0.252 OA
ATOM      2  O   UNL     1     -38.345  22.963   2.650  0.00  0.00    -0.270 OA
ATOM      3  N   UNL     1     -35.832  26.123   3.112  0.00  0.00    -0.219 N 
ATOM      4  N   UNL     1     -37.833  25.176   2.261  0.00  0.00    -0.236 N 
ATOM      5  C   UNL     1     -35.537  24.882   3.664  0.00  0.00    +0.074 C 
ATOM      6  C   UNL     1     -37.021  26.310   2.375  0.00  0.00    +0.315 C 
ATOM      7  C   UNL     1     -36.315  23.799   3.552  0.00  0.00    +0.076 C 
ATOM      8  C   UNL     1     -37.586  23.917   2.788  0.00  0.00    +0.252 C 
ATOM      9  H   UNL     1     -38.668  25.283   1.751  0.00  0.00    +0.159 HD
ENDROOT
BRANCH   3  13
ATOM     10  O   UNL     1     -34.081  27.339   2.147  0.00  0.00    -0.333 OA
ATOM     11  C   UNL     1     -32.706  27.648   4.053  0.00  0.00    +0.202 C 
ATOM     12  C   UNL     1     -33.980  26.968   4.497  0.00  0.00    +0.098 C 
ATOM     13  C   UNL     1     -34.906  27.199   3.313  0.00  0.00    +0.203 C 
ATOM     14  C   UNL     1     -32.700  27.423   2.548  0.00  0.00    +0.186 C 
BRANCH  11  15
ATOM     15  O   UNL     1     -32.784  29.044   4.334  0.00  0.00    -0.449 OA
BRANCH  15  17
ATOM     16  O   UNL     1     -30.663  29.947   4.178  0.00  0.00    -0.250 OA
ATOM     17  C   UNL     1     -31.647  29.625   4.832  0.00  0.00    +0.318 C 
ATOM     18  C   UNL     1     -31.768  29.819   6.313  0.00  0.00    +0.121 C 
ENDBRANCH  15  17
ENDBRANCH  11  15
BRANCH  14  19
ATOM     19  C   UNL     1     -32.017  26.122   2.146  0.00  0.00    +0.170 C 
BRANCH  19  20
ATOM     20  O   UNL     1     -30.700  26.114   2.672  0.00  0.00    -0.379 OA
ATOM     21  H   UNL     1     -30.734  26.251   3.631  0.00  0.00    +0.211 HD
ENDBRANCH  19  20
ENDBRANCH  14  19
ENDBRANCH   3  13
BRANCH   7  22
ATOM     22  C   UNL     1     -35.976  22.472   4.152  0.00  0.00    +0.174 C 
BRANCH  22  23
ATOM     23  O   UNL     1     -36.159  22.517   5.556  0.00  0.00    -0.346 OA
ATOM     24  C   UNL     1     -35.093  21.876   6.247  0.00  0.00    +0.175 C 
ENDBRANCH  22  23
ENDBRANCH   7  22
TORSDOF 7
ENDMDL
