MODEL 1
REMARK VINA RESULT:      -6.5      0.000      0.000
REMARK  Name = 57343004
REMARK  7 active torsions:
REMARK  status: ('A' for Active; 'I' for Inactive)
REMARK    1  A    between atoms: N_2  and  N_14
REMARK    2  A    between atoms: C_3  and  C_5
REMARK    3  A    between atoms: C_8  and  N_13
REMARK    4  A    between atoms: C_15  and  S_16
REMARK    5  A    between atoms: C_15  and  S_18
REMARK    6  A    between atoms: S_18  and  C_19
REMARK    7  A    between atoms: C_19  and  C_20
REMARK                            x       y       z     vdW  Elec       q    Type
REMARK                         _______ _______ _______ _____ _____    ______ ____
ROOT
ATOM      1  O   UNL     1     -37.479  24.588   4.375  0.00  0.00    -0.268 OA
ATOM      2  N   UNL     1     -36.242  24.187   2.460  0.00  0.00    -0.201 N 
ATOM      3  C   UNL     1     -36.467  24.753   3.700  0.00  0.00    +0.265 C 
ATOM      4  H   UNL     1     -35.405  24.363   1.973  0.00  0.00    +0.178 HD
ENDROOT
BRANCH   3   5
ATOM      5  C   UNL     1     -35.367  25.602   4.228  0.00  0.00    +0.055 C 
ATOM      6  C   UNL     1     -34.804  26.593   3.424  0.00  0.00    +0.006 C 
ATOM      7  C   UNL     1     -34.899  25.408   5.528  0.00  0.00    +0.006 C 
ATOM      8  C   UNL     1     -33.304  27.196   5.219  0.00  0.00    +0.143 C 
ATOM      9  C   UNL     1     -33.771  27.390   3.920  0.00  0.00    +0.024 C 
ATOM     10  C   UNL     1     -33.867  26.205   6.023  0.00  0.00    +0.024 C 
BRANCH   8  13
ATOM     11  O   UNL     1     -31.313  27.464   6.352  0.00  0.00    -0.126 OA
ATOM     12  O   UNL     1     -32.294  29.246   5.528  0.00  0.00    -0.126 OA
ATOM     13  N   UNL     1     -32.253  28.007   5.724  0.00  0.00    +0.058 N 
ENDBRANCH   8  13
ENDBRANCH   3   5
BRANCH   2  14
ATOM     14  N   UNL     1     -37.193  23.388   1.927  0.00  0.00    -0.166 NA
ATOM     15  C   UNL     1     -36.925  22.121   1.857  0.00  0.00    +0.150 C 
BRANCH  15  16
ATOM     16  S   UNL     1     -38.110  20.989   1.211  0.00  0.00    -0.086 S 
ATOM     17  C   UNL     1     -39.653  21.665   1.858  0.00  0.00    +0.076 C 
ENDBRANCH  15  16
BRANCH  15  18
ATOM     18  S   UNL     1     -35.435  21.348   2.388  0.00  0.00    -0.082 S 
BRANCH  18  19
ATOM     19  C   UNL     1     -34.535  21.365   0.820  0.00  0.00    +0.090 C 
BRANCH  19  20
ATOM     20  C   UNL     1     -33.451  20.323   0.777  0.00  0.00    -0.011 C 
ATOM     21  C   UNL     1     -32.265  20.577   0.089  0.00  0.00    -0.003 C 
ATOM     22  C   UNL     1     -33.633  19.102   1.427  0.00  0.00    -0.003 C 
ATOM     23  C   UNL     1     -31.260  19.611   0.050  0.00  0.00    -0.000 C 
ATOM     24  C   UNL     1     -32.627  18.136   1.388  0.00  0.00    -0.000 C 
ATOM     25  C   UNL     1     -31.441  18.390   0.700  0.00  0.00    -0.000 C 
ENDBRANCH  19  20
ENDBRANCH  18  19
ENDBRANCH  15  18
ENDBRANCH   2  14
TORSDOF 7
ENDMDL
MODEL 2
REMARK VINA RESULT:      -6.4      1.538      1.887
REMARK  Name = 57343004
REMARK  7 active torsions:
REMARK  status: ('A' for Active; 'I' for Inactive)
REMARK    1  A    between atoms: N_2  and  N_14
REMARK    2  A    between atoms: C_3  and  C_5
REMARK    3  A    between atoms: C_8  and  N_13
REMARK    4  A    between atoms: C_15  and  S_16
REMARK    5  A    between atoms: C_15  and  S_18
REMARK    6  A    between atoms: S_18  and  C_19
REMARK    7  A    between atoms: C_19  and  C_20
REMARK                            x       y       z     vdW  Elec       q    Type
REMARK                         _______ _______ _______ _____ _____    ______ ____
ROOT
ATOM      1  O   UNL     1     -37.974  23.315   3.403  0.00  0.00    -0.268 OA
ATOM      2  N   UNL     1     -36.159  22.290   2.398  0.00  0.00    -0.201 N 
ATOM      3  C   UNL     1     -36.767  23.244   3.190  0.00  0.00    +0.265 C 
ATOM      4  H   UNL     1     -35.183  22.292   2.271  0.00  0.00    +0.178 HD
ENDROOT
BRANCH   3   5
ATOM      5  C   UNL     1     -35.853  24.226   3.830  0.00  0.00    +0.055 C 
ATOM      6  C   UNL     1     -34.582  24.443   3.299  0.00  0.00    +0.006 C 
ATOM      7  C   UNL     1     -36.267  24.931   4.961  0.00  0.00    +0.006 C 
ATOM      8  C   UNL     1     -34.137  26.070   5.029  0.00  0.00    +0.143 C 
ATOM      9  C   UNL     1     -33.723  25.366   3.899  0.00  0.00    +0.024 C 
ATOM     10  C   UNL     1     -35.409  25.853   5.560  0.00  0.00    +0.024 C 
BRANCH   8  13
ATOM     11  O   UNL     1     -32.928  28.033   5.001  0.00  0.00    -0.126 OA
ATOM     12  O   UNL     1     -32.853  26.786   6.805  0.00  0.00    -0.126 OA
ATOM     13  N   UNL     1     -33.264  27.008   5.641  0.00  0.00    +0.058 N 
ENDBRANCH   8  13
ENDBRANCH   3   5
BRANCH   2  14
ATOM     14  N   UNL     1     -36.928  21.353   1.799  0.00  0.00    -0.166 NA
ATOM     15  C   UNL     1     -36.377  20.654   0.857  0.00  0.00    +0.150 C 
BRANCH  15  16
ATOM     16  S   UNL     1     -37.281  19.384   0.037  0.00  0.00    -0.086 S 
ATOM     17  C   UNL     1     -38.857  20.205  -0.284  0.00  0.00    +0.076 C 
ENDBRANCH  15  16
BRANCH  15  18
ATOM     18  S   UNL     1     -34.721  20.817   0.283  0.00  0.00    -0.082 S 
BRANCH  18  19
ATOM     19  C   UNL     1     -33.948  19.524   1.283  0.00  0.00    +0.090 C 
BRANCH  19  20
ATOM     20  C   UNL     1     -32.536  19.241   0.851  0.00  0.00    -0.011 C 
ATOM     21  C   UNL     1     -31.847  20.165   0.065  0.00  0.00    -0.003 C 
ATOM     22  C   UNL     1     -31.915  18.052   1.235  0.00  0.00    -0.003 C 
ATOM     23  C   UNL     1     -30.538  19.902  -0.336  0.00  0.00    -0.000 C 
ATOM     24  C   UNL     1     -30.604  17.789   0.834  0.00  0.00    -0.000 C 
ATOM     25  C   UNL     1     -29.916  18.714   0.048  0.00  0.00    -0.000 C 
ENDBRANCH  19  20
ENDBRANCH  18  19
ENDBRANCH  15  18
ENDBRANCH   2  14
TORSDOF 7
ENDMDL
MODEL 3
REMARK VINA RESULT:      -6.4      0.912      1.416
REMARK  Name = 57343004
REMARK  7 active torsions:
REMARK  status: ('A' for Active; 'I' for Inactive)
REMARK    1  A    between atoms: N_2  and  N_14
REMARK    2  A    between atoms: C_3  and  C_5
REMARK    3  A    between atoms: C_8  and  N_13
REMARK    4  A    between atoms: C_15  and  S_16
REMARK    5  A    between atoms: C_15  and  S_18
REMARK    6  A    between atoms: S_18  and  C_19
REMARK    7  A    between atoms: C_19  and  C_20
REMARK                            x       y       z     vdW  Elec       q    Type
REMARK                         _______ _______ _______ _____ _____    ______ ____
ROOT
ATOM      1  O   UNL     1     -37.042  25.843   3.001  0.00  0.00    -0.268 OA
ATOM      2  N   UNL     1     -36.241  23.909   3.987  0.00  0.00    -0.201 N 
ATOM      3  C   UNL     1     -36.208  25.256   3.684  0.00  0.00    +0.265 C 
ATOM      4  H   UNL     1     -35.537  23.502   4.542  0.00  0.00    +0.178 HD
ENDROOT
BRANCH   3   5
ATOM      5  C   UNL     1     -35.073  26.018   4.267  0.00  0.00    +0.055 C 
ATOM      6  C   UNL     1     -34.417  26.983   3.503  0.00  0.00    +0.006 C 
ATOM      7  C   UNL     1     -34.665  25.769   5.578  0.00  0.00    +0.006 C 
ATOM      8  C   UNL     1     -32.944  27.450   5.360  0.00  0.00    +0.143 C 
ATOM      9  C   UNL     1     -33.351  27.699   4.050  0.00  0.00    +0.024 C 
ATOM     10  C   UNL     1     -33.601  26.485   6.124  0.00  0.00    +0.024 C 
BRANCH   8  13
ATOM     11  O   UNL     1     -32.103  29.177   6.638  0.00  0.00    -0.126 OA
ATOM     12  O   UNL     1     -30.687  27.805   5.672  0.00  0.00    -0.126 OA
ATOM     13  N   UNL     1     -31.860  28.179   5.917  0.00  0.00    +0.058 N 
ENDBRANCH   8  13
ENDBRANCH   3   5
BRANCH   2  14
ATOM     14  N   UNL     1     -37.257  23.157   3.505  0.00  0.00    -0.166 NA
ATOM     15  C   UNL     1     -36.999  22.409   2.478  0.00  0.00    +0.150 C 
BRANCH  15  16
ATOM     16  S   UNL     1     -38.243  21.365   1.795  0.00  0.00    -0.086 S 
ATOM     17  C   UNL     1     -39.644  22.497   1.672  0.00  0.00    +0.076 C 
ENDBRANCH  15  16
BRANCH  15  18
ATOM     18  S   UNL     1     -35.450  22.287   1.650  0.00  0.00    -0.082 S 
BRANCH  18  19
ATOM     19  C   UNL     1     -35.305  20.485   1.590  0.00  0.00    +0.090 C 
BRANCH  19  20
ATOM     20  C   UNL     1     -33.942  20.041   1.135  0.00  0.00    -0.011 C 
ATOM     21  C   UNL     1     -33.448  18.796   1.522  0.00  0.00    -0.003 C 
ATOM     22  C   UNL     1     -33.172  20.876   0.325  0.00  0.00    -0.003 C 
ATOM     23  C   UNL     1     -32.184  18.385   1.100  0.00  0.00    -0.000 C 
ATOM     24  C   UNL     1     -31.908  20.464  -0.098  0.00  0.00    -0.000 C 
ATOM     25  C   UNL     1     -31.414  19.219   0.290  0.00  0.00    -0.000 C 
ENDBRANCH  19  20
ENDBRANCH  18  19
ENDBRANCH  15  18
ENDBRANCH   2  14
TORSDOF 7
ENDMDL
MODEL 4
REMARK VINA RESULT:      -6.2      4.267      5.998
REMARK  Name = 57343004
REMARK  7 active torsions:
REMARK  status: ('A' for Active; 'I' for Inactive)
REMARK    1  A    between atoms: N_2  and  N_14
REMARK    2  A    between atoms: C_3  and  C_5
REMARK    3  A    between atoms: C_8  and  N_13
REMARK    4  A    between atoms: C_15  and  S_16
REMARK    5  A    between atoms: C_15  and  S_18
REMARK    6  A    between atoms: S_18  and  C_19
REMARK    7  A    between atoms: C_19  and  C_20
REMARK                            x       y       z     vdW  Elec       q    Type
REMARK                         _______ _______ _______ _____ _____    ______ ____
ROOT
ATOM      1  O   UNL     1     -31.612  29.141   2.758  0.00  0.00    -0.268 OA
ATOM      2  N   UNL     1     -33.250  28.765   4.349  0.00  0.00    -0.201 N 
ATOM      3  C   UNL     1     -31.951  28.964   3.925  0.00  0.00    +0.265 C 
ATOM      4  H   UNL     1     -33.451  28.629   5.303  0.00  0.00    +0.178 HD
ENDROOT
BRANCH   3   5
ATOM      5  C   UNL     1     -30.920  28.977   4.995  0.00  0.00    +0.055 C 
ATOM      6  C   UNL     1     -29.650  28.457   4.746  0.00  0.00    +0.006 C 
ATOM      7  C   UNL     1     -31.222  29.512   6.248  0.00  0.00    +0.006 C 
ATOM      8  C   UNL     1     -28.984  29.004   7.003  0.00  0.00    +0.143 C 
ATOM      9  C   UNL     1     -28.682  28.470   5.751  0.00  0.00    +0.024 C 
ATOM     10  C   UNL     1     -30.254  29.525   7.252  0.00  0.00    +0.024 C 
BRANCH   8  13
ATOM     11  O   UNL     1     -27.978  29.973   8.838  0.00  0.00    -0.126 OA
ATOM     12  O   UNL     1     -27.177  28.072   8.090  0.00  0.00    -0.126 OA
ATOM     13  N   UNL     1     -27.999  29.017   8.026  0.00  0.00    +0.058 N 
ENDBRANCH   8  13
ENDBRANCH   3   5
BRANCH   2  14
ATOM     14  N   UNL     1     -34.242  28.760   3.430  0.00  0.00    -0.166 NA
ATOM     15  C   UNL     1     -34.678  27.602   3.042  0.00  0.00    +0.150 C 
BRANCH  15  16
ATOM     16  S   UNL     1     -35.992  27.485   1.875  0.00  0.00    -0.086 S 
ATOM     17  C   UNL     1     -36.104  29.185   1.277  0.00  0.00    +0.076 C 
ENDBRANCH  15  16
BRANCH  15  18
ATOM     18  S   UNL     1     -34.093  26.038   3.598  0.00  0.00    -0.082 S 
BRANCH  18  19
ATOM     19  C   UNL     1     -35.666  25.322   4.129  0.00  0.00    +0.090 C 
BRANCH  19  20
ATOM     20  C   UNL     1     -35.521  23.885   4.550  0.00  0.00    -0.011 C 
ATOM     21  C   UNL     1     -35.506  22.874   3.590  0.00  0.00    -0.003 C 
ATOM     22  C   UNL     1     -35.403  23.565   5.903  0.00  0.00    -0.003 C 
ATOM     23  C   UNL     1     -35.372  21.542   3.982  0.00  0.00    -0.000 C 
ATOM     24  C   UNL     1     -35.268  22.233   6.294  0.00  0.00    -0.000 C 
ATOM     25  C   UNL     1     -35.253  21.221   5.334  0.00  0.00    -0.000 C 
ENDBRANCH  19  20
ENDBRANCH  18  19
ENDBRANCH  15  18
ENDBRANCH   2  14
TORSDOF 7
ENDMDL
MODEL 5
REMARK VINA RESULT:      -6.1      4.636      6.541
REMARK  Name = 57343004
REMARK  7 active torsions:
REMARK  status: ('A' for Active; 'I' for Inactive)
REMARK    1  A    between atoms: N_2  and  N_14
REMARK    2  A    between atoms: C_3  and  C_5
REMARK    3  A    between atoms: C_8  and  N_13
REMARK    4  A    between atoms: C_15  and  S_16
REMARK    5  A    between atoms: C_15  and  S_18
REMARK    6  A    between atoms: S_18  and  C_19
REMARK    7  A    between atoms: C_19  and  C_20
REMARK                            x       y       z     vdW  Elec       q    Type
REMARK                         _______ _______ _______ _____ _____    ______ ____
ROOT
ATOM      1  O   UNL     1     -40.460  20.925   1.373  0.00  0.00    -0.268 OA
ATOM      2  N   UNL     1     -38.483  21.802   0.550  0.00  0.00    -0.201 N 
ATOM      3  C   UNL     1     -39.723  21.883   1.152  0.00  0.00    +0.265 C 
ATOM      4  H   UNL     1     -37.943  22.612   0.403  0.00  0.00    +0.178 HD
ENDROOT
BRANCH   3   5
ATOM      5  C   UNL     1     -40.149  23.245   1.566  0.00  0.00    +0.055 C 
ATOM      6  C   UNL     1     -39.591  23.835   2.700  0.00  0.00    +0.006 C 
ATOM      7  C   UNL     1     -41.106  23.933   0.820  0.00  0.00    +0.006 C 
ATOM      8  C   UNL     1     -40.948  25.802   2.344  0.00  0.00    +0.143 C 
ATOM      9  C   UNL     1     -39.991  25.114   3.089  0.00  0.00    +0.024 C 
ATOM     10  C   UNL     1     -41.505  25.212   1.209  0.00  0.00    +0.024 C 
BRANCH   8  13
ATOM     11  O   UNL     1     -41.454  27.365   3.962  0.00  0.00    -0.126 OA
ATOM     12  O   UNL     1     -41.605  27.957   1.854  0.00  0.00    -0.126 OA
ATOM     13  N   UNL     1     -41.355  27.103   2.739  0.00  0.00    +0.058 N 
ENDBRANCH   8  13
ENDBRANCH   3   5
BRANCH   2  14
ATOM     14  N   UNL     1     -38.023  20.591   0.164  0.00  0.00    -0.166 NA
ATOM     15  C   UNL     1     -36.764  20.349   0.362  0.00  0.00    +0.150 C 
BRANCH  15  16
ATOM     16  S   UNL     1     -36.072  18.789  -0.072  0.00  0.00    -0.086 S 
ATOM     17  C   UNL     1     -37.541  17.861  -0.564  0.00  0.00    +0.076 C 
ENDBRANCH  15  16
BRANCH  15  18
ATOM     18  S   UNL     1     -35.600  21.455   1.083  0.00  0.00    -0.082 S 
BRANCH  18  19
ATOM     19  C   UNL     1     -35.593  20.798   2.768  0.00  0.00    +0.090 C 
BRANCH  19  20
ATOM     20  C   UNL     1     -35.591  21.889   3.802  0.00  0.00    -0.011 C 
ATOM     21  C   UNL     1     -35.205  21.609   5.113  0.00  0.00    -0.003 C 
ATOM     22  C   UNL     1     -35.976  23.183   3.450  0.00  0.00    -0.003 C 
ATOM     23  C   UNL     1     -35.203  22.621   6.072  0.00  0.00    -0.000 C 
ATOM     24  C   UNL     1     -35.974  24.196   4.410  0.00  0.00    -0.000 C 
ATOM     25  C   UNL     1     -35.588  23.915   5.720  0.00  0.00    -0.000 C 
ENDBRANCH  19  20
ENDBRANCH  18  19
ENDBRANCH  15  18
ENDBRANCH   2  14
TORSDOF 7
ENDMDL
MODEL 6
REMARK VINA RESULT:      -6.1      3.531      4.332
REMARK  Name = 57343004
REMARK  7 active torsions:
REMARK  status: ('A' for Active; 'I' for Inactive)
REMARK    1  A    between atoms: N_2  and  N_14
REMARK    2  A    between atoms: C_3  and  C_5
REMARK    3  A    between atoms: C_8  and  N_13
REMARK    4  A    between atoms: C_15  and  S_16
REMARK    5  A    between atoms: C_15  and  S_18
REMARK    6  A    between atoms: S_18  and  C_19
REMARK    7  A    between atoms: C_19  and  C_20
REMARK                            x       y       z     vdW  Elec       q    Type
REMARK                         _______ _______ _______ _____ _____    ______ ____
ROOT
ATOM      1  O   UNL     1     -34.864  27.204   0.979  0.00  0.00    -0.268 OA
ATOM      2  N   UNL     1     -36.542  27.387   2.562  0.00  0.00    -0.201 N 
ATOM      3  C   UNL     1     -35.229  27.398   2.136  0.00  0.00    +0.265 C 
ATOM      4  H   UNL     1     -36.764  27.551   3.507  0.00  0.00    +0.178 HD
ENDROOT
BRANCH   3   5
ATOM      5  C   UNL     1     -34.215  27.690   3.182  0.00  0.00    +0.055 C 
ATOM      6  C   UNL     1     -34.055  26.819   4.260  0.00  0.00    +0.006 C 
ATOM      7  C   UNL     1     -33.423  28.835   3.087  0.00  0.00    +0.006 C 
ATOM      8  C   UNL     1     -32.312  28.237   5.147  0.00  0.00    +0.143 C 
ATOM      9  C   UNL     1     -33.103  27.093   5.243  0.00  0.00    +0.024 C 
ATOM     10  C   UNL     1     -32.471  29.108   4.069  0.00  0.00    +0.024 C 
BRANCH   8  13
ATOM     11  O   UNL     1     -31.515  29.503   6.903  0.00  0.00    -0.126 OA
ATOM     12  O   UNL     1     -30.341  27.768   6.248  0.00  0.00    -0.126 OA
ATOM     13  N   UNL     1     -31.343  28.516   6.147  0.00  0.00    +0.058 N 
ENDBRANCH   8  13
ENDBRANCH   3   5
BRANCH   2  14
ATOM     14  N   UNL     1     -37.519  27.147   1.659  0.00  0.00    -0.166 NA
ATOM     15  C   UNL     1     -38.305  26.143   1.896  0.00  0.00    +0.150 C 
BRANCH  15  16
ATOM     16  S   UNL     1     -39.632  25.766   0.800  0.00  0.00    -0.086 S 
ATOM     17  C   UNL     1     -40.555  24.540   1.751  0.00  0.00    +0.076 C 
ENDBRANCH  15  16
BRANCH  15  18
ATOM     18  S   UNL     1     -38.213  25.063   3.282  0.00  0.00    -0.082 S 
BRANCH  18  19
ATOM     19  C   UNL     1     -36.889  23.975   2.704  0.00  0.00    +0.090 C 
BRANCH  19  20
ATOM     20  C   UNL     1     -36.191  23.279   3.840  0.00  0.00    -0.011 C 
ATOM     21  C   UNL     1     -35.990  23.945   5.049  0.00  0.00    -0.003 C 
ATOM     22  C   UNL     1     -35.743  21.967   3.683  0.00  0.00    -0.003 C 
ATOM     23  C   UNL     1     -35.343  23.300   6.102  0.00  0.00    -0.000 C 
ATOM     24  C   UNL     1     -35.095  21.322   4.737  0.00  0.00    -0.000 C 
ATOM     25  C   UNL     1     -34.895  21.988   5.946  0.00  0.00    -0.000 C 
ENDBRANCH  19  20
ENDBRANCH  18  19
ENDBRANCH  15  18
ENDBRANCH   2  14
TORSDOF 7
ENDMDL
MODEL 7
REMARK VINA RESULT:      -6.1      4.070      7.441
REMARK  Name = 57343004
REMARK  7 active torsions:
REMARK  status: ('A' for Active; 'I' for Inactive)
REMARK    1  A    between atoms: N_2  and  N_14
REMARK    2  A    between atoms: C_3  and  C_5
REMARK    3  A    between atoms: C_8  and  N_13
REMARK    4  A    between atoms: C_15  and  S_16
REMARK    5  A    between atoms: C_15  and  S_18
REMARK    6  A    between atoms: S_18  and  C_19
REMARK    7  A    between atoms: C_19  and  C_20
REMARK                            x       y       z     vdW  Elec       q    Type
REMARK                         _______ _______ _______ _____ _____    ______ ____
ROOT
ATOM      1  O   UNL     1     -36.001  26.586   5.682  0.00  0.00    -0.268 OA
ATOM      2  N   UNL     1     -33.867  25.815   5.224  0.00  0.00    -0.201 N 
ATOM      3  C   UNL     1     -35.246  25.772   5.156  0.00  0.00    +0.265 C 
ATOM      4  H   UNL     1     -33.322  25.128   4.777  0.00  0.00    +0.178 HD
ENDROOT
BRANCH   3   5
ATOM      5  C   UNL     1     -35.816  24.654   4.360  0.00  0.00    +0.055 C 
ATOM      6  C   UNL     1     -35.020  23.558   4.029  0.00  0.00    +0.006 C 
ATOM      7  C   UNL     1     -37.147  24.701   3.945  0.00  0.00    +0.006 C 
ATOM      8  C   UNL     1     -36.886  22.555   2.867  0.00  0.00    +0.143 C 
ATOM      9  C   UNL     1     -35.555  22.507   3.282  0.00  0.00    +0.024 C 
ATOM     10  C   UNL     1     -37.682  23.651   3.199  0.00  0.00    +0.024 C 
BRANCH   8  13
ATOM     11  O   UNL     1     -36.658  20.614   1.641  0.00  0.00    -0.126 OA
ATOM     12  O   UNL     1     -38.671  21.444   1.921  0.00  0.00    -0.126 OA
ATOM     13  N   UNL     1     -37.431  21.486   2.107  0.00  0.00    +0.058 N 
ENDBRANCH   8  13
ENDBRANCH   3   5
BRANCH   2  14
ATOM     14  N   UNL     1     -33.279  26.816   5.916  0.00  0.00    -0.166 NA
ATOM     15  C   UNL     1     -32.570  27.663   5.238  0.00  0.00    +0.150 C 
BRANCH  15  16
ATOM     16  S   UNL     1     -31.790  29.025   6.039  0.00  0.00    -0.086 S 
ATOM     17  C   UNL     1     -30.077  28.464   6.130  0.00  0.00    +0.076 C 
ENDBRANCH  15  16
BRANCH  15  18
ATOM     18  S   UNL     1     -32.298  27.625   3.499  0.00  0.00    -0.082 S 
BRANCH  18  19
ATOM     19  C   UNL     1     -33.832  28.415   2.957  0.00  0.00    +0.090 C 
BRANCH  19  20
ATOM     20  C   UNL     1     -34.672  27.501   2.108  0.00  0.00    -0.011 C 
ATOM     21  C   UNL     1     -34.115  26.341   1.570  0.00  0.00    -0.003 C 
ATOM     22  C   UNL     1     -36.008  27.814   1.859  0.00  0.00    -0.003 C 
ATOM     23  C   UNL     1     -34.894  25.494   0.783  0.00  0.00    -0.000 C 
ATOM     24  C   UNL     1     -36.787  26.966   1.072  0.00  0.00    -0.000 C 
ATOM     25  C   UNL     1     -36.230  25.806   0.533  0.00  0.00    -0.000 C 
ENDBRANCH  19  20
ENDBRANCH  18  19
ENDBRANCH  15  18
ENDBRANCH   2  14
TORSDOF 7
ENDMDL
MODEL 8
REMARK VINA RESULT:      -6.0      4.326      7.203
REMARK  Name = 57343004
REMARK  7 active torsions:
REMARK  status: ('A' for Active; 'I' for Inactive)
REMARK    1  A    between atoms: N_2  and  N_14
REMARK    2  A    between atoms: C_3  and  C_5
REMARK    3  A    between atoms: C_8  and  N_13
REMARK    4  A    between atoms: C_15  and  S_16
REMARK    5  A    between atoms: C_15  and  S_18
REMARK    6  A    between atoms: S_18  and  C_19
REMARK    7  A    between atoms: C_19  and  C_20
REMARK                            x       y       z     vdW  Elec       q    Type
REMARK                         _______ _______ _______ _____ _____    ______ ____
ROOT
ATOM      1  O   UNL     1     -33.783  23.337  -1.512  0.00  0.00    -0.268 OA
ATOM      2  N   UNL     1     -33.856  23.908   0.730  0.00  0.00    -0.201 N 
ATOM      3  C   UNL     1     -33.648  23.043  -0.327  0.00  0.00    +0.265 C 
ATOM      4  H   UNL     1     -33.729  23.605   1.657  0.00  0.00    +0.178 HD
ENDROOT
BRANCH   3   5
ATOM      5  C   UNL     1     -33.208  21.672   0.041  0.00  0.00    +0.055 C 
ATOM      6  C   UNL     1     -31.958  21.208  -0.368  0.00  0.00    +0.006 C 
ATOM      7  C   UNL     1     -34.045  20.850   0.796  0.00  0.00    +0.006 C 
ATOM      8  C   UNL     1     -32.381  19.100   0.732  0.00  0.00    +0.143 C 
ATOM      9  C   UNL     1     -31.544  19.921  -0.023  0.00  0.00    +0.024 C 
ATOM     10  C   UNL     1     -33.631  19.564   1.142  0.00  0.00    +0.024 C 
BRANCH   8  13
ATOM     11  O   UNL     1     -32.711  16.819   0.823  0.00  0.00    -0.126 OA
ATOM     12  O   UNL     1     -30.850  17.639   1.648  0.00  0.00    -0.126 OA
ATOM     13  N   UNL     1     -31.961  17.790   1.084  0.00  0.00    +0.058 N 
ENDBRANCH   8  13
ENDBRANCH   3   5
BRANCH   2  14
ATOM     14  N   UNL     1     -34.240  25.178   0.467  0.00  0.00    -0.166 NA
ATOM     15  C   UNL     1     -35.424  25.527   0.862  0.00  0.00    +0.150 C 
BRANCH  15  16
ATOM     16  S   UNL     1     -36.007  27.170   0.602  0.00  0.00    -0.086 S 
ATOM     17  C   UNL     1     -37.794  26.947   0.718  0.00  0.00    +0.076 C 
ENDBRANCH  15  16
BRANCH  15  18
ATOM     18  S   UNL     1     -36.579  24.500   1.703  0.00  0.00    -0.082 S 
BRANCH  18  19
ATOM     19  C   UNL     1     -36.124  24.901   3.407  0.00  0.00    +0.090 C 
BRANCH  19  20
ATOM     20  C   UNL     1     -35.769  23.674   4.202  0.00  0.00    -0.011 C 
ATOM     21  C   UNL     1     -35.617  22.446   3.560  0.00  0.00    -0.003 C 
ATOM     22  C   UNL     1     -35.592  23.767   5.583  0.00  0.00    -0.003 C 
ATOM     23  C   UNL     1     -35.287  21.309   4.297  0.00  0.00    -0.000 C 
ATOM     24  C   UNL     1     -35.262  22.629   6.320  0.00  0.00    -0.000 C 
ATOM     25  C   UNL     1     -35.110  21.400   5.678  0.00  0.00    -0.000 C 
ENDBRANCH  19  20
ENDBRANCH  18  19
ENDBRANCH  15  18
ENDBRANCH   2  14
TORSDOF 7
ENDMDL
MODEL 9
REMARK VINA RESULT:      -6.0      3.152      5.277
REMARK  Name = 57343004
REMARK  7 active torsions:
REMARK  status: ('A' for Active; 'I' for Inactive)
REMARK    1  A    between atoms: N_2  and  N_14
REMARK    2  A    between atoms: C_3  and  C_5
REMARK    3  A    between atoms: C_8  and  N_13
REMARK    4  A    between atoms: C_15  and  S_16
REMARK    5  A    between atoms: C_15  and  S_18
REMARK    6  A    between atoms: S_18  and  C_19
REMARK    7  A    between atoms: C_19  and  C_20
REMARK                            x       y       z     vdW  Elec       q    Type
REMARK                         _______ _______ _______ _____ _____    ______ ____
ROOT
ATOM      1  O   UNL     1     -35.399  20.313   3.073  0.00  0.00    -0.268 OA
ATOM      2  N   UNL     1     -36.736  21.454   1.567  0.00  0.00    -0.201 N 
ATOM      3  C   UNL     1     -35.849  21.364   2.622  0.00  0.00    +0.265 C 
ATOM      4  H   UNL     1     -37.057  22.331   1.256  0.00  0.00    +0.178 HD
ENDROOT
BRANCH   3   5
ATOM      5  C   UNL     1     -35.419  22.657   3.213  0.00  0.00    +0.055 C 
ATOM      6  C   UNL     1     -35.597  22.894   4.575  0.00  0.00    +0.006 C 
ATOM      7  C   UNL     1     -34.834  23.633   2.405  0.00  0.00    +0.006 C 
ATOM      8  C   UNL     1     -34.608  25.084   4.323  0.00  0.00    +0.143 C 
ATOM      9  C   UNL     1     -35.192  24.109   5.131  0.00  0.00    +0.024 C 
ATOM     10  C   UNL     1     -34.429  24.847   2.960  0.00  0.00    +0.024 C 
BRANCH   8  13
ATOM     11  O   UNL     1     -34.764  27.377   4.520  0.00  0.00    -0.126 OA
ATOM     12  O   UNL     1     -33.275  26.322   5.739  0.00  0.00    -0.126 OA
ATOM     13  N   UNL     1     -34.196  26.320   4.888  0.00  0.00    +0.058 N 
ENDBRANCH   8  13
ENDBRANCH   3   5
BRANCH   2  14
ATOM     14  N   UNL     1     -37.156  20.317   0.968  0.00  0.00    -0.166 NA
ATOM     15  C   UNL     1     -37.915  20.447  -0.075  0.00  0.00    +0.150 C 
BRANCH  15  16
ATOM     16  S   UNL     1     -38.488  19.029  -0.949  0.00  0.00    -0.086 S 
ATOM     17  C   UNL     1     -37.460  17.724  -0.242  0.00  0.00    +0.076 C 
ENDBRANCH  15  16
BRANCH  15  18
ATOM     18  S   UNL     1     -38.452  21.968  -0.779  0.00  0.00    -0.082 S 
BRANCH  18  19
ATOM     19  C   UNL     1     -39.565  22.511   0.539  0.00  0.00    +0.090 C 
BRANCH  19  20
ATOM     20  C   UNL     1     -39.013  23.686   1.298  0.00  0.00    -0.011 C 
ATOM     21  C   UNL     1     -38.242  24.644   0.640  0.00  0.00    -0.003 C 
ATOM     22  C   UNL     1     -39.271  23.817   2.663  0.00  0.00    -0.003 C 
ATOM     23  C   UNL     1     -37.730  25.732   1.344  0.00  0.00    -0.000 C 
ATOM     24  C   UNL     1     -38.759  24.906   3.368  0.00  0.00    -0.000 C 
ATOM     25  C   UNL     1     -37.989  25.864   2.709  0.00  0.00    -0.000 C 
ENDBRANCH  19  20
ENDBRANCH  18  19
ENDBRANCH  15  18
ENDBRANCH   2  14
TORSDOF 7
ENDMDL
