MODEL 1
REMARK VINA RESULT:      -6.3      0.000      0.000
REMARK  Name = 54101612
REMARK  3 active torsions:
REMARK  status: ('A' for Active; 'I' for Inactive)
REMARK    1  A    between atoms: N_1  and  C_12
REMARK    2  A    between atoms: C_13  and  O_17
REMARK    3  A    between atoms: C_14  and  O_19
REMARK                            x       y       z     vdW  Elec       q    Type
REMARK                         _______ _______ _______ _____ _____    ______ ____
ROOT
ATOM      1  N   UNL     1     -36.829  22.114   2.587  0.00  0.00    -0.236 N 
ATOM      2  N   UNL     1     -37.503  24.239   2.595  0.00  0.00    -0.242 NA
ATOM      3  N   UNL     1     -35.551  22.074   4.653  0.00  0.00    -0.228 NA
ATOM      4  N   UNL     1     -35.573  24.254   5.750  0.00  0.00    -0.229 NA
ATOM      5  C   UNL     1     -36.312  22.670   3.722  0.00  0.00    +0.153 C 
ATOM      6  C   UNL     1     -37.537  23.095   1.945  0.00  0.00    +0.224 C 
ATOM      7  C   UNL     1     -36.740  23.988   3.709  0.00  0.00    +0.140 C 
ATOM      8  C   UNL     1     -36.343  24.791   4.773  0.00  0.00    +0.143 C 
ATOM      9  C   UNL     1     -35.229  22.948   5.631  0.00  0.00    +0.253 C 
ATOM     10  N   UNL     1     -36.733  26.139   4.841  0.00  0.00    -0.342 N 
ATOM     11  H   UNL     1     -36.445  26.697   5.600  0.00  0.00    +0.144 HD
ATOM     12  H   UNL     1     -37.293  26.525   4.130  0.00  0.00    +0.144 HD
ENDROOT
BRANCH   1  15
ATOM     13  F   UNL     1     -32.832  19.382   1.110  0.00  0.00    -0.199 F 
ATOM     14  O   UNL     1     -35.262  20.348   2.016  0.00  0.00    -0.457 OA
ATOM     15  C   UNL     1     -36.661  20.687   2.120  0.00  0.00    +0.276 C 
ATOM     16  C   UNL     1     -37.248  20.443   0.730  0.00  0.00    +0.205 C 
ATOM     17  C   UNL     1     -36.475  19.224   0.268  0.00  0.00    +0.202 C 
ATOM     18  C   UNL     1     -35.158  19.505   0.915  0.00  0.00    +0.177 C 
ATOM     19  C   UNL     1     -33.972  19.085   0.467  0.00  0.00    +0.202 C 
BRANCH  16  20
ATOM     20  O   UNL     1     -38.646  20.225   0.768  0.00  0.00    -0.377 OA
ATOM     21  H   UNL     1     -39.067  20.697   0.033  0.00  0.00    +0.211 HD
ENDBRANCH  16  20
BRANCH  17  22
ATOM     22  O   UNL     1     -37.029  18.038   0.821  0.00  0.00    -0.375 OA
ATOM     23  H   UNL     1     -37.481  17.537   0.125  0.00  0.00    +0.211 HD
ENDBRANCH  17  22
ENDBRANCH   1  15
TORSDOF 3
ENDMDL
MODEL 2
REMARK VINA RESULT:      -6.2      3.630      5.700
REMARK  Name = 54101612
REMARK  3 active torsions:
REMARK  status: ('A' for Active; 'I' for Inactive)
REMARK    1  A    between atoms: N_1  and  C_12
REMARK    2  A    between atoms: C_13  and  O_17
REMARK    3  A    between atoms: C_14  and  O_19
REMARK                            x       y       z     vdW  Elec       q    Type
REMARK                         _______ _______ _______ _____ _____    ______ ____
ROOT
ATOM      1  N   UNL     1     -37.731  24.746   3.133  0.00  0.00    -0.236 N 
ATOM      2  N   UNL     1     -39.586  25.745   2.404  0.00  0.00    -0.242 NA
ATOM      3  N   UNL     1     -38.189  22.462   2.442  0.00  0.00    -0.228 NA
ATOM      4  N   UNL     1     -40.351  22.292   1.324  0.00  0.00    -0.229 NA
ATOM      5  C   UNL     1     -38.487  23.766   2.556  0.00  0.00    +0.153 C 
ATOM      6  C   UNL     1     -38.433  25.917   3.016  0.00  0.00    +0.224 C 
ATOM      7  C   UNL     1     -39.633  24.405   2.110  0.00  0.00    +0.140 C 
ATOM      8  C   UNL     1     -40.586  23.618   1.473  0.00  0.00    +0.143 C 
ATOM      9  C   UNL     1     -39.184  21.803   1.811  0.00  0.00    +0.253 C 
ATOM     10  N   UNL     1     -41.778  24.184   0.989  0.00  0.00    -0.342 N 
ATOM     11  H   UNL     1     -42.445  23.615   0.540  0.00  0.00    +0.144 HD
ATOM     12  H   UNL     1     -41.945  25.147   1.098  0.00  0.00    +0.144 HD
ENDROOT
BRANCH   1  15
ATOM     13  F   UNL     1     -35.725  21.232   6.175  0.00  0.00    -0.199 F 
ATOM     14  O   UNL     1     -36.259  23.281   4.392  0.00  0.00    -0.457 OA
ATOM     15  C   UNL     1     -36.376  24.583   3.779  0.00  0.00    +0.276 C 
ATOM     16  C   UNL     1     -36.126  25.590   4.902  0.00  0.00    +0.205 C 
ATOM     17  C   UNL     1     -35.067  24.889   5.729  0.00  0.00    +0.202 C 
ATOM     18  C   UNL     1     -35.506  23.473   5.546  0.00  0.00    +0.177 C 
ATOM     19  C   UNL     1     -35.296  22.481   6.416  0.00  0.00    +0.202 C 
BRANCH  16  20
ATOM     20  O   UNL     1     -35.698  26.846   4.410  0.00  0.00    -0.377 OA
ATOM     21  H   UNL     1     -35.253  26.724   3.557  0.00  0.00    +0.211 HD
ENDBRANCH  16  20
BRANCH  17  22
ATOM     22  O   UNL     1     -33.781  25.063   5.149  0.00  0.00    -0.375 OA
ATOM     23  H   UNL     1     -33.240  25.625   5.725  0.00  0.00    +0.211 HD
ENDBRANCH  17  22
ENDBRANCH   1  15
TORSDOF 3
ENDMDL
MODEL 3
REMARK VINA RESULT:      -6.2      0.965      2.071
REMARK  Name = 54101612
REMARK  3 active torsions:
REMARK  status: ('A' for Active; 'I' for Inactive)
REMARK    1  A    between atoms: N_1  and  C_12
REMARK    2  A    between atoms: C_13  and  O_17
REMARK    3  A    between atoms: C_14  and  O_19
REMARK                            x       y       z     vdW  Elec       q    Type
REMARK                         _______ _______ _______ _____ _____    ______ ____
ROOT
ATOM      1  N   UNL     1     -36.075  22.094   3.864  0.00  0.00    -0.236 N 
ATOM      2  N   UNL     1     -35.693  23.450   5.592  0.00  0.00    -0.242 NA
ATOM      3  N   UNL     1     -37.001  23.688   2.280  0.00  0.00    -0.228 NA
ATOM      4  N   UNL     1     -37.094  25.932   3.234  0.00  0.00    -0.229 NA
ATOM      5  C   UNL     1     -36.479  23.337   3.466  0.00  0.00    +0.153 C 
ATOM      6  C   UNL     1     -35.611  22.214   5.148  0.00  0.00    +0.224 C 
ATOM      7  C   UNL     1     -36.234  24.163   4.551  0.00  0.00    +0.140 C 
ATOM      8  C   UNL     1     -36.562  25.507   4.406  0.00  0.00    +0.143 C 
ATOM      9  C   UNL     1     -37.278  25.009   2.258  0.00  0.00    +0.253 C 
ATOM     10  N   UNL     1     -36.346  26.416   5.455  0.00  0.00    -0.342 N 
ATOM     11  H   UNL     1     -36.583  27.366   5.340  0.00  0.00    +0.144 HD
ATOM     12  H   UNL     1     -35.959  26.105   6.305  0.00  0.00    +0.144 HD
ENDROOT
BRANCH   1  15
ATOM     13  F   UNL     1     -32.614  19.504   1.230  0.00  0.00    -0.199 F 
ATOM     14  O   UNL     1     -34.796  20.407   2.674  0.00  0.00    -0.457 OA
ATOM     15  C   UNL     1     -36.126  20.822   3.052  0.00  0.00    +0.276 C 
ATOM     16  C   UNL     1     -36.895  20.983   1.740  0.00  0.00    +0.205 C 
ATOM     17  C   UNL     1     -36.324  19.861   0.897  0.00  0.00    +0.202 C 
ATOM     18  C   UNL     1     -34.918  19.862   1.400  0.00  0.00    +0.177 C 
ATOM     19  C   UNL     1     -33.848  19.472   0.702  0.00  0.00    +0.202 C 
BRANCH  16  20
ATOM     20  O   UNL     1     -38.294  20.877   1.922  0.00  0.00    -0.377 OA
ATOM     21  H   UNL     1     -38.722  21.696   1.626  0.00  0.00    +0.211 HD
ENDBRANCH  16  20
BRANCH  17  22
ATOM     22  O   UNL     1     -36.942  18.623   1.224  0.00  0.00    -0.375 OA
ATOM     23  H   UNL     1     -36.802  17.991   0.502  0.00  0.00    +0.211 HD
ENDBRANCH  17  22
ENDBRANCH   1  15
TORSDOF 3
ENDMDL
MODEL 4
REMARK VINA RESULT:      -6.1      2.993      4.003
REMARK  Name = 54101612
REMARK  3 active torsions:
REMARK  status: ('A' for Active; 'I' for Inactive)
REMARK    1  A    between atoms: N_1  and  C_12
REMARK    2  A    between atoms: C_13  and  O_17
REMARK    3  A    between atoms: C_14  and  O_19
REMARK                            x       y       z     vdW  Elec       q    Type
REMARK                         _______ _______ _______ _____ _____    ______ ____
ROOT
ATOM      1  N   UNL     1     -36.560  24.834   2.850  0.00  0.00    -0.236 N 
ATOM      2  N   UNL     1     -37.187  26.784   1.972  0.00  0.00    -0.242 NA
ATOM      3  N   UNL     1     -34.532  25.525   3.996  0.00  0.00    -0.228 NA
ATOM      4  N   UNL     1     -34.111  27.908   3.691  0.00  0.00    -0.229 NA
ATOM      5  C   UNL     1     -35.619  25.743   3.240  0.00  0.00    +0.153 C 
ATOM      6  C   UNL     1     -37.481  25.507   2.091  0.00  0.00    +0.224 C 
ATOM      7  C   UNL     1     -36.025  26.947   2.685  0.00  0.00    +0.140 C 
ATOM      8  C   UNL     1     -35.225  28.057   2.934  0.00  0.00    +0.143 C 
ATOM      9  C   UNL     1     -33.838  26.670   4.168  0.00  0.00    +0.253 C 
ATOM     10  N   UNL     1     -35.562  29.317   2.411  0.00  0.00    -0.342 N 
ATOM     11  H   UNL     1     -34.988  30.095   2.594  0.00  0.00    +0.144 HD
ATOM     12  H   UNL     1     -36.372  29.421   1.862  0.00  0.00    +0.144 HD
ENDROOT
BRANCH   1  15
ATOM     13  F   UNL     1     -35.424  22.190   7.015  0.00  0.00    -0.199 F 
ATOM     14  O   UNL     1     -36.361  23.158   4.598  0.00  0.00    -0.457 OA
ATOM     15  C   UNL     1     -36.591  23.361   3.187  0.00  0.00    +0.276 C 
ATOM     16  C   UNL     1     -35.499  22.564   2.473  0.00  0.00    +0.205 C 
ATOM     17  C   UNL     1     -35.355  21.350   3.369  0.00  0.00    +0.202 C 
ATOM     18  C   UNL     1     -35.619  21.986   4.694  0.00  0.00    +0.177 C 
ATOM     19  C   UNL     1     -35.138  21.559   5.865  0.00  0.00    +0.202 C 
BRANCH  16  20
ATOM     20  O   UNL     1     -35.860  22.229   1.147  0.00  0.00    -0.377 OA
ATOM     21  H   UNL     1     -35.827  21.265   1.037  0.00  0.00    +0.211 HD
ENDBRANCH  16  20
BRANCH  17  22
ATOM     22  O   UNL     1     -36.373  20.398   3.092  0.00  0.00    -0.375 OA
ATOM     23  H   UNL     1     -37.061  20.452   3.773  0.00  0.00    +0.211 HD
ENDBRANCH  17  22
ENDBRANCH   1  15
TORSDOF 3
ENDMDL
MODEL 5
REMARK VINA RESULT:      -6.0      3.714      5.356
REMARK  Name = 54101612
REMARK  3 active torsions:
REMARK  status: ('A' for Active; 'I' for Inactive)
REMARK    1  A    between atoms: N_1  and  C_12
REMARK    2  A    between atoms: C_13  and  O_17
REMARK    3  A    between atoms: C_14  and  O_19
REMARK                            x       y       z     vdW  Elec       q    Type
REMARK                         _______ _______ _______ _____ _____    ______ ____
ROOT
ATOM      1  N   UNL     1     -35.183  26.032   3.907  0.00  0.00    -0.236 N 
ATOM      2  N   UNL     1     -33.664  27.596   4.371  0.00  0.00    -0.242 NA
ATOM      3  N   UNL     1     -36.389  27.142   2.112  0.00  0.00    -0.228 NA
ATOM      4  N   UNL     1     -35.452  29.347   1.648  0.00  0.00    -0.229 NA
ATOM      5  C   UNL     1     -35.431  27.066   3.049  0.00  0.00    +0.153 C 
ATOM      6  C   UNL     1     -34.113  26.398   4.680  0.00  0.00    +0.224 C 
ATOM      7  C   UNL     1     -34.478  28.026   3.353  0.00  0.00    +0.140 C 
ATOM      8  C   UNL     1     -34.510  29.202   2.611  0.00  0.00    +0.143 C 
ATOM      9  C   UNL     1     -36.320  28.322   1.461  0.00  0.00    +0.253 C 
ATOM     10  N   UNL     1     -33.581  30.228   2.852  0.00  0.00    -0.342 N 
ATOM     11  H   UNL     1     -33.614  31.056   2.320  0.00  0.00    +0.144 HD
ATOM     12  H   UNL     1     -32.898  30.120   3.552  0.00  0.00    +0.144 HD
ENDROOT
BRANCH   1  15
ATOM     13  F   UNL     1     -35.047  22.139   7.139  0.00  0.00    -0.199 F 
ATOM     14  O   UNL     1     -35.658  24.060   5.243  0.00  0.00    -0.457 OA
ATOM     15  C   UNL     1     -35.939  24.727   3.994  0.00  0.00    +0.276 C 
ATOM     16  C   UNL     1     -35.544  23.736   2.899  0.00  0.00    +0.205 C 
ATOM     17  C   UNL     1     -35.939  22.409   3.515  0.00  0.00    +0.202 C 
ATOM     18  C   UNL     1     -35.641  22.701   4.949  0.00  0.00    +0.177 C 
ATOM     19  C   UNL     1     -35.301  21.792   5.868  0.00  0.00    +0.202 C 
BRANCH  16  20
ATOM     20  O   UNL     1     -36.208  23.994   1.677  0.00  0.00    -0.377 OA
ATOM     21  H   UNL     1     -37.090  23.590   1.697  0.00  0.00    +0.211 HD
ENDBRANCH  16  20
BRANCH  17  22
ATOM     22  O   UNL     1     -37.334  22.179   3.361  0.00  0.00    -0.375 OA
ATOM     23  H   UNL     1     -37.506  21.814   2.479  0.00  0.00    +0.211 HD
ENDBRANCH  17  22
ENDBRANCH   1  15
TORSDOF 3
ENDMDL
MODEL 6
REMARK VINA RESULT:      -6.0      4.407      6.068
REMARK  Name = 54101612
REMARK  3 active torsions:
REMARK  status: ('A' for Active; 'I' for Inactive)
REMARK    1  A    between atoms: N_1  and  C_12
REMARK    2  A    between atoms: C_13  and  O_17
REMARK    3  A    between atoms: C_14  and  O_19
REMARK                            x       y       z     vdW  Elec       q    Type
REMARK                         _______ _______ _______ _____ _____    ______ ____
ROOT
ATOM      1  N   UNL     1     -37.734  25.211   3.096  0.00  0.00    -0.236 N 
ATOM      2  N   UNL     1     -39.930  25.039   2.759  0.00  0.00    -0.242 NA
ATOM      3  N   UNL     1     -37.202  26.964   1.500  0.00  0.00    -0.228 NA
ATOM      4  N   UNL     1     -39.197  27.709   0.308  0.00  0.00    -0.229 NA
ATOM      5  C   UNL     1     -38.040  26.125   2.130  0.00  0.00    +0.153 C 
ATOM      6  C   UNL     1     -38.901  24.584   3.442  0.00  0.00    +0.224 C 
ATOM      7  C   UNL     1     -39.407  26.003   1.934  0.00  0.00    +0.140 C 
ATOM      8  C   UNL     1     -39.984  26.837   0.982  0.00  0.00    +0.143 C 
ATOM      9  C   UNL     1     -37.874  27.719   0.604  0.00  0.00    +0.253 C 
ATOM     10  N   UNL     1     -41.364  26.781   0.721  0.00  0.00    -0.342 N 
ATOM     11  H   UNL     1     -41.760  27.377   0.044  0.00  0.00    +0.144 HD
ATOM     12  H   UNL     1     -41.932  26.147   1.213  0.00  0.00    +0.144 HD
ENDROOT
BRANCH   1  15
ATOM     13  F   UNL     1     -35.898  21.556   6.080  0.00  0.00    -0.199 F 
ATOM     14  O   UNL     1     -36.336  23.632   4.303  0.00  0.00    -0.457 OA
ATOM     15  C   UNL     1     -36.369  24.935   3.682  0.00  0.00    +0.276 C 
ATOM     16  C   UNL     1     -35.982  25.925   4.782  0.00  0.00    +0.205 C 
ATOM     17  C   UNL     1     -34.950  25.140   5.566  0.00  0.00    +0.202 C 
ATOM     18  C   UNL     1     -35.516  23.766   5.418  0.00  0.00    +0.177 C 
ATOM     19  C   UNL     1     -35.353  22.765   6.288  0.00  0.00    +0.202 C 
BRANCH  16  20
ATOM     20  O   UNL     1     -35.470  27.135   4.258  0.00  0.00    -0.377 OA
ATOM     21  H   UNL     1     -34.589  26.978   3.882  0.00  0.00    +0.211 HD
ENDBRANCH  16  20
BRANCH  17  22
ATOM     22  O   UNL     1     -33.681  25.198   4.927  0.00  0.00    -0.375 OA
ATOM     23  H   UNL     1     -33.008  25.474   5.568  0.00  0.00    +0.211 HD
ENDBRANCH  17  22
ENDBRANCH   1  15
TORSDOF 3
ENDMDL
MODEL 7
REMARK VINA RESULT:      -6.0      1.782      2.047
REMARK  Name = 54101612
REMARK  3 active torsions:
REMARK  status: ('A' for Active; 'I' for Inactive)
REMARK    1  A    between atoms: N_1  and  C_12
REMARK    2  A    between atoms: C_13  and  O_17
REMARK    3  A    between atoms: C_14  and  O_19
REMARK                            x       y       z     vdW  Elec       q    Type
REMARK                         _______ _______ _______ _____ _____    ______ ____
ROOT
ATOM      1  N   UNL     1     -35.932  23.793   2.690  0.00  0.00    -0.236 N 
ATOM      2  N   UNL     1     -36.060  25.876   1.903  0.00  0.00    -0.242 NA
ATOM      3  N   UNL     1     -35.011  24.236   4.894  0.00  0.00    -0.228 NA
ATOM      4  N   UNL     1     -34.656  26.625   5.242  0.00  0.00    -0.229 NA
ATOM      5  C   UNL     1     -35.462  24.602   3.684  0.00  0.00    +0.153 C 
ATOM      6  C   UNL     1     -36.279  24.604   1.641  0.00  0.00    +0.224 C 
ATOM      7  C   UNL     1     -35.549  25.890   3.177  0.00  0.00    +0.140 C 
ATOM      8  C   UNL     1     -35.124  26.923   4.006  0.00  0.00    +0.143 C 
ATOM      9  C   UNL     1     -34.629  25.319   5.604  0.00  0.00    +0.253 C 
ATOM     10  N   UNL     1     -35.178  28.259   3.573  0.00  0.00    -0.342 N 
ATOM     11  H   UNL     1     -34.874  28.982   4.169  0.00  0.00    +0.144 HD
ATOM     12  H   UNL     1     -35.519  28.472   2.675  0.00  0.00    +0.144 HD
ENDROOT
BRANCH   1  15
ATOM     13  F   UNL     1     -32.942  20.020   1.124  0.00  0.00    -0.199 F 
ATOM     14  O   UNL     1     -34.811  21.669   2.328  0.00  0.00    -0.457 OA
ATOM     15  C   UNL     1     -36.052  22.288   2.728  0.00  0.00    +0.276 C 
ATOM     16  C   UNL     1     -37.110  21.751   1.763  0.00  0.00    +0.205 C 
ATOM     17  C   UNL     1     -36.648  20.324   1.548  0.00  0.00    +0.202 C 
ATOM     18  C   UNL     1     -35.170  20.527   1.619  0.00  0.00    +0.177 C 
ATOM     19  C   UNL     1     -34.255  19.768   1.009  0.00  0.00    +0.202 C 
BRANCH  16  20
ATOM     20  O   UNL     1     -38.416  21.830   2.301  0.00  0.00    -0.377 OA
ATOM     21  H   UNL     1     -38.883  22.584   1.907  0.00  0.00    +0.211 HD
ENDBRANCH  16  20
BRANCH  17  22
ATOM     22  O   UNL     1     -37.062  19.494   2.625  0.00  0.00    -0.375 OA
ATOM     23  H   UNL     1     -36.317  19.350   3.228  0.00  0.00    +0.211 HD
ENDBRANCH  17  22
ENDBRANCH   1  15
TORSDOF 3
ENDMDL
MODEL 8
REMARK VINA RESULT:      -6.0      4.243      5.617
REMARK  Name = 54101612
REMARK  3 active torsions:
REMARK  status: ('A' for Active; 'I' for Inactive)
REMARK    1  A    between atoms: N_1  and  C_12
REMARK    2  A    between atoms: C_13  and  O_17
REMARK    3  A    between atoms: C_14  and  O_19
REMARK                            x       y       z     vdW  Elec       q    Type
REMARK                         _______ _______ _______ _____ _____    ______ ____
ROOT
ATOM      1  N   UNL     1     -34.595  26.595   3.819  0.00  0.00    -0.236 N 
ATOM      2  N   UNL     1     -33.070  27.843   2.777  0.00  0.00    -0.242 NA
ATOM      3  N   UNL     1     -33.698  26.638   6.076  0.00  0.00    -0.228 NA
ATOM      4  N   UNL     1     -31.645  27.953   6.188  0.00  0.00    -0.229 NA
ATOM      5  C   UNL     1     -33.689  26.958   4.773  0.00  0.00    +0.153 C 
ATOM      6  C   UNL     1     -34.181  27.151   2.637  0.00  0.00    +0.224 C 
ATOM      7  C   UNL     1     -32.750  27.732   4.107  0.00  0.00    +0.140 C 
ATOM      8  C   UNL     1     -31.698  28.237   4.864  0.00  0.00    +0.143 C 
ATOM      9  C   UNL     1     -32.634  27.182   6.704  0.00  0.00    +0.253 C 
ATOM     10  N   UNL     1     -30.703  29.031   4.270  0.00  0.00    -0.342 N 
ATOM     11  H   UNL     1     -29.963  29.383   4.817  0.00  0.00    +0.144 HD
ATOM     12  H   UNL     1     -30.745  29.236   3.309  0.00  0.00    +0.144 HD
ENDROOT
BRANCH   1  15
ATOM     13  F   UNL     1     -35.373  21.598   4.039  0.00  0.00    -0.199 F 
ATOM     14  O   UNL     1     -35.462  24.359   4.206  0.00  0.00    -0.457 OA
ATOM     15  C   UNL     1     -35.827  25.743   4.017  0.00  0.00    +0.276 C 
ATOM     16  C   UNL     1     -36.764  25.760   2.809  0.00  0.00    +0.205 C 
ATOM     17  C   UNL     1     -37.533  24.466   2.985  0.00  0.00    +0.202 C 
ATOM     18  C   UNL     1     -36.458  23.617   3.581  0.00  0.00    +0.177 C 
ATOM     19  C   UNL     1     -36.375  22.288   3.472  0.00  0.00    +0.202 C 
BRANCH  16  20
ATOM     20  O   UNL     1     -37.602  26.900   2.797  0.00  0.00    -0.377 OA
ATOM     21  H   UNL     1     -38.267  26.820   3.499  0.00  0.00    +0.211 HD
ENDBRANCH  16  20
BRANCH  17  22
ATOM     22  O   UNL     1     -38.582  24.630   3.930  0.00  0.00    -0.375 OA
ATOM     23  H   UNL     1     -38.666  25.568   4.161  0.00  0.00    +0.211 HD
ENDBRANCH  17  22
ENDBRANCH   1  15
TORSDOF 3
ENDMDL
MODEL 9
REMARK VINA RESULT:      -5.9      5.676      7.725
REMARK  Name = 54101612
REMARK  3 active torsions:
REMARK  status: ('A' for Active; 'I' for Inactive)
REMARK    1  A    between atoms: N_1  and  C_12
REMARK    2  A    between atoms: C_13  and  O_17
REMARK    3  A    between atoms: C_14  and  O_19
REMARK                            x       y       z     vdW  Elec       q    Type
REMARK                         _______ _______ _______ _____ _____    ______ ____
ROOT
ATOM      1  N   UNL     1     -34.210  26.670   4.023  0.00  0.00    -0.236 N 
ATOM      2  N   UNL     1     -36.201  26.650   3.018  0.00  0.00    -0.242 NA
ATOM      3  N   UNL     1     -34.367  24.609   5.299  0.00  0.00    -0.228 NA
ATOM      4  N   UNL     1     -36.510  23.502   4.933  0.00  0.00    -0.229 NA
ATOM      5  C   UNL     1     -34.837  25.535   4.449  0.00  0.00    +0.153 C 
ATOM      6  C   UNL     1     -35.069  27.306   3.165  0.00  0.00    +0.224 C 
ATOM      7  C   UNL     1     -36.070  25.541   3.815  0.00  0.00    +0.140 C 
ATOM      8  C   UNL     1     -36.921  24.474   4.083  0.00  0.00    +0.143 C 
ATOM      9  C   UNL     1     -35.276  23.628   5.480  0.00  0.00    +0.253 C 
ATOM     10  N   UNL     1     -38.190  24.399   3.483  0.00  0.00    -0.342 N 
ATOM     11  H   UNL     1     -38.783  23.638   3.681  0.00  0.00    +0.144 HD
ATOM     12  H   UNL     1     -38.485  25.106   2.866  0.00  0.00    +0.144 HD
ENDROOT
BRANCH   1  15
ATOM     13  F   UNL     1     -32.468  30.899   6.193  0.00  0.00    -0.199 F 
ATOM     14  O   UNL     1     -32.913  28.356   5.196  0.00  0.00    -0.457 OA
ATOM     15  C   UNL     1     -32.831  27.145   4.415  0.00  0.00    +0.276 C 
ATOM     16  C   UNL     1     -31.956  27.491   3.210  0.00  0.00    +0.205 C 
ATOM     17  C   UNL     1     -30.944  28.444   3.815  0.00  0.00    +0.202 C 
ATOM     18  C   UNL     1     -31.813  29.121   4.824  0.00  0.00    +0.177 C 
ATOM     19  C   UNL     1     -31.639  30.363   5.283  0.00  0.00    +0.202 C 
BRANCH  16  20
ATOM     20  O   UNL     1     -31.356  26.345   2.635  0.00  0.00    -0.377 OA
ATOM     21  H   UNL     1     -32.018  25.860   2.119  0.00  0.00    +0.211 HD
ENDBRANCH  16  20
BRANCH  17  22
ATOM     22  O   UNL     1     -29.916  27.726   4.484  0.00  0.00    -0.375 OA
ATOM     23  H   UNL     1     -29.709  26.919   3.988  0.00  0.00    +0.211 HD
ENDBRANCH  17  22
ENDBRANCH   1  15
TORSDOF 3
ENDMDL
