MODEL 1
REMARK VINA RESULT:      -5.7      0.000      0.000
REMARK  Name = 5281176
REMARK  5 active torsions:
REMARK  status: ('A' for Active; 'I' for Inactive)
REMARK    1  A    between atoms: CA_2  and  C_10
REMARK    2  A    between atoms: CA_5  and  C_14
REMARK    3  A    between atoms: C_7  and  C_18
REMARK    4  A    between atoms: C_10  and  O_11
REMARK    5  A    between atoms: C_14  and  O_15
REMARK                            x       y       z     vdW  Elec       q    Type
REMARK                         _______ _______ _______ _____ _____    ______ ____
ROOT
ATOM      1  N   UNL     1     -36.906  23.232   3.949  0.00  0.00    -0.320 N 
ATOM      2  CA  UNL     1     -35.563  23.024   4.465  0.00  0.00    +0.174 C 
ATOM      3  C   UNL     1     -35.215  24.131   5.475  0.00  0.00    +0.057 C 
ATOM      4  C   UNL     1     -35.574  25.514   4.963  0.00  0.00    -0.015 C 
ATOM      5  CA  UNL     1     -37.413  24.495   3.757  0.00  0.00    +0.121 C 
ATOM      6  C   UNL     1     -36.807  25.611   4.193  0.00  0.00    +0.017 C 
ATOM      7  C   UNL     1     -34.815  26.590   5.220  0.00  0.00    +0.041 C 
ATOM      8  H   UNL     1     -37.465  22.451   3.734  0.00  0.00    +0.147 HD
ENDROOT
BRANCH   2  10
ATOM      9  OXT UNL     1     -35.066  20.667   4.608  0.00  0.00    -0.248 OA
ATOM     10  C   UNL     1     -35.521  21.681   5.117  0.00  0.00    +0.332 C 
BRANCH  10  11
ATOM     11  O   UNL     1     -36.060  21.735   6.359  0.00  0.00    -0.479 OA
ATOM     12  H   UNL     1     -35.942  22.499   6.888  0.00  0.00    +0.295 HD
ENDBRANCH  10  11
ENDBRANCH   2  10
BRANCH   5  14
ATOM     13  OXT UNL     1     -38.754  24.590   1.796  0.00  0.00    -0.244 OA
ATOM     14  C   UNL     1     -38.664  24.638   3.010  0.00  0.00    +0.351 C 
BRANCH  14  15
ATOM     15  O   UNL     1     -39.686  24.830   3.871  0.00  0.00    -0.476 OA
ATOM     16  H   UNL     1     -39.597  25.441   4.575  0.00  0.00    +0.295 HD
ENDBRANCH  14  15
ENDBRANCH   5  14
BRANCH   7  18
ATOM     17  O   UNL     1     -32.904  27.382   6.352  0.00  0.00    -0.283 OA
ATOM     18  C   UNL     1     -33.581  26.422   6.004  0.00  0.00    +0.234 C 
ENDBRANCH   7  18
TORSDOF 5
ENDMDL
MODEL 2
REMARK VINA RESULT:      -5.5      1.783      2.248
REMARK  Name = 5281176
REMARK  5 active torsions:
REMARK  status: ('A' for Active; 'I' for Inactive)
REMARK    1  A    between atoms: CA_2  and  C_10
REMARK    2  A    between atoms: CA_5  and  C_14
REMARK    3  A    between atoms: C_7  and  C_18
REMARK    4  A    between atoms: C_10  and  O_11
REMARK    5  A    between atoms: C_14  and  O_15
REMARK                            x       y       z     vdW  Elec       q    Type
REMARK                         _______ _______ _______ _____ _____    ______ ____
ROOT
ATOM      1  N   UNL     1     -36.770  22.152   3.793  0.00  0.00    -0.320 N 
ATOM      2  CA  UNL     1     -35.572  22.699   4.409  0.00  0.00    +0.174 C 
ATOM      3  C   UNL     1     -35.772  24.195   4.702  0.00  0.00    +0.057 C 
ATOM      4  C   UNL     1     -36.367  24.941   3.521  0.00  0.00    -0.015 C 
ATOM      5  CA  UNL     1     -37.543  22.903   2.939  0.00  0.00    +0.121 C 
ATOM      6  C   UNL     1     -37.375  24.222   2.753  0.00  0.00    +0.017 C 
ATOM      7  C   UNL     1     -36.006  26.195   3.213  0.00  0.00    +0.041 C 
ATOM      8  H   UNL     1     -37.034  21.226   3.991  0.00  0.00    +0.147 HD
ENDROOT
BRANCH   2  10
ATOM      9  OXT UNL     1     -35.275  22.435   6.789  0.00  0.00    -0.248 OA
ATOM     10  C   UNL     1     -35.316  21.942   5.671  0.00  0.00    +0.332 C 
BRANCH  10  11
ATOM     11  O   UNL     1     -35.131  20.626   5.410  0.00  0.00    -0.479 OA
ATOM     12  H   UNL     1     -34.452  20.152   5.848  0.00  0.00    +0.295 HD
ENDBRANCH  10  11
ENDBRANCH   2  10
BRANCH   5  14
ATOM     13  OXT UNL     1     -39.468  22.795   1.548  0.00  0.00    -0.244 OA
ATOM     14  C   UNL     1     -38.585  22.226   2.165  0.00  0.00    +0.351 C 
BRANCH  14  15
ATOM     15  O   UNL     1     -38.413  20.890   2.245  0.00  0.00    -0.476 OA
ATOM     16  H   UNL     1     -39.007  20.314   1.805  0.00  0.00    +0.295 HD
ENDBRANCH  14  15
ENDBRANCH   5  14
BRANCH   7  18
ATOM     17  O   UNL     1     -34.534  27.964   3.729  0.00  0.00    -0.283 OA
ATOM     18  C   UNL     1     -34.981  26.864   4.030  0.00  0.00    +0.234 C 
ENDBRANCH   7  18
TORSDOF 5
ENDMDL
MODEL 3
REMARK VINA RESULT:      -5.4      1.348      4.002
REMARK  Name = 5281176
REMARK  5 active torsions:
REMARK  status: ('A' for Active; 'I' for Inactive)
REMARK    1  A    between atoms: CA_2  and  C_10
REMARK    2  A    between atoms: CA_5  and  C_14
REMARK    3  A    between atoms: C_7  and  C_18
REMARK    4  A    between atoms: C_10  and  O_11
REMARK    5  A    between atoms: C_14  and  O_15
REMARK                            x       y       z     vdW  Elec       q    Type
REMARK                         _______ _______ _______ _____ _____    ______ ____
ROOT
ATOM      1  N   UNL     1     -36.803  23.803   4.601  0.00  0.00    -0.320 N 
ATOM      2  CA  UNL     1     -37.079  25.172   4.200  0.00  0.00    +0.174 C 
ATOM      3  C   UNL     1     -35.868  25.750   3.448  0.00  0.00    +0.057 C 
ATOM      4  C   UNL     1     -34.557  25.470   4.161  0.00  0.00    -0.015 C 
ATOM      5  CA  UNL     1     -35.539  23.404   4.965  0.00  0.00    +0.121 C 
ATOM      6  C   UNL     1     -34.445  24.167   4.803  0.00  0.00    +0.017 C 
ATOM      7  C   UNL     1     -33.552  26.357   4.183  0.00  0.00    +0.041 C 
ATOM      8  H   UNL     1     -37.536  23.147   4.613  0.00  0.00    +0.147 HD
ENDROOT
BRANCH   2  10
ATOM      9  OXT UNL     1     -38.671  24.205   2.666  0.00  0.00    -0.248 OA
ATOM     10  C   UNL     1     -38.289  25.162   3.323  0.00  0.00    +0.332 C 
BRANCH  10  11
ATOM     11  O   UNL     1     -38.911  26.365   3.353  0.00  0.00    -0.479 OA
ATOM     12  H   UNL     1     -38.483  27.123   3.006  0.00  0.00    +0.295 HD
ENDBRANCH  10  11
ENDBRANCH   2  10
BRANCH   5  14
ATOM     13  OXT UNL     1     -35.174  21.910   6.778  0.00  0.00    -0.244 OA
ATOM     14  C   UNL     1     -35.375  22.090   5.590  0.00  0.00    +0.351 C 
BRANCH  14  15
ATOM     15  O   UNL     1     -35.480  21.125   4.652  0.00  0.00    -0.476 OA
ATOM     16  H   UNL     1     -34.723  20.633   4.401  0.00  0.00    +0.295 HD
ENDBRANCH  14  15
ENDBRANCH   5  14
BRANCH   7  18
ATOM     17  O   UNL     1     -33.454  28.710   4.073  0.00  0.00    -0.283 OA
ATOM     18  C   UNL     1     -33.732  27.656   3.515  0.00  0.00    +0.234 C 
ENDBRANCH   7  18
TORSDOF 5
ENDMDL
MODEL 4
REMARK VINA RESULT:      -5.4      2.076      2.636
REMARK  Name = 5281176
REMARK  5 active torsions:
REMARK  status: ('A' for Active; 'I' for Inactive)
REMARK    1  A    between atoms: CA_2  and  C_10
REMARK    2  A    between atoms: CA_5  and  C_14
REMARK    3  A    between atoms: C_7  and  C_18
REMARK    4  A    between atoms: C_10  and  O_11
REMARK    5  A    between atoms: C_14  and  O_15
REMARK                            x       y       z     vdW  Elec       q    Type
REMARK                         _______ _______ _______ _____ _____    ______ ____
ROOT
ATOM      1  N   UNL     1     -37.544  21.712   2.418  0.00  0.00    -0.320 N 
ATOM      2  CA  UNL     1     -36.177  22.107   2.718  0.00  0.00    +0.174 C 
ATOM      3  C   UNL     1     -36.178  23.236   3.761  0.00  0.00    +0.057 C 
ATOM      4  C   UNL     1     -37.177  24.330   3.429  0.00  0.00    -0.015 C 
ATOM      5  CA  UNL     1     -38.569  22.627   2.411  0.00  0.00    +0.121 C 
ATOM      6  C   UNL     1     -38.440  23.888   2.853  0.00  0.00    +0.017 C 
ATOM      7  C   UNL     1     -36.925  25.624   3.670  0.00  0.00    +0.041 C 
ATOM      8  H   UNL     1     -37.739  20.769   2.216  0.00  0.00    +0.147 HD
ENDROOT
BRANCH   2  10
ATOM      9  OXT UNL     1     -34.928  20.050   2.543  0.00  0.00    -0.248 OA
ATOM     10  C   UNL     1     -35.453  20.907   3.237  0.00  0.00    +0.332 C 
BRANCH  10  11
ATOM     11  O   UNL     1     -35.458  20.896   4.592  0.00  0.00    -0.479 OA
ATOM     12  H   UNL     1     -35.651  21.680   5.066  0.00  0.00    +0.295 HD
ENDBRANCH  10  11
ENDBRANCH   2  10
BRANCH   5  14
ATOM     13  OXT UNL     1     -40.574  22.922   1.167  0.00  0.00    -0.244 OA
ATOM     14  C   UNL     1     -39.864  22.218   1.864  0.00  0.00    +0.351 C 
BRANCH  14  15
ATOM     15  O   UNL     1     -40.143  20.956   2.252  0.00  0.00    -0.476 OA
ATOM     16  H   UNL     1     -39.491  20.448   2.694  0.00  0.00    +0.295 HD
ENDBRANCH  14  15
ENDBRANCH   5  14
BRANCH   7  18
ATOM     17  O   UNL     1     -35.550  26.590   5.326  0.00  0.00    -0.283 OA
ATOM     18  C   UNL     1     -35.627  26.003   4.253  0.00  0.00    +0.234 C 
ENDBRANCH   7  18
TORSDOF 5
ENDMDL
MODEL 5
REMARK VINA RESULT:      -5.3      3.024      5.956
REMARK  Name = 5281176
REMARK  5 active torsions:
REMARK  status: ('A' for Active; 'I' for Inactive)
REMARK    1  A    between atoms: CA_2  and  C_10
REMARK    2  A    between atoms: CA_5  and  C_14
REMARK    3  A    between atoms: C_7  and  C_18
REMARK    4  A    between atoms: C_10  and  O_11
REMARK    5  A    between atoms: C_14  and  O_15
REMARK                            x       y       z     vdW  Elec       q    Type
REMARK                         _______ _______ _______ _____ _____    ______ ____
ROOT
ATOM      1  N   UNL     1     -37.131  22.496   3.595  0.00  0.00    -0.320 N 
ATOM      2  CA  UNL     1     -37.459  22.134   2.226  0.00  0.00    +0.174 C 
ATOM      3  C   UNL     1     -36.895  20.740   1.905  0.00  0.00    +0.057 C 
ATOM      4  C   UNL     1     -35.454  20.581   2.356  0.00  0.00    -0.015 C 
ATOM      5  CA  UNL     1     -35.949  22.104   4.176  0.00  0.00    +0.121 C 
ATOM      6  C   UNL     1     -35.105  21.221   3.617  0.00  0.00    +0.017 C 
ATOM      7  C   UNL     1     -34.558  19.878   1.649  0.00  0.00    +0.041 C 
ATOM      8  H   UNL     1     -37.769  23.033   4.117  0.00  0.00    +0.147 HD
ENDROOT
BRANCH   2  10
ATOM      9  OXT UNL     1     -39.622  23.138   1.854  0.00  0.00    -0.248 OA
ATOM     10  C   UNL     1     -38.947  22.147   2.088  0.00  0.00    +0.332 C 
BRANCH  10  11
ATOM     11  O   UNL     1     -39.454  20.902   2.262  0.00  0.00    -0.479 OA
ATOM     12  H   UNL     1     -39.966  20.706   3.021  0.00  0.00    +0.295 HD
ENDBRANCH  10  11
ENDBRANCH   2  10
BRANCH   5  14
ATOM     13  OXT UNL     1     -34.894  23.709   5.578  0.00  0.00    -0.244 OA
ATOM     14  C   UNL     1     -35.570  22.702   5.457  0.00  0.00    +0.351 C 
BRANCH  14  15
ATOM     15  O   UNL     1     -36.081  21.969   6.469  0.00  0.00    -0.476 OA
ATOM     16  H   UNL     1     -36.924  22.179   6.820  0.00  0.00    +0.295 HD
ENDBRANCH  14  15
ENDBRANCH   5  14
BRANCH   7  18
ATOM     17  O   UNL     1     -34.765  18.075   0.143  0.00  0.00    -0.283 OA
ATOM     18  C   UNL     1     -34.976  19.258   0.382  0.00  0.00    +0.234 C 
ENDBRANCH   7  18
TORSDOF 5
ENDMDL
MODEL 6
REMARK VINA RESULT:      -5.3      1.826      4.625
REMARK  Name = 5281176
REMARK  5 active torsions:
REMARK  status: ('A' for Active; 'I' for Inactive)
REMARK    1  A    between atoms: CA_2  and  C_10
REMARK    2  A    between atoms: CA_5  and  C_14
REMARK    3  A    between atoms: C_7  and  C_18
REMARK    4  A    between atoms: C_10  and  O_11
REMARK    5  A    between atoms: C_14  and  O_15
REMARK                            x       y       z     vdW  Elec       q    Type
REMARK                         _______ _______ _______ _____ _____    ______ ____
ROOT
ATOM      1  N   UNL     1     -36.352  26.228   3.406  0.00  0.00    -0.320 N 
ATOM      2  CA  UNL     1     -37.026  24.941   3.457  0.00  0.00    +0.174 C 
ATOM      3  C   UNL     1     -36.671  24.217   4.767  0.00  0.00    +0.057 C 
ATOM      4  C   UNL     1     -35.182  24.251   5.061  0.00  0.00    -0.015 C 
ATOM      5  CA  UNL     1     -35.101  26.403   3.948  0.00  0.00    +0.121 C 
ATOM      6  C   UNL     1     -34.490  25.486   4.716  0.00  0.00    +0.017 C 
ATOM      7  C   UNL     1     -34.542  23.216   5.623  0.00  0.00    +0.041 C 
ATOM      8  H   UNL     1     -36.800  26.990   2.975  0.00  0.00    +0.147 HD
ENDROOT
BRANCH   2  10
ATOM      9  OXT UNL     1     -39.356  24.318   3.397  0.00  0.00    -0.248 OA
ATOM     10  C   UNL     1     -38.497  25.187   3.371  0.00  0.00    +0.332 C 
BRANCH  10  11
ATOM     11  O   UNL     1     -38.754  26.512   3.257  0.00  0.00    -0.479 OA
ATOM     12  H   UNL     1     -38.997  27.009   4.013  0.00  0.00    +0.295 HD
ENDBRANCH  10  11
ENDBRANCH   2  10
BRANCH   5  14
ATOM     13  OXT UNL     1     -33.167  27.763   3.692  0.00  0.00    -0.244 OA
ATOM     14  C   UNL     1     -34.379  27.641   3.650  0.00  0.00    +0.351 C 
BRANCH  14  15
ATOM     15  O   UNL     1     -35.259  28.612   3.327  0.00  0.00    -0.476 OA
ATOM     16  H   UNL     1     -35.946  28.838   3.922  0.00  0.00    +0.295 HD
ENDBRANCH  14  15
ENDBRANCH   5  14
BRANCH   7  18
ATOM     17  O   UNL     1     -35.098  20.939   5.360  0.00  0.00    -0.283 OA
ATOM     18  C   UNL     1     -35.300  21.997   5.945  0.00  0.00    +0.234 C 
ENDBRANCH   7  18
TORSDOF 5
ENDMDL
MODEL 7
REMARK VINA RESULT:      -5.2      2.132      5.139
REMARK  Name = 5281176
REMARK  5 active torsions:
REMARK  status: ('A' for Active; 'I' for Inactive)
REMARK    1  A    between atoms: CA_2  and  C_10
REMARK    2  A    between atoms: CA_5  and  C_14
REMARK    3  A    between atoms: C_7  and  C_18
REMARK    4  A    between atoms: C_10  and  O_11
REMARK    5  A    between atoms: C_14  and  O_15
REMARK                            x       y       z     vdW  Elec       q    Type
REMARK                         _______ _______ _______ _____ _____    ______ ____
ROOT
ATOM      1  N   UNL     1     -37.605  24.882   3.935  0.00  0.00    -0.320 N 
ATOM      2  CA  UNL     1     -38.147  24.084   2.847  0.00  0.00    +0.174 C 
ATOM      3  C   UNL     1     -37.684  22.625   2.990  0.00  0.00    +0.057 C 
ATOM      4  C   UNL     1     -36.198  22.515   3.279  0.00  0.00    -0.015 C 
ATOM      5  CA  UNL     1     -36.363  24.624   4.463  0.00  0.00    +0.121 C 
ATOM      6  C   UNL     1     -35.643  23.531   4.163  0.00  0.00    +0.017 C 
ATOM      7  C   UNL     1     -35.442  21.531   2.771  0.00  0.00    +0.041 C 
ATOM      8  H   UNL     1     -38.140  25.623   4.301  0.00  0.00    +0.147 HD
ENDROOT
BRANCH   2  10
ATOM      9  OXT UNL     1     -40.404  23.655   2.108  0.00  0.00    -0.248 OA
ATOM     10  C   UNL     1     -39.637  24.175   2.905  0.00  0.00    +0.332 C 
BRANCH  10  11
ATOM     11  O   UNL     1     -40.030  24.917   3.969  0.00  0.00    -0.479 OA
ATOM     12  H   UNL     1     -39.389  25.324   4.518  0.00  0.00    +0.295 HD
ENDBRANCH  10  11
ENDBRANCH   2  10
BRANCH   5  14
ATOM     13  OXT UNL     1     -34.686  25.492   5.908  0.00  0.00    -0.244 OA
ATOM     14  C   UNL     1     -35.776  25.606   5.377  0.00  0.00    +0.351 C 
BRANCH  14  15
ATOM     15  O   UNL     1     -36.626  26.643   5.535  0.00  0.00    -0.476 OA
ATOM     16  H   UNL     1     -37.551  26.496   5.526  0.00  0.00    +0.295 HD
ENDBRANCH  14  15
ENDBRANCH   5  14
BRANCH   7  18
ATOM     17  O   UNL     1     -35.400  19.708   1.277  0.00  0.00    -0.283 OA
ATOM     18  C   UNL     1     -36.066  20.538   1.883  0.00  0.00    +0.234 C 
ENDBRANCH   7  18
TORSDOF 5
ENDMDL
MODEL 8
REMARK VINA RESULT:      -5.2      2.006      4.103
REMARK  Name = 5281176
REMARK  5 active torsions:
REMARK  status: ('A' for Active; 'I' for Inactive)
REMARK    1  A    between atoms: CA_2  and  C_10
REMARK    2  A    between atoms: CA_5  and  C_14
REMARK    3  A    between atoms: C_7  and  C_18
REMARK    4  A    between atoms: C_10  and  O_11
REMARK    5  A    between atoms: C_14  and  O_15
REMARK                            x       y       z     vdW  Elec       q    Type
REMARK                         _______ _______ _______ _____ _____    ______ ____
ROOT
ATOM      1  N   UNL     1     -37.796  25.230   4.229  0.00  0.00    -0.320 N 
ATOM      2  CA  UNL     1     -36.634  24.502   4.714  0.00  0.00    +0.174 C 
ATOM      3  C   UNL     1     -35.958  23.763   3.547  0.00  0.00    +0.057 C 
ATOM      4  C   UNL     1     -36.954  23.015   2.681  0.00  0.00    -0.015 C 
ATOM      5  CA  UNL     1     -38.574  24.740   3.208  0.00  0.00    +0.121 C 
ATOM      6  C   UNL     1     -38.234  23.676   2.462  0.00  0.00    +0.017 C 
ATOM      7  C   UNL     1     -36.670  21.826   2.130  0.00  0.00    +0.041 C 
ATOM      8  H   UNL     1     -38.030  26.093   4.641  0.00  0.00    +0.147 HD
ENDROOT
BRANCH   2  10
ATOM      9  OXT UNL     1     -34.552  25.241   5.683  0.00  0.00    -0.248 OA
ATOM     10  C   UNL     1     -35.696  25.487   5.332  0.00  0.00    +0.332 C 
BRANCH  10  11
ATOM     11  O   UNL     1     -36.289  26.700   5.453  0.00  0.00    -0.479 OA
ATOM     12  H   UNL     1     -35.961  27.321   6.072  0.00  0.00    +0.295 HD
ENDBRANCH  10  11
ENDBRANCH   2  10
BRANCH   5  14
ATOM     13  OXT UNL     1     -40.736  24.919   2.236  0.00  0.00    -0.244 OA
ATOM     14  C   UNL     1     -39.857  25.390   2.935  0.00  0.00    +0.351 C 
BRANCH  14  15
ATOM     15  O   UNL     1     -39.908  26.578   3.574  0.00  0.00    -0.476 OA
ATOM     16  H   UNL     1     -40.569  26.734   4.221  0.00  0.00    +0.295 HD
ENDBRANCH  14  15
ENDBRANCH   5  14
BRANCH   7  18
ATOM     17  O   UNL     1     -35.221  20.315   3.214  0.00  0.00    -0.283 OA
ATOM     18  C   UNL     1     -35.359  21.213   2.392  0.00  0.00    +0.234 C 
ENDBRANCH   7  18
TORSDOF 5
ENDMDL
MODEL 9
REMARK VINA RESULT:      -5.2      1.494      3.808
REMARK  Name = 5281176
REMARK  5 active torsions:
REMARK  status: ('A' for Active; 'I' for Inactive)
REMARK    1  A    between atoms: CA_2  and  C_10
REMARK    2  A    between atoms: CA_5  and  C_14
REMARK    3  A    between atoms: C_7  and  C_18
REMARK    4  A    between atoms: C_10  and  O_11
REMARK    5  A    between atoms: C_14  and  O_15
REMARK                            x       y       z     vdW  Elec       q    Type
REMARK                         _______ _______ _______ _____ _____    ______ ____
ROOT
ATOM      1  N   UNL     1     -37.535  23.085   3.146  0.00  0.00    -0.320 N 
ATOM      2  CA  UNL     1     -37.790  24.343   3.828  0.00  0.00    +0.174 C 
ATOM      3  C   UNL     1     -36.480  25.138   3.962  0.00  0.00    +0.057 C 
ATOM      4  C   UNL     1     -35.332  24.280   4.461  0.00  0.00    -0.015 C 
ATOM      5  CA  UNL     1     -36.355  22.402   3.319  0.00  0.00    +0.121 C 
ATOM      6  C   UNL     1     -35.290  22.913   3.959  0.00  0.00    +0.017 C 
ATOM      7  C   UNL     1     -34.397  24.754   5.298  0.00  0.00    +0.041 C 
ATOM      8  H   UNL     1     -38.223  22.713   2.548  0.00  0.00    +0.147 HD
ENDROOT
BRANCH   2  10
ATOM      9  OXT UNL     1     -39.595  24.612   2.249  0.00  0.00    -0.248 OA
ATOM     10  C   UNL     1     -38.793  25.108   3.026  0.00  0.00    +0.332 C 
BRANCH  10  11
ATOM     11  O   UNL     1     -38.693  26.436   3.277  0.00  0.00    -0.479 OA
ATOM     12  H   UNL     1     -38.973  27.056   2.634  0.00  0.00    +0.295 HD
ENDBRANCH  10  11
ENDBRANCH   2  10
BRANCH   5  14
ATOM     13  OXT UNL     1     -35.249  20.353   2.839  0.00  0.00    -0.244 OA
ATOM     14  C   UNL     1     -36.259  21.034   2.807  0.00  0.00    +0.351 C 
BRANCH  14  15
ATOM     15  O   UNL     1     -37.451  20.655   2.300  0.00  0.00    -0.476 OA
ATOM     16  H   UNL     1     -37.622  20.751   1.384  0.00  0.00    +0.295 HD
ENDBRANCH  14  15
ENDBRANCH   5  14
BRANCH   7  18
ATOM     17  O   UNL     1     -33.518  26.768   6.153  0.00  0.00    -0.283 OA
ATOM     18  C   UNL     1     -34.500  26.145   5.768  0.00  0.00    +0.234 C 
ENDBRANCH   7  18
TORSDOF 5
ENDMDL
