MODEL 1
REMARK VINA RESULT:      -6.3      0.000      0.000
REMARK  Name = 57332236
REMARK  5 active torsions:
REMARK  status: ('A' for Active; 'I' for Inactive)
REMARK    1  A    between atoms: C_5  and  O_17
REMARK    2  A    between atoms: C_7  and  O_19
REMARK    3  A    between atoms: C_8  and  O_21
REMARK    4  A    between atoms: C_14  and  O_23
REMARK    5  A    between atoms: C_15  and  O_25
REMARK                            x       y       z     vdW  Elec       q    Type
REMARK                         _______ _______ _______ _____ _____    ______ ____
ROOT
ATOM      1  O   UNL     1     -38.717  23.931   2.474  0.00  0.00    -0.291 OA
ATOM      2  C   UNL     1     -35.844  21.730   2.302  0.00  0.00    +0.041 C 
ATOM      3  C   UNL     1     -37.364  21.951   2.381  0.00  0.00    +0.067 C 
ATOM      4  C   UNL     1     -35.522  20.307   1.803  0.00  0.00    +0.033 C 
ATOM      5  C   UNL     1     -36.177  20.004   0.443  0.00  0.00    +0.113 C 
ATOM      6  C   UNL     1     -38.031  21.645   1.035  0.00  0.00    +0.039 C 
ATOM      7  C   UNL     1     -37.696  20.238   0.537  0.00  0.00    +0.135 C 
ATOM      8  C   UNL     1     -35.190  22.027   3.661  0.00  0.00    +0.133 C 
ATOM      9  C   UNL     1     -37.676  23.379   2.820  0.00  0.00    +0.175 C 
ATOM     10  C   UNL     1     -35.537  23.417   4.130  0.00  0.00    +0.013 C 
ATOM     11  C   UNL     1     -35.836  18.578   0.002  0.00  0.00    +0.032 C 
ATOM     12  C   UNL     1     -36.719  24.059   3.734  0.00  0.00    +0.067 C 
ATOM     13  C   UNL     1     -34.668  24.081   5.011  0.00  0.00    +0.035 C 
ATOM     14  C   UNL     1     -37.014  25.348   4.197  0.00  0.00    +0.139 C 
ATOM     15  C   UNL     1     -34.964  25.364   5.472  0.00  0.00    +0.142 C 
ATOM     16  C   UNL     1     -36.135  25.997   5.063  0.00  0.00    +0.074 C 
ENDROOT
BRANCH   5  17
ATOM     17  O   UNL     1     -35.615  20.898  -0.524  0.00  0.00    -0.384 OA
ATOM     18  H   UNL     1     -36.319  21.446  -0.906  0.00  0.00    +0.210 HD
ENDBRANCH   5  17
BRANCH   7  19
ATOM     19  O   UNL     1     -38.320  20.068  -0.734  0.00  0.00    -0.382 OA
ATOM     20  H   UNL     1     -39.280  20.164  -0.638  0.00  0.00    +0.210 HD
ENDBRANCH   7  19
BRANCH   8  21
ATOM     21  O   UNL     1     -35.628  21.119   4.667  0.00  0.00    -0.380 OA
ATOM     22  H   UNL     1     -34.890  20.920   5.265  0.00  0.00    +0.211 HD
ENDBRANCH   8  21
BRANCH  14  23
ATOM     23  O   UNL     1     -38.143  26.023   3.840  0.00  0.00    -0.505 OA
ATOM     24  H   UNL     1     -38.968  25.791   4.219  0.00  0.00    +0.292 HD
ENDBRANCH  14  23
BRANCH  15  25
ATOM     25  O   UNL     1     -34.109  25.996   6.321  0.00  0.00    -0.471 OA
ATOM     26  C   UNL     1     -33.161  26.890   5.742  0.00  0.00    +0.252 C 
ENDBRANCH  15  25
TORSDOF 5
ENDMDL
MODEL 2
REMARK VINA RESULT:      -6.0      1.063      1.288
REMARK  Name = 57332236
REMARK  5 active torsions:
REMARK  status: ('A' for Active; 'I' for Inactive)
REMARK    1  A    between atoms: C_5  and  O_17
REMARK    2  A    between atoms: C_7  and  O_19
REMARK    3  A    between atoms: C_8  and  O_21
REMARK    4  A    between atoms: C_14  and  O_23
REMARK    5  A    between atoms: C_15  and  O_25
REMARK                            x       y       z     vdW  Elec       q    Type
REMARK                         _______ _______ _______ _____ _____    ______ ____
ROOT
ATOM      1  O   UNL     1     -38.797  22.532   1.667  0.00  0.00    -0.291 OA
ATOM      2  C   UNL     1     -35.451  21.213   2.110  0.00  0.00    +0.041 C 
ATOM      3  C   UNL     1     -36.969  21.007   1.978  0.00  0.00    +0.067 C 
ATOM      4  C   UNL     1     -34.693  19.899   1.829  0.00  0.00    +0.033 C 
ATOM      5  C   UNL     1     -35.035  19.314   0.446  0.00  0.00    +0.113 C 
ATOM      6  C   UNL     1     -37.323  20.417   0.608  0.00  0.00    +0.039 C 
ATOM      7  C   UNL     1     -36.558  19.123   0.327  0.00  0.00    +0.135 C 
ATOM      8  C   UNL     1     -35.110  21.792   3.492  0.00  0.00    +0.133 C 
ATOM      9  C   UNL     1     -37.710  22.323   2.201  0.00  0.00    +0.175 C 
ATOM     10  C   UNL     1     -35.877  23.064   3.746  0.00  0.00    +0.013 C 
ATOM     11  C   UNL     1     -34.267  18.008   0.224  0.00  0.00    +0.032 C 
ATOM     12  C   UNL     1     -37.115  23.315   3.134  0.00  0.00    +0.067 C 
ATOM     13  C   UNL     1     -35.357  24.015   4.638  0.00  0.00    +0.035 C 
ATOM     14  C   UNL     1     -37.805  24.505   3.400  0.00  0.00    +0.139 C 
ATOM     15  C   UNL     1     -36.046  25.198   4.901  0.00  0.00    +0.142 C 
ATOM     16  C   UNL     1     -37.269  25.443   4.282  0.00  0.00    +0.074 C 
ENDROOT
BRANCH   5  17
ATOM     17  O   UNL     1     -34.592  20.246  -0.546  0.00  0.00    -0.384 OA
ATOM     18  H   UNL     1     -33.743  19.950  -0.912  0.00  0.00    +0.210 HD
ENDBRANCH   5  17
BRANCH   7  19
ATOM     19  O   UNL     1     -36.918  18.681  -0.980  0.00  0.00    -0.382 OA
ATOM     20  H   UNL     1     -36.886  19.431  -1.595  0.00  0.00    +0.210 HD
ENDBRANCH   7  19
BRANCH   8  21
ATOM     21  O   UNL     1     -35.436  20.884   4.540  0.00  0.00    -0.380 OA
ATOM     22  H   UNL     1     -35.079  20.006   4.329  0.00  0.00    +0.211 HD
ENDBRANCH   8  21
BRANCH  14  23
ATOM     23  O   UNL     1     -39.007  24.808   2.831  0.00  0.00    -0.505 OA
ATOM     24  H   UNL     1     -39.742  25.017   3.372  0.00  0.00    +0.292 HD
ENDBRANCH  14  23
BRANCH  15  25
ATOM     25  O   UNL     1     -35.526  26.111   5.765  0.00  0.00    -0.471 OA
ATOM     26  C   UNL     1     -34.107  26.135   5.909  0.00  0.00    +0.252 C 
ENDBRANCH  15  25
TORSDOF 5
ENDMDL
MODEL 3
REMARK VINA RESULT:      -6.0      3.068      6.056
REMARK  Name = 57332236
REMARK  5 active torsions:
REMARK  status: ('A' for Active; 'I' for Inactive)
REMARK    1  A    between atoms: C_5  and  O_17
REMARK    2  A    between atoms: C_7  and  O_19
REMARK    3  A    between atoms: C_8  and  O_21
REMARK    4  A    between atoms: C_14  and  O_23
REMARK    5  A    between atoms: C_15  and  O_25
REMARK                            x       y       z     vdW  Elec       q    Type
REMARK                         _______ _______ _______ _____ _____    ______ ____
ROOT
ATOM      1  O   UNL     1     -32.909  26.278   6.713  0.00  0.00    -0.291 OA
ATOM      2  C   UNL     1     -34.958  26.189   3.726  0.00  0.00    +0.041 C 
ATOM      3  C   UNL     1     -34.009  25.505   4.724  0.00  0.00    +0.067 C 
ATOM      4  C   UNL     1     -35.736  25.142   2.904  0.00  0.00    +0.033 C 
ATOM      5  C   UNL     1     -36.519  24.163   3.799  0.00  0.00    +0.113 C 
ATOM      6  C   UNL     1     -34.775  24.521   5.618  0.00  0.00    +0.039 C 
ATOM      7  C   UNL     1     -35.557  23.494   4.798  0.00  0.00    +0.135 C 
ATOM      8  C   UNL     1     -34.176  27.162   2.829  0.00  0.00    +0.133 C 
ATOM      9  C   UNL     1     -33.285  26.545   5.575  0.00  0.00    +0.175 C 
ATOM     10  C   UNL     1     -33.413  28.161   3.659  0.00  0.00    +0.013 C 
ATOM     11  C   UNL     1     -37.261  23.140   2.934  0.00  0.00    +0.032 C 
ATOM     12  C   UNL     1     -32.986  27.868   4.963  0.00  0.00    +0.067 C 
ATOM     13  C   UNL     1     -33.093  29.413   3.108  0.00  0.00    +0.035 C 
ATOM     14  C   UNL     1     -32.271  28.818   5.704  0.00  0.00    +0.139 C 
ATOM     15  C   UNL     1     -32.380  30.356   3.846  0.00  0.00    +0.142 C 
ATOM     16  C   UNL     1     -31.971  30.059   5.144  0.00  0.00    +0.074 C 
ENDROOT
BRANCH   5  17
ATOM     17  O   UNL     1     -37.504  24.915   4.515  0.00  0.00    -0.384 OA
ATOM     18  H   UNL     1     -38.229  25.151   3.915  0.00  0.00    +0.210 HD
ENDBRANCH   5  17
BRANCH   7  19
ATOM     19  O   UNL     1     -36.266  22.660   5.711  0.00  0.00    -0.382 OA
ATOM     20  H   UNL     1     -37.036  22.274   5.265  0.00  0.00    +0.210 HD
ENDBRANCH   7  19
BRANCH   8  21
ATOM     21  O   UNL     1     -33.231  26.481   2.010  0.00  0.00    -0.380 OA
ATOM     22  H   UNL     1     -33.265  25.530   2.200  0.00  0.00    +0.211 HD
ENDBRANCH   8  21
BRANCH  14  23
ATOM     23  O   UNL     1     -31.837  28.593   6.977  0.00  0.00    -0.505 OA
ATOM     24  H   UNL     1     -31.611  27.725   7.248  0.00  0.00    +0.292 HD
ENDBRANCH  14  23
BRANCH  15  25
ATOM     25  O   UNL     1     -32.083  31.566   3.299  0.00  0.00    -0.471 OA
ATOM     26  C   UNL     1     -33.102  32.199   2.528  0.00  0.00    +0.252 C 
ENDBRANCH  15  25
TORSDOF 5
ENDMDL
MODEL 4
REMARK VINA RESULT:      -5.8      1.585      6.670
REMARK  Name = 57332236
REMARK  5 active torsions:
REMARK  status: ('A' for Active; 'I' for Inactive)
REMARK    1  A    between atoms: C_5  and  O_17
REMARK    2  A    between atoms: C_7  and  O_19
REMARK    3  A    between atoms: C_8  and  O_21
REMARK    4  A    between atoms: C_14  and  O_23
REMARK    5  A    between atoms: C_15  and  O_25
REMARK                            x       y       z     vdW  Elec       q    Type
REMARK                         _______ _______ _______ _____ _____    ______ ____
ROOT
ATOM      1  O   UNL     1     -38.933  21.280   0.848  0.00  0.00    -0.291 OA
ATOM      2  C   UNL     1     -35.762  21.817   2.516  0.00  0.00    +0.041 C 
ATOM      3  C   UNL     1     -36.980  22.350   1.745  0.00  0.00    +0.067 C 
ATOM      4  C   UNL     1     -35.038  22.960   3.255  0.00  0.00    +0.033 C 
ATOM      5  C   UNL     1     -35.977  23.726   4.205  0.00  0.00    +0.113 C 
ATOM      6  C   UNL     1     -37.921  23.122   2.678  0.00  0.00    +0.039 C 
ATOM      7  C   UNL     1     -37.196  24.246   3.420  0.00  0.00    +0.135 C 
ATOM      8  C   UNL     1     -34.821  21.056   1.567  0.00  0.00    +0.133 C 
ATOM      9  C   UNL     1     -37.726  21.206   1.063  0.00  0.00    +0.175 C 
ATOM     10  C   UNL     1     -35.560  19.958   0.847  0.00  0.00    +0.013 C 
ATOM     11  C   UNL     1     -35.212  24.855   4.902  0.00  0.00    +0.032 C 
ATOM     12  C   UNL     1     -36.940  20.030   0.604  0.00  0.00    +0.067 C 
ATOM     13  C   UNL     1     -34.847  18.842   0.380  0.00  0.00    +0.035 C 
ATOM     14  C   UNL     1     -37.592  18.994  -0.077  0.00  0.00    +0.139 C 
ATOM     15  C   UNL     1     -35.499  17.813  -0.298  0.00  0.00    +0.142 C 
ATOM     16  C   UNL     1     -36.870  17.888  -0.525  0.00  0.00    +0.074 C 
ENDROOT
BRANCH   5  17
ATOM     17  O   UNL     1     -36.415  22.816   5.219  0.00  0.00    -0.384 OA
ATOM     18  H   UNL     1     -36.784  22.021   4.802  0.00  0.00    +0.210 HD
ENDBRANCH   5  17
BRANCH   7  19
ATOM     19  O   UNL     1     -38.137  24.869   4.290  0.00  0.00    -0.382 OA
ATOM     20  H   UNL     1     -38.347  25.756   3.957  0.00  0.00    +0.210 HD
ENDBRANCH   7  19
BRANCH   8  21
ATOM     21  O   UNL     1     -34.265  21.914   0.576  0.00  0.00    -0.380 OA
ATOM     22  H   UNL     1     -34.626  22.809   0.684  0.00  0.00    +0.211 HD
ENDBRANCH   8  21
BRANCH  14  23
ATOM     23  O   UNL     1     -38.931  19.004  -0.335  0.00  0.00    -0.505 OA
ATOM     24  H   UNL     1     -39.338  19.780  -0.668  0.00  0.00    +0.292 HD
ENDBRANCH  14  23
BRANCH  15  25
ATOM     25  O   UNL     1     -34.794  16.736  -0.741  0.00  0.00    -0.471 OA
ATOM     26  C   UNL     1     -35.205  15.453  -0.270  0.00  0.00    +0.252 C 
ENDBRANCH  15  25
TORSDOF 5
ENDMDL
MODEL 5
REMARK VINA RESULT:      -5.8      1.695      3.361
REMARK  Name = 57332236
REMARK  5 active torsions:
REMARK  status: ('A' for Active; 'I' for Inactive)
REMARK    1  A    between atoms: C_5  and  O_17
REMARK    2  A    between atoms: C_7  and  O_19
REMARK    3  A    between atoms: C_8  and  O_21
REMARK    4  A    between atoms: C_14  and  O_23
REMARK    5  A    between atoms: C_15  and  O_25
REMARK                            x       y       z     vdW  Elec       q    Type
REMARK                         _______ _______ _______ _____ _____    ______ ____
ROOT
ATOM      1  O   UNL     1     -35.919  20.097   2.920  0.00  0.00    -0.291 OA
ATOM      2  C   UNL     1     -38.177  22.537   1.480  0.00  0.00    +0.041 C 
ATOM      3  C   UNL     1     -37.142  21.411   1.327  0.00  0.00    +0.067 C 
ATOM      4  C   UNL     1     -38.987  22.719   0.181  0.00  0.00    +0.033 C 
ATOM      5  C   UNL     1     -39.680  21.416  -0.260  0.00  0.00    +0.113 C 
ATOM      6  C   UNL     1     -37.817  20.108   0.880  0.00  0.00    +0.039 C 
ATOM      7  C   UNL     1     -38.632  20.296  -0.401  0.00  0.00    +0.135 C 
ATOM      8  C   UNL     1     -37.486  23.840   1.916  0.00  0.00    +0.133 C 
ATOM      9  C   UNL     1     -36.383  21.197   2.634  0.00  0.00    +0.175 C 
ATOM     10  C   UNL     1     -36.688  23.628   3.177  0.00  0.00    +0.013 C 
ATOM     11  C   UNL     1     -40.458  21.648  -1.558  0.00  0.00    +0.032 C 
ATOM     12  C   UNL     1     -36.161  22.373   3.517  0.00  0.00    +0.067 C 
ATOM     13  C   UNL     1     -36.440  24.720   4.025  0.00  0.00    +0.035 C 
ATOM     14  C   UNL     1     -35.417  22.214   4.693  0.00  0.00    +0.139 C 
ATOM     15  C   UNL     1     -35.698  24.559   5.194  0.00  0.00    +0.142 C 
ATOM     16  C   UNL     1     -35.188  23.307   5.528  0.00  0.00    +0.074 C 
ENDROOT
BRANCH   5  17
ATOM     17  O   UNL     1     -40.628  21.058   0.750  0.00  0.00    -0.384 OA
ATOM     18  H   UNL     1     -41.433  20.715   0.331  0.00  0.00    +0.210 HD
ENDBRANCH   5  17
BRANCH   7  19
ATOM     19  O   UNL     1     -39.253  19.049  -0.706  0.00  0.00    -0.382 OA
ATOM     20  H   UNL     1     -38.810  18.339  -0.217  0.00  0.00    +0.210 HD
ENDBRANCH   7  19
BRANCH   8  21
ATOM     21  O   UNL     1     -36.587  24.318   0.921  0.00  0.00    -0.380 OA
ATOM     22  H   UNL     1     -35.799  23.753   0.899  0.00  0.00    +0.211 HD
ENDBRANCH   8  21
BRANCH  14  23
ATOM     23  O   UNL     1     -34.886  21.019   5.079  0.00  0.00    -0.505 OA
ATOM     24  H   UNL     1     -34.057  20.744   4.742  0.00  0.00    +0.292 HD
ENDBRANCH  14  23
BRANCH  15  25
ATOM     25  O   UNL     1     -35.470  25.626   6.007  0.00  0.00    -0.471 OA
ATOM     26  C   UNL     1     -34.149  26.164   6.018  0.00  0.00    +0.252 C 
ENDBRANCH  15  25
TORSDOF 5
ENDMDL
MODEL 6
REMARK VINA RESULT:      -5.7      2.045      7.165
REMARK  Name = 57332236
REMARK  5 active torsions:
REMARK  status: ('A' for Active; 'I' for Inactive)
REMARK    1  A    between atoms: C_5  and  O_17
REMARK    2  A    between atoms: C_7  and  O_19
REMARK    3  A    between atoms: C_8  and  O_21
REMARK    4  A    between atoms: C_14  and  O_23
REMARK    5  A    between atoms: C_15  and  O_25
REMARK                            x       y       z     vdW  Elec       q    Type
REMARK                         _______ _______ _______ _____ _____    ______ ____
ROOT
ATOM      1  O   UNL     1     -34.957  24.089   5.983  0.00  0.00    -0.291 OA
ATOM      2  C   UNL     1     -34.128  26.586   3.492  0.00  0.00    +0.041 C 
ATOM      3  C   UNL     1     -34.510  26.199   4.930  0.00  0.00    +0.067 C 
ATOM      4  C   UNL     1     -33.508  27.997   3.449  0.00  0.00    +0.033 C 
ATOM      5  C   UNL     1     -32.286  28.125   4.378  0.00  0.00    +0.113 C 
ATOM      6  C   UNL     1     -33.303  26.330   5.868  0.00  0.00    +0.039 C 
ATOM      7  C   UNL     1     -32.683  27.726   5.812  0.00  0.00    +0.135 C 
ATOM      8  C   UNL     1     -35.349  26.463   2.565  0.00  0.00    +0.133 C 
ATOM      9  C   UNL     1     -35.069  24.780   4.974  0.00  0.00    +0.175 C 
ATOM     10  C   UNL     1     -35.943  25.080   2.641  0.00  0.00    +0.013 C 
ATOM     11  C   UNL     1     -31.719  29.545   4.307  0.00  0.00    +0.032 C 
ATOM     12  C   UNL     1     -35.813  24.281   3.787  0.00  0.00    +0.067 C 
ATOM     13  C   UNL     1     -36.671  24.584   1.548  0.00  0.00    +0.035 C 
ATOM     14  C   UNL     1     -36.386  23.003   3.826  0.00  0.00    +0.139 C 
ATOM     15  C   UNL     1     -37.241  23.312   1.589  0.00  0.00    +0.142 C 
ATOM     16  C   UNL     1     -37.097  22.522   2.727  0.00  0.00    +0.074 C 
ENDROOT
BRANCH   5  17
ATOM     17  O   UNL     1     -31.274  27.234   3.897  0.00  0.00    -0.384 OA
ATOM     18  H   UNL     1     -30.536  27.749   3.535  0.00  0.00    +0.210 HD
ENDBRANCH   5  17
BRANCH   7  19
ATOM     19  O   UNL     1     -31.549  27.733   6.676  0.00  0.00    -0.382 OA
ATOM     20  H   UNL     1     -31.305  28.648   6.883  0.00  0.00    +0.210 HD
ENDBRANCH   7  19
BRANCH   8  21
ATOM     21  O   UNL     1     -36.374  27.386   2.919  0.00  0.00    -0.380 OA
ATOM     22  H   UNL     1     -36.667  27.210   3.828  0.00  0.00    +0.211 HD
ENDBRANCH   8  21
BRANCH  14  23
ATOM     23  O   UNL     1     -36.287  22.179   4.907  0.00  0.00    -0.505 OA
ATOM     24  H   UNL     1     -35.862  22.478   5.687  0.00  0.00    +0.292 HD
ENDBRANCH  14  23
BRANCH  15  25
ATOM     25  O   UNL     1     -37.940  22.844   0.520  0.00  0.00    -0.471 OA
ATOM     26  C   UNL     1     -38.703  21.655   0.712  0.00  0.00    +0.252 C 
ENDBRANCH  15  25
TORSDOF 5
ENDMDL
MODEL 7
REMARK VINA RESULT:      -5.7      2.042      6.832
REMARK  Name = 57332236
REMARK  5 active torsions:
REMARK  status: ('A' for Active; 'I' for Inactive)
REMARK    1  A    between atoms: C_5  and  O_17
REMARK    2  A    between atoms: C_7  and  O_19
REMARK    3  A    between atoms: C_8  and  O_21
REMARK    4  A    between atoms: C_14  and  O_23
REMARK    5  A    between atoms: C_15  and  O_25
REMARK                            x       y       z     vdW  Elec       q    Type
REMARK                         _______ _______ _______ _____ _____    ______ ____
ROOT
ATOM      1  O   UNL     1     -35.027  23.161   5.445  0.00  0.00    -0.291 OA
ATOM      2  C   UNL     1     -34.096  25.247   2.633  0.00  0.00    +0.041 C 
ATOM      3  C   UNL     1     -34.774  25.061   4.000  0.00  0.00    +0.067 C 
ATOM      4  C   UNL     1     -33.814  26.738   2.359  0.00  0.00    +0.033 C 
ATOM      5  C   UNL     1     -32.962  27.383   3.468  0.00  0.00    +0.113 C 
ATOM      6  C   UNL     1     -33.940  25.706   5.114  0.00  0.00    +0.039 C 
ATOM      7  C   UNL     1     -33.649  27.181   4.831  0.00  0.00    +0.135 C 
ATOM      8  C   UNL     1     -34.949  24.608   1.524  0.00  0.00    +0.133 C 
ATOM      9  C   UNL     1     -34.999  23.580   4.291  0.00  0.00    +0.175 C 
ATOM     10  C   UNL     1     -35.223  23.158   1.827  0.00  0.00    +0.013 C 
ATOM     11  C   UNL     1     -32.722  28.862   3.153  0.00  0.00    +0.032 C 
ATOM     12  C   UNL     1     -35.250  22.669   3.142  0.00  0.00    +0.067 C 
ATOM     13  C   UNL     1     -35.486  22.272   0.770  0.00  0.00    +0.035 C 
ATOM     14  C   UNL     1     -35.517  21.316   3.388  0.00  0.00    +0.139 C 
ATOM     15  C   UNL     1     -35.753  20.926   1.017  0.00  0.00    +0.142 C 
ATOM     16  C   UNL     1     -35.767  20.448   2.325  0.00  0.00    +0.074 C 
ENDROOT
BRANCH   5  17
ATOM     17  O   UNL     1     -31.686  26.734   3.476  0.00  0.00    -0.384 OA
ATOM     18  H   UNL     1     -31.107  27.151   2.819  0.00  0.00    +0.210 HD
ENDBRANCH   5  17
BRANCH   7  19
ATOM     19  O   UNL     1     -32.835  27.673   5.893  0.00  0.00    -0.382 OA
ATOM     20  H   UNL     1     -32.510  26.930   6.423  0.00  0.00    +0.210 HD
ENDBRANCH   7  19
BRANCH   8  21
ATOM     21  O   UNL     1     -36.208  25.258   1.386  0.00  0.00    -0.380 OA
ATOM     22  H   UNL     1     -36.876  24.613   1.105  0.00  0.00    +0.211 HD
ENDBRANCH   8  21
BRANCH  14  23
ATOM     23  O   UNL     1     -35.549  20.782   4.642  0.00  0.00    -0.505 OA
ATOM     24  H   UNL     1     -36.092  21.167   5.301  0.00  0.00    +0.292 HD
ENDBRANCH  14  23
BRANCH  15  25
ATOM     25  O   UNL     1     -36.002  20.080  -0.019  0.00  0.00    -0.471 OA
ATOM     26  C   UNL     1     -35.393  18.791   0.035  0.00  0.00    +0.252 C 
ENDBRANCH  15  25
TORSDOF 5
ENDMDL
MODEL 8
REMARK VINA RESULT:      -5.7      2.218      6.534
REMARK  Name = 57332236
REMARK  5 active torsions:
REMARK  status: ('A' for Active; 'I' for Inactive)
REMARK    1  A    between atoms: C_5  and  O_17
REMARK    2  A    between atoms: C_7  and  O_19
REMARK    3  A    between atoms: C_8  and  O_21
REMARK    4  A    between atoms: C_14  and  O_23
REMARK    5  A    between atoms: C_15  and  O_25
REMARK                            x       y       z     vdW  Elec       q    Type
REMARK                         _______ _______ _______ _____ _____    ______ ____
ROOT
ATOM      1  O   UNL     1     -37.099  22.147   3.477  0.00  0.00    -0.291 OA
ATOM      2  C   UNL     1     -34.433  24.294   2.290  0.00  0.00    +0.041 C 
ATOM      3  C   UNL     1     -35.907  24.065   2.663  0.00  0.00    +0.067 C 
ATOM      4  C   UNL     1     -34.100  25.800   2.269  0.00  0.00    +0.033 C 
ATOM      5  C   UNL     1     -34.424  26.485   3.610  0.00  0.00    +0.113 C 
ATOM      6  C   UNL     1     -36.245  24.749   3.993  0.00  0.00    +0.039 C 
ATOM      7  C   UNL     1     -35.900  26.239   3.974  0.00  0.00    +0.135 C 
ATOM      8  C   UNL     1     -34.111  23.614   0.949  0.00  0.00    +0.133 C 
ATOM      9  C   UNL     1     -36.215  22.572   2.738  0.00  0.00    +0.175 C 
ATOM     10  C   UNL     1     -34.462  22.149   0.993  0.00  0.00    +0.013 C 
ATOM     11  C   UNL     1     -34.087  27.977   3.531  0.00  0.00    +0.032 C 
ATOM     12  C   UNL     1     -35.464  21.654   1.840  0.00  0.00    +0.067 C 
ATOM     13  C   UNL     1     -33.790  21.255   0.144  0.00  0.00    +0.035 C 
ATOM     14  C   UNL     1     -35.771  20.287   1.848  0.00  0.00    +0.139 C 
ATOM     15  C   UNL     1     -34.098  19.895   0.153  0.00  0.00    +0.142 C 
ATOM     16  C   UNL     1     -35.086  19.412   1.006  0.00  0.00    +0.074 C 
ENDROOT
BRANCH   5  17
ATOM     17  O   UNL     1     -33.582  25.908   4.613  0.00  0.00    -0.384 OA
ATOM     18  H   UNL     1     -33.385  24.988   4.379  0.00  0.00    +0.210 HD
ENDBRANCH   5  17
BRANCH   7  19
ATOM     19  O   UNL     1     -36.206  26.772   5.260  0.00  0.00    -0.382 OA
ATOM     20  H   UNL     1     -35.775  26.234   5.943  0.00  0.00    +0.210 HD
ENDBRANCH   7  19
BRANCH   8  21
ATOM     21  O   UNL     1     -34.843  24.194  -0.126  0.00  0.00    -0.380 OA
ATOM     22  H   UNL     1     -35.380  23.510  -0.557  0.00  0.00    +0.211 HD
ENDBRANCH   8  21
BRANCH  14  23
ATOM     23  O   UNL     1     -36.729  19.746   2.655  0.00  0.00    -0.505 OA
ATOM     24  H   UNL     1     -37.351  20.302   3.081  0.00  0.00    +0.292 HD
ENDBRANCH  14  23
BRANCH  15  25
ATOM     25  O   UNL     1     -33.434  19.041  -0.672  0.00  0.00    -0.471 OA
ATOM     26  C   UNL     1     -32.940  17.833  -0.096  0.00  0.00    +0.252 C 
ENDBRANCH  15  25
TORSDOF 5
ENDMDL
MODEL 9
REMARK VINA RESULT:      -5.7      3.727      7.623
REMARK  Name = 57332236
REMARK  5 active torsions:
REMARK  status: ('A' for Active; 'I' for Inactive)
REMARK    1  A    between atoms: C_5  and  O_17
REMARK    2  A    between atoms: C_7  and  O_19
REMARK    3  A    between atoms: C_8  and  O_21
REMARK    4  A    between atoms: C_14  and  O_23
REMARK    5  A    between atoms: C_15  and  O_25
REMARK                            x       y       z     vdW  Elec       q    Type
REMARK                         _______ _______ _______ _____ _____    ______ ____
ROOT
ATOM      1  O   UNL     1     -36.044  28.493   2.147  0.00  0.00    -0.291 OA
ATOM      2  C   UNL     1     -33.152  28.024   4.279  0.00  0.00    +0.041 C 
ATOM      3  C   UNL     1     -33.780  28.461   2.945  0.00  0.00    +0.067 C 
ATOM      4  C   UNL     1     -31.745  28.631   4.447  0.00  0.00    +0.033 C 
ATOM      5  C   UNL     1     -31.756  30.167   4.340  0.00  0.00    +0.113 C 
ATOM      6  C   UNL     1     -33.791  29.989   2.822  0.00  0.00    +0.039 C 
ATOM      7  C   UNL     1     -32.396  30.588   3.004  0.00  0.00    +0.135 C 
ATOM      8  C   UNL     1     -33.136  26.491   4.384  0.00  0.00    +0.133 C 
ATOM      9  C   UNL     1     -35.195  27.904   2.811  0.00  0.00    +0.175 C 
ATOM     10  C   UNL     1     -34.520  25.926   4.199  0.00  0.00    +0.013 C 
ATOM     11  C   UNL     1     -30.336  30.715   4.501  0.00  0.00    +0.032 C 
ATOM     12  C   UNL     1     -35.499  26.595   3.449  0.00  0.00    +0.067 C 
ATOM     13  C   UNL     1     -34.837  24.681   4.768  0.00  0.00    +0.035 C 
ATOM     14  C   UNL     1     -36.773  26.036   3.290  0.00  0.00    +0.139 C 
ATOM     15  C   UNL     1     -36.106  24.126   4.607  0.00  0.00    +0.142 C 
ATOM     16  C   UNL     1     -37.073  24.804   3.870  0.00  0.00    +0.074 C 
ENDROOT
BRANCH   5  17
ATOM     17  O   UNL     1     -32.538  30.677   5.425  0.00  0.00    -0.384 OA
ATOM     18  H   UNL     1     -33.478  30.504   5.256  0.00  0.00    +0.210 HD
ENDBRANCH   5  17
BRANCH   7  19
ATOM     19  O   UNL     1     -32.518  32.006   2.919  0.00  0.00    -0.382 OA
ATOM     20  H   UNL     1     -33.149  32.235   2.219  0.00  0.00    +0.210 HD
ENDBRANCH   7  19
BRANCH   8  21
ATOM     21  O   UNL     1     -32.301  25.903   3.391  0.00  0.00    -0.380 OA
ATOM     22  H   UNL     1     -32.255  24.944   3.534  0.00  0.00    +0.211 HD
ENDBRANCH   8  21
BRANCH  14  23
ATOM     23  O   UNL     1     -37.766  26.643   2.579  0.00  0.00    -0.505 OA
ATOM     24  H   UNL     1     -38.423  27.141   3.023  0.00  0.00    +0.292 HD
ENDBRANCH  14  23
BRANCH  15  25
ATOM     25  O   UNL     1     -36.399  22.922   5.169  0.00  0.00    -0.471 OA
ATOM     26  C   UNL     1     -35.375  22.301   5.944  0.00  0.00    +0.252 C 
ENDBRANCH  15  25
TORSDOF 5
ENDMDL
