MODEL 1
REMARK VINA RESULT:      -6.5      0.000      0.000
REMARK  Name = 5458510
REMARK  5 active torsions:
REMARK  status: ('A' for Active; 'I' for Inactive)
REMARK    1  A    between atoms: C_6  and  C_24
REMARK    2  A    between atoms: C_10  and  O_20
REMARK    3  A    between atoms: C_13  and  O_18
REMARK    4  A    between atoms: O_20  and  C_22
REMARK    5  A    between atoms: C_24  and  O_25
REMARK                            x       y       z     vdW  Elec       q    Type
REMARK                         _______ _______ _______ _____ _____    ______ ____
ROOT
ATOM      1  O   UNL     1     -32.998  26.962   0.885  0.00  0.00    -0.351 OA
ATOM      2  O   UNL     1     -33.023  25.534   4.235  0.00  0.00    -0.348 OA
ATOM      3  O   UNL     1     -36.495  22.055   3.451  0.00  0.00    -0.289 OA
ATOM      4  C   UNL     1     -34.930  26.690   2.457  0.00  0.00    +0.039 C 
ATOM      5  C   UNL     1     -33.512  26.327   2.065  0.00  0.00    +0.148 C 
ATOM      6  C   UNL     1     -35.422  25.534   3.452  0.00  0.00    +0.090 C 
ATOM      7  C   UNL     1     -32.702  26.563   3.292  0.00  0.00    +0.182 C 
ATOM      8  C   UNL     1     -34.659  28.026   3.255  0.00  0.00    +0.049 C 
ATOM      9  C   UNL     1     -33.055  25.529   0.869  0.00  0.00    +0.172 C 
ATOM     10  C   UNL     1     -33.186  27.957   3.717  0.00  0.00    +0.198 C 
ATOM     11  C   UNL     1     -34.402  25.445   4.644  0.00  0.00    +0.142 C 
ATOM     12  C   UNL     1     -35.857  26.979   1.273  0.00  0.00    +0.003 C 
ATOM     13  C   UNL     1     -35.472  24.132   2.770  0.00  0.00    +0.176 C 
ATOM     14  C   UNL     1     -34.506  24.187   5.462  0.00  0.00    +0.002 C 
ATOM     15  C   UNL     1     -35.782  23.010   3.757  0.00  0.00    +0.196 C 
ATOM     16  C   UNL     1     -35.146  23.066   5.103  0.00  0.00    +0.013 C 
ATOM     17  C   UNL     1     -35.257  21.860   5.981  0.00  0.00    +0.034 C 
ENDROOT
BRANCH  13  18
ATOM     18  O   UNL     1     -36.460  24.079   1.754  0.00  0.00    -0.377 OA
ATOM     19  H   UNL     1     -36.061  23.755   0.931  0.00  0.00    +0.211 HD
ENDBRANCH  13  18
BRANCH  10  20
ATOM     20  O   UNL     1     -33.027  28.192   5.101  0.00  0.00    -0.450 OA
BRANCH  20  22
ATOM     21  O   UNL     1     -30.804  28.041   5.709  0.00  0.00    -0.250 OA
ATOM     22  C   UNL     1     -31.814  28.696   5.492  0.00  0.00    +0.318 C 
ATOM     23  C   UNL     1     -31.890  30.188   5.622  0.00  0.00    +0.121 C 
ENDBRANCH  20  22
ENDBRANCH  10  20
BRANCH   6  24
ATOM     24  C   UNL     1     -36.838  25.859   4.008  0.00  0.00    +0.143 C 
BRANCH  24  25
ATOM     25  O   UNL     1     -36.666  26.599   5.191  0.00  0.00    -0.382 OA
ATOM     26  H   UNL     1     -37.062  26.116   5.935  0.00  0.00    +0.210 HD
ENDBRANCH  24  25
ENDBRANCH   6  24
TORSDOF 5
ENDMDL
MODEL 2
REMARK VINA RESULT:      -5.7      3.541      5.785
REMARK  Name = 5458510
REMARK  5 active torsions:
REMARK  status: ('A' for Active; 'I' for Inactive)
REMARK    1  A    between atoms: C_6  and  C_24
REMARK    2  A    between atoms: C_10  and  O_20
REMARK    3  A    between atoms: C_13  and  O_18
REMARK    4  A    between atoms: O_20  and  C_22
REMARK    5  A    between atoms: C_24  and  O_25
REMARK                            x       y       z     vdW  Elec       q    Type
REMARK                         _______ _______ _______ _____ _____    ______ ____
ROOT
ATOM      1  O   UNL     1     -36.748  22.033   0.075  0.00  0.00    -0.351 OA
ATOM      2  O   UNL     1     -38.656  23.164   2.964  0.00  0.00    -0.348 OA
ATOM      3  O   UNL     1     -40.635  27.239   0.903  0.00  0.00    -0.289 OA
ATOM      4  C   UNL     1     -36.654  24.247   1.246  0.00  0.00    +0.039 C 
ATOM      5  C   UNL     1     -37.380  22.942   0.989  0.00  0.00    +0.148 C 
ATOM      6  C   UNL     1     -37.745  25.244   1.864  0.00  0.00    +0.090 C 
ATOM      7  C   UNL     1     -37.637  22.373   2.341  0.00  0.00    +0.182 C 
ATOM      8  C   UNL     1     -35.638  23.780   2.361  0.00  0.00    +0.049 C 
ATOM      9  C   UNL     1     -38.060  22.492  -0.281  0.00  0.00    +0.172 C 
ATOM     10  C   UNL     1     -36.259  22.518   3.003  0.00  0.00    +0.198 C 
ATOM     11  C   UNL     1     -38.366  24.565   3.137  0.00  0.00    +0.142 C 
ATOM     12  C   UNL     1     -35.878  24.785   0.040  0.00  0.00    +0.003 C 
ATOM     13  C   UNL     1     -38.914  25.548   0.876  0.00  0.00    +0.176 C 
ATOM     14  C   UNL     1     -39.646  25.192   3.618  0.00  0.00    +0.002 C 
ATOM     15  C   UNL     1     -40.030  26.363   1.521  0.00  0.00    +0.196 C 
ATOM     16  C   UNL     1     -40.420  26.035   2.921  0.00  0.00    +0.013 C 
ATOM     17  C   UNL     1     -41.659  26.665   3.471  0.00  0.00    +0.034 C 
ENDROOT
BRANCH  13  18
ATOM     18  O   UNL     1     -38.466  26.275  -0.256  0.00  0.00    -0.377 OA
ATOM     19  H   UNL     1     -39.223  26.702  -0.687  0.00  0.00    +0.211 HD
ENDBRANCH  13  18
BRANCH  10  20
ATOM     20  O   UNL     1     -36.334  22.591   4.411  0.00  0.00    -0.450 OA
BRANCH  20  22
ATOM     21  O   UNL     1     -35.025  20.706   4.674  0.00  0.00    -0.250 OA
ATOM     22  C   UNL     1     -35.511  21.743   5.106  0.00  0.00    +0.318 C 
ATOM     23  C   UNL     1     -35.280  22.265   6.492  0.00  0.00    +0.121 C 
ENDBRANCH  20  22
ENDBRANCH  10  20
BRANCH   6  24
ATOM     24  C   UNL     1     -37.083  26.593   2.269  0.00  0.00    +0.143 C 
BRANCH  24  25
ATOM     25  O   UNL     1     -36.722  26.494   3.625  0.00  0.00    -0.382 OA
ATOM     26  H   UNL     1     -36.245  25.662   3.773  0.00  0.00    +0.210 HD
ENDBRANCH  24  25
ENDBRANCH   6  24
TORSDOF 5
ENDMDL
MODEL 3
REMARK VINA RESULT:      -5.5      2.101      5.653
REMARK  Name = 5458510
REMARK  5 active torsions:
REMARK  status: ('A' for Active; 'I' for Inactive)
REMARK    1  A    between atoms: C_6  and  C_24
REMARK    2  A    between atoms: C_10  and  O_20
REMARK    3  A    between atoms: C_13  and  O_18
REMARK    4  A    between atoms: O_20  and  C_22
REMARK    5  A    between atoms: C_24  and  O_25
REMARK                            x       y       z     vdW  Elec       q    Type
REMARK                         _______ _______ _______ _____ _____    ______ ____
ROOT
ATOM      1  O   UNL     1     -36.250  22.874   1.501  0.00  0.00    -0.351 OA
ATOM      2  O   UNL     1     -36.207  26.515   1.612  0.00  0.00    -0.348 OA
ATOM      3  O   UNL     1     -31.936  27.057   4.108  0.00  0.00    -0.289 OA
ATOM      4  C   UNL     1     -36.106  24.380   3.499  0.00  0.00    +0.039 C 
ATOM      5  C   UNL     1     -35.990  24.196   2.000  0.00  0.00    +0.148 C 
ATOM      6  C   UNL     1     -35.317  25.733   3.839  0.00  0.00    +0.090 C 
ATOM      7  C   UNL     1     -36.859  25.255   1.415  0.00  0.00    +0.182 C 
ATOM      8  C   UNL     1     -37.664  24.602   3.629  0.00  0.00    +0.049 C 
ATOM      9  C   UNL     1     -34.948  23.415   1.238  0.00  0.00    +0.172 C 
ATOM     10  C   UNL     1     -38.142  25.092   2.243  0.00  0.00    +0.198 C 
ATOM     11  C   UNL     1     -35.934  26.891   2.975  0.00  0.00    +0.142 C 
ATOM     12  C   UNL     1     -35.694  23.154   4.319  0.00  0.00    +0.003 C 
ATOM     13  C   UNL     1     -33.797  25.649   3.496  0.00  0.00    +0.176 C 
ATOM     14  C   UNL     1     -35.086  28.131   2.896  0.00  0.00    +0.002 C 
ATOM     15  C   UNL     1     -33.082  26.985   3.666  0.00  0.00    +0.196 C 
ATOM     16  C   UNL     1     -33.790  28.220   3.224  0.00  0.00    +0.013 C 
ATOM     17  C   UNL     1     -33.009  29.494   3.170  0.00  0.00    +0.034 C 
ENDROOT
BRANCH  13  18
ATOM     18  O   UNL     1     -33.127  24.708   4.319  0.00  0.00    -0.377 OA
ATOM     19  H   UNL     1     -32.494  25.171   4.890  0.00  0.00    +0.211 HD
ENDBRANCH  13  18
BRANCH  10  20
ATOM     20  O   UNL     1     -38.904  26.279   2.306  0.00  0.00    -0.450 OA
BRANCH  20  22
ATOM     21  O   UNL     1     -40.895  26.813   3.349  0.00  0.00    -0.250 OA
ATOM     22  C   UNL     1     -40.240  26.126   2.577  0.00  0.00    +0.318 C 
ATOM     23  C   UNL     1     -40.801  24.982   1.787  0.00  0.00    +0.121 C 
ENDBRANCH  20  22
ENDBRANCH  10  20
BRANCH   6  24
ATOM     24  C   UNL     1     -35.459  26.083   5.348  0.00  0.00    +0.143 C 
BRANCH  24  25
ATOM     25  O   UNL     1     -36.715  26.691   5.523  0.00  0.00    -0.382 OA
ATOM     26  H   UNL     1     -36.775  27.478   4.958  0.00  0.00    +0.210 HD
ENDBRANCH  24  25
ENDBRANCH   6  24
TORSDOF 5
ENDMDL
MODEL 4
REMARK VINA RESULT:      -5.5      3.146      6.666
REMARK  Name = 5458510
REMARK  5 active torsions:
REMARK  status: ('A' for Active; 'I' for Inactive)
REMARK    1  A    between atoms: C_6  and  C_24
REMARK    2  A    between atoms: C_10  and  O_20
REMARK    3  A    between atoms: C_13  and  O_18
REMARK    4  A    between atoms: O_20  and  C_22
REMARK    5  A    between atoms: C_24  and  O_25
REMARK                            x       y       z     vdW  Elec       q    Type
REMARK                         _______ _______ _______ _____ _____    ______ ____
ROOT
ATOM      1  O   UNL     1     -40.361  25.089   1.887  0.00  0.00    -0.351 OA
ATOM      2  O   UNL     1     -38.204  22.339   2.912  0.00  0.00    -0.348 OA
ATOM      3  O   UNL     1     -35.267  24.910   6.000  0.00  0.00    -0.289 OA
ATOM      4  C   UNL     1     -37.866  24.915   1.737  0.00  0.00    +0.039 C 
ATOM      5  C   UNL     1     -39.171  24.409   2.316  0.00  0.00    +0.148 C 
ATOM      6  C   UNL     1     -36.712  24.363   2.703  0.00  0.00    +0.090 C 
ATOM      7  C   UNL     1     -39.169  22.945   2.044  0.00  0.00    +0.182 C 
ATOM      8  C   UNL     1     -37.855  24.136   0.363  0.00  0.00    +0.049 C 
ATOM      9  C   UNL     1     -40.085  25.104   3.295  0.00  0.00    +0.172 C 
ATOM     10  C   UNL     1     -38.770  22.907   0.562  0.00  0.00    +0.198 C 
ATOM     11  C   UNL     1     -36.845  22.800   2.783  0.00  0.00    +0.142 C 
ATOM     12  C   UNL     1     -37.836  26.423   1.472  0.00  0.00    +0.003 C 
ATOM     13  C   UNL     1     -36.824  24.919   4.157  0.00  0.00    +0.176 C 
ATOM     14  C   UNL     1     -36.088  22.165   3.917  0.00  0.00    +0.002 C 
ATOM     15  C   UNL     1     -35.829  24.269   5.112  0.00  0.00    +0.196 C 
ATOM     16  C   UNL     1     -35.588  22.804   4.984  0.00  0.00    +0.013 C 
ATOM     17  C   UNL     1     -34.800  22.126   6.059  0.00  0.00    +0.034 C 
ENDROOT
BRANCH  13  18
ATOM     18  O   UNL     1     -36.594  26.317   4.201  0.00  0.00    -0.377 OA
ATOM     19  H   UNL     1     -36.427  26.589   5.117  0.00  0.00    +0.211 HD
ENDBRANCH  13  18
BRANCH  10  20
ATOM     20  O   UNL     1     -38.154  21.691   0.193  0.00  0.00    -0.450 OA
BRANCH  20  22
ATOM     21  O   UNL     1     -40.211  20.645   0.099  0.00  0.00    -0.250 OA
ATOM     22  C   UNL     1     -38.992  20.625  -0.006  0.00  0.00    +0.318 C 
ATOM     23  C   UNL     1     -38.202  19.406  -0.375  0.00  0.00    +0.121 C 
ENDBRANCH  20  22
ENDBRANCH  10  20
BRANCH   6  24
ATOM     24  C   UNL     1     -35.309  24.734   2.144  0.00  0.00    +0.143 C 
BRANCH  24  25
ATOM     25  O   UNL     1     -34.824  23.614   1.445  0.00  0.00    -0.382 OA
ATOM     26  H   UNL     1     -35.434  23.395   0.723  0.00  0.00    +0.210 HD
ENDBRANCH  24  25
ENDBRANCH   6  24
TORSDOF 5
ENDMDL
MODEL 5
REMARK VINA RESULT:      -5.5      3.359      5.077
REMARK  Name = 5458510
REMARK  5 active torsions:
REMARK  status: ('A' for Active; 'I' for Inactive)
REMARK    1  A    between atoms: C_6  and  C_24
REMARK    2  A    between atoms: C_10  and  O_20
REMARK    3  A    between atoms: C_13  and  O_18
REMARK    4  A    between atoms: O_20  and  C_22
REMARK    5  A    between atoms: C_24  and  O_25
REMARK                            x       y       z     vdW  Elec       q    Type
REMARK                         _______ _______ _______ _____ _____    ______ ____
ROOT
ATOM      1  O   UNL     1     -36.321  25.701   0.645  0.00  0.00    -0.351 OA
ATOM      2  O   UNL     1     -34.956  22.914   2.553  0.00  0.00    -0.348 OA
ATOM      3  O   UNL     1     -34.725  19.611  -1.164  0.00  0.00    -0.289 OA
ATOM      4  C   UNL     1     -37.243  23.387   0.917  0.00  0.00    +0.039 C 
ATOM      5  C   UNL     1     -36.075  24.343   1.041  0.00  0.00    +0.148 C 
ATOM      6  C   UNL     1     -36.612  21.914   0.933  0.00  0.00    +0.090 C 
ATOM      7  C   UNL     1     -35.600  24.189   2.444  0.00  0.00    +0.182 C 
ATOM      8  C   UNL     1     -37.986  23.683   2.279  0.00  0.00    +0.049 C 
ATOM      9  C   UNL     1     -35.291  25.001  -0.068  0.00  0.00    +0.172 C 
ATOM     10  C   UNL     1     -36.919  24.277   3.226  0.00  0.00    +0.198 C 
ATOM     11  C   UNL     1     -35.760  21.760   2.244  0.00  0.00    +0.142 C 
ATOM     12  C   UNL     1     -38.183  23.688  -0.255  0.00  0.00    +0.003 C 
ATOM     13  C   UNL     1     -35.663  21.650  -0.278  0.00  0.00    +0.176 C 
ATOM     14  C   UNL     1     -34.813  20.591   2.239  0.00  0.00    +0.002 C 
ATOM     15  C   UNL     1     -34.938  20.313  -0.175  0.00  0.00    +0.196 C 
ATOM     16  C   UNL     1     -34.433  19.890   1.162  0.00  0.00    +0.013 C 
ATOM     17  C   UNL     1     -33.524  18.705   1.226  0.00  0.00    +0.034 C 
ENDROOT
BRANCH  13  18
ATOM     18  O   UNL     1     -36.372  21.648  -1.506  0.00  0.00    -0.377 OA
ATOM     19  H   UNL     1     -36.745  22.529  -1.666  0.00  0.00    +0.211 HD
ENDBRANCH  13  18
BRANCH  10  20
ATOM     20  O   UNL     1     -36.858  23.620   4.475  0.00  0.00    -0.450 OA
BRANCH  20  22
ATOM     21  O   UNL     1     -35.744  25.285   5.625  0.00  0.00    -0.250 OA
ATOM     22  C   UNL     1     -35.938  24.104   5.368  0.00  0.00    +0.318 C 
ATOM     23  C   UNL     1     -35.185  22.973   6.001  0.00  0.00    +0.121 C 
ENDBRANCH  20  22
ENDBRANCH  10  20
BRANCH   6  24
ATOM     24  C   UNL     1     -37.736  20.838   0.917  0.00  0.00    +0.143 C 
BRANCH  24  25
ATOM     25  O   UNL     1     -38.132  20.625   2.250  0.00  0.00    -0.382 OA
ATOM     26  H   UNL     1     -39.086  20.449   2.279  0.00  0.00    +0.210 HD
ENDBRANCH  24  25
ENDBRANCH   6  24
TORSDOF 5
ENDMDL
MODEL 6
REMARK VINA RESULT:      -5.5      1.395      1.593
REMARK  Name = 5458510
REMARK  5 active torsions:
REMARK  status: ('A' for Active; 'I' for Inactive)
REMARK    1  A    between atoms: C_6  and  C_24
REMARK    2  A    between atoms: C_10  and  O_20
REMARK    3  A    between atoms: C_13  and  O_18
REMARK    4  A    between atoms: O_20  and  C_22
REMARK    5  A    between atoms: C_24  and  O_25
REMARK                            x       y       z     vdW  Elec       q    Type
REMARK                         _______ _______ _______ _____ _____    ______ ____
ROOT
ATOM      1  O   UNL     1     -33.361  26.187   0.163  0.00  0.00    -0.351 OA
ATOM      2  O   UNL     1     -33.633  25.806   3.776  0.00  0.00    -0.348 OA
ATOM      3  O   UNL     1     -35.956  21.404   3.808  0.00  0.00    -0.289 OA
ATOM      4  C   UNL     1     -35.416  25.824   1.550  0.00  0.00    +0.039 C 
ATOM      5  C   UNL     1     -33.907  25.787   1.430  0.00  0.00    +0.148 C 
ATOM      6  C   UNL     1     -35.781  24.900   2.808  0.00  0.00    +0.090 C 
ATOM      7  C   UNL     1     -33.410  26.578   2.590  0.00  0.00    +0.182 C 
ATOM      8  C   UNL     1     -35.626  27.348   1.905  0.00  0.00    +0.049 C 
ATOM      9  C   UNL     1     -33.063  24.853   0.597  0.00  0.00    +0.172 C 
ATOM     10  C   UNL     1     -34.287  27.836   2.503  0.00  0.00    +0.198 C 
ATOM     11  C   UNL     1     -34.999  25.443   4.058  0.00  0.00    +0.142 C 
ATOM     12  C   UNL     1     -36.161  25.493   0.253  0.00  0.00    +0.003 C 
ATOM     13  C   UNL     1     -35.366  23.411   2.605  0.00  0.00    +0.176 C 
ATOM     14  C   UNL     1     -34.937  24.489   5.219  0.00  0.00    +0.002 C 
ATOM     15  C   UNL     1     -35.563  22.569   3.862  0.00  0.00    +0.196 C 
ATOM     16  C   UNL     1     -35.210  23.177   5.175  0.00  0.00    +0.013 C 
ATOM     17  C   UNL     1     -35.178  22.286   6.375  0.00  0.00    +0.034 C 
ENDROOT
BRANCH  13  18
ATOM     18  O   UNL     1     -36.114  22.796   1.569  0.00  0.00    -0.377 OA
ATOM     19  H   UNL     1     -35.899  23.216   0.721  0.00  0.00    +0.211 HD
ENDBRANCH  13  18
BRANCH  10  20
ATOM     20  O   UNL     1     -34.438  28.482   3.750  0.00  0.00    -0.450 OA
BRANCH  20  22
ATOM     21  O   UNL     1     -32.888  29.989   4.565  0.00  0.00    -0.250 OA
ATOM     22  C   UNL     1     -33.854  29.717   3.864  0.00  0.00    +0.318 C 
ATOM     23  C   UNL     1     -34.569  30.711   3.000  0.00  0.00    +0.121 C 
ENDBRANCH  20  22
ENDBRANCH  10  20
BRANCH   6  24
ATOM     24  C   UNL     1     -37.309  24.948   3.095  0.00  0.00    +0.143 C 
BRANCH  24  25
ATOM     25  O   UNL     1     -37.515  25.884   4.125  0.00  0.00    -0.382 OA
ATOM     26  H   UNL     1     -36.893  26.621   4.022  0.00  0.00    +0.210 HD
ENDBRANCH  24  25
ENDBRANCH   6  24
TORSDOF 5
ENDMDL
MODEL 7
REMARK VINA RESULT:      -5.4      2.088      4.158
REMARK  Name = 5458510
REMARK  5 active torsions:
REMARK  status: ('A' for Active; 'I' for Inactive)
REMARK    1  A    between atoms: C_6  and  C_24
REMARK    2  A    between atoms: C_10  and  O_20
REMARK    3  A    between atoms: C_13  and  O_18
REMARK    4  A    between atoms: O_20  and  C_22
REMARK    5  A    between atoms: C_24  and  O_25
REMARK                            x       y       z     vdW  Elec       q    Type
REMARK                         _______ _______ _______ _____ _____    ______ ____
ROOT
ATOM      1  O   UNL     1     -34.574  22.863   5.489  0.00  0.00    -0.351 OA
ATOM      2  O   UNL     1     -36.763  25.634   4.596  0.00  0.00    -0.348 OA
ATOM      3  O   UNL     1     -40.234  22.995   2.196  0.00  0.00    -0.289 OA
ATOM      4  C   UNL     1     -35.380  23.555   3.219  0.00  0.00    +0.039 C 
ATOM      5  C   UNL     1     -35.516  23.633   4.726  0.00  0.00    +0.148 C 
ATOM      6  C   UNL     1     -36.779  24.061   2.623  0.00  0.00    +0.090 C 
ATOM      7  C   UNL     1     -35.514  25.090   5.037  0.00  0.00    +0.182 C 
ATOM      8  C   UNL     1     -34.257  24.642   2.989  0.00  0.00    +0.049 C 
ATOM      9  C   UNL     1     -35.961  22.548   5.676  0.00  0.00    +0.172 C 
ATOM     10  C   UNL     1     -34.310  25.577   4.218  0.00  0.00    +0.198 C 
ATOM     11  C   UNL     1     -37.065  25.497   3.194  0.00  0.00    +0.142 C 
ATOM     12  C   UNL     1     -34.894  22.199   2.699  0.00  0.00    +0.003 C 
ATOM     13  C   UNL     1     -37.975  23.146   3.031  0.00  0.00    +0.176 C 
ATOM     14  C   UNL     1     -38.487  25.960   3.034  0.00  0.00    +0.002 C 
ATOM     15  C   UNL     1     -39.323  23.717   2.602  0.00  0.00    +0.196 C 
ATOM     16  C   UNL     1     -39.539  25.184   2.740  0.00  0.00    +0.013 C 
ATOM     17  C   UNL     1     -40.926  25.710   2.546  0.00  0.00    +0.034 C 
ENDROOT
BRANCH  13  18
ATOM     18  O   UNL     1     -37.865  21.855   2.455  0.00  0.00    -0.377 OA
ATOM     19  H   UNL     1     -38.453  21.241   2.923  0.00  0.00    +0.211 HD
ENDBRANCH  13  18
BRANCH  10  20
ATOM     20  O   UNL     1     -34.402  26.944   3.873  0.00  0.00    -0.450 OA
BRANCH  20  22
ATOM     21  O   UNL     1     -32.140  27.273   4.202  0.00  0.00    -0.250 OA
ATOM     22  C   UNL     1     -33.214  27.611   3.725  0.00  0.00    +0.318 C 
ATOM     23  C   UNL     1     -33.410  28.837   2.884  0.00  0.00    +0.121 C 
ENDBRANCH  20  22
ENDBRANCH  10  20
BRANCH   6  24
ATOM     24  C   UNL     1     -36.719  24.126   1.070  0.00  0.00    +0.143 C 
BRANCH  24  25
ATOM     25  O   UNL     1     -36.373  25.442   0.716  0.00  0.00    -0.382 OA
ATOM     26  H   UNL     1     -35.895  25.435  -0.128  0.00  0.00    +0.210 HD
ENDBRANCH  24  25
ENDBRANCH   6  24
TORSDOF 5
ENDMDL
MODEL 8
REMARK VINA RESULT:      -5.1      4.013      6.858
REMARK  Name = 5458510
REMARK  5 active torsions:
REMARK  status: ('A' for Active; 'I' for Inactive)
REMARK    1  A    between atoms: C_6  and  C_24
REMARK    2  A    between atoms: C_10  and  O_20
REMARK    3  A    between atoms: C_13  and  O_18
REMARK    4  A    between atoms: O_20  and  C_22
REMARK    5  A    between atoms: C_24  and  O_25
REMARK                            x       y       z     vdW  Elec       q    Type
REMARK                         _______ _______ _______ _____ _____    ______ ____
ROOT
ATOM      1  O   UNL     1     -38.797  20.793  -0.274  0.00  0.00    -0.351 OA
ATOM      2  O   UNL     1     -36.401  20.062   2.370  0.00  0.00    -0.348 OA
ATOM      3  O   UNL     1     -36.808  24.360   4.846  0.00  0.00    -0.289 OA
ATOM      4  C   UNL     1     -36.762  22.091   0.399  0.00  0.00    +0.039 C 
ATOM      5  C   UNL     1     -37.791  21.027   0.723  0.00  0.00    +0.148 C 
ATOM      6  C   UNL     1     -36.096  22.500   1.798  0.00  0.00    +0.090 C 
ATOM      7  C   UNL     1     -36.996  19.822   1.089  0.00  0.00    +0.182 C 
ATOM      8  C   UNL     1     -35.752  21.239  -0.466  0.00  0.00    +0.049 C 
ATOM      9  C   UNL     1     -39.260  21.214   1.016  0.00  0.00    +0.172 C 
ATOM     10  C   UNL     1     -35.978  19.765  -0.059  0.00  0.00    +0.198 C 
ATOM     11  C   UNL     1     -35.523  21.200   2.468  0.00  0.00    +0.142 C 
ATOM     12  C   UNL     1     -37.300  23.254  -0.440  0.00  0.00    +0.003 C 
ATOM     13  C   UNL     1     -37.119  23.130   2.793  0.00  0.00    +0.176 C 
ATOM     14  C   UNL     1     -35.197  21.342   3.929  0.00  0.00    +0.002 C 
ATOM     15  C   UNL     1     -36.522  23.368   4.176  0.00  0.00    +0.196 C 
ATOM     16  C   UNL     1     -35.614  22.328   4.736  0.00  0.00    +0.013 C 
ATOM     17  C   UNL     1     -35.217  22.442   6.173  0.00  0.00    +0.034 C 
ENDROOT
BRANCH  13  18
ATOM     18  O   UNL     1     -37.602  24.379   2.326  0.00  0.00    -0.377 OA
ATOM     19  H   UNL     1     -38.064  24.253   1.483  0.00  0.00    +0.211 HD
ENDBRANCH  13  18
BRANCH  10  20
ATOM     20  O   UNL     1     -34.786  19.100   0.301  0.00  0.00    -0.450 OA
BRANCH  20  22
ATOM     21  O   UNL     1     -33.729  19.033  -1.751  0.00  0.00    -0.250 OA
ATOM     22  C   UNL     1     -33.723  19.260  -0.549  0.00  0.00    +0.318 C 
ATOM     23  C   UNL     1     -32.527  19.761   0.204  0.00  0.00    +0.121 C 
ENDBRANCH  20  22
ENDBRANCH  10  20
BRANCH   6  24
ATOM     24  C   UNL     1     -34.940  23.518   1.574  0.00  0.00    +0.143 C 
BRANCH  24  25
ATOM     25  O   UNL     1     -33.874  22.820   0.979  0.00  0.00    -0.382 OA
ATOM     26  H   UNL     1     -33.395  22.320   1.658  0.00  0.00    +0.210 HD
ENDBRANCH  24  25
ENDBRANCH   6  24
TORSDOF 5
ENDMDL
MODEL 9
REMARK VINA RESULT:      -5.1      2.713      5.589
REMARK  Name = 5458510
REMARK  5 active torsions:
REMARK  status: ('A' for Active; 'I' for Inactive)
REMARK    1  A    between atoms: C_6  and  C_24
REMARK    2  A    between atoms: C_10  and  O_20
REMARK    3  A    between atoms: C_13  and  O_18
REMARK    4  A    between atoms: O_20  and  C_22
REMARK    5  A    between atoms: C_24  and  O_25
REMARK                            x       y       z     vdW  Elec       q    Type
REMARK                         _______ _______ _______ _____ _____    ______ ____
ROOT
ATOM      1  O   UNL     1     -37.700  25.977  -0.691  0.00  0.00    -0.351 OA
ATOM      2  O   UNL     1     -37.649  26.528   2.909  0.00  0.00    -0.348 OA
ATOM      3  O   UNL     1     -32.937  25.147   3.727  0.00  0.00    -0.289 OA
ATOM      4  C   UNL     1     -37.129  24.358   1.133  0.00  0.00    +0.039 C 
ATOM      5  C   UNL     1     -37.343  25.789   0.687  0.00  0.00    +0.148 C 
ATOM      6  C   UNL     1     -36.291  24.442   2.496  0.00  0.00    +0.090 C 
ATOM      7  C   UNL     1     -38.322  26.353   1.657  0.00  0.00    +0.182 C 
ATOM      8  C   UNL     1     -38.623  23.938   1.430  0.00  0.00    +0.049 C 
ATOM      9  C   UNL     1     -36.489  26.607  -0.251  0.00  0.00    +0.172 C 
ATOM     10  C   UNL     1     -39.394  25.252   1.687  0.00  0.00    +0.198 C 
ATOM     11  C   UNL     1     -37.086  25.345   3.507  0.00  0.00    +0.142 C 
ATOM     12  C   UNL     1     -36.544  23.441   0.055  0.00  0.00    +0.003 C 
ATOM     13  C   UNL     1     -34.882  25.083   2.300  0.00  0.00    +0.176 C 
ATOM     14  C   UNL     1     -36.280  25.824   4.684  0.00  0.00    +0.002 C 
ATOM     15  C   UNL     1     -34.153  25.312   3.620  0.00  0.00    +0.196 C 
ATOM     16  C   UNL     1     -34.944  25.803   4.783  0.00  0.00    +0.013 C 
ATOM     17  C   UNL     1     -34.199  26.250   6.000  0.00  0.00    +0.034 C 
ENDROOT
BRANCH  13  18
ATOM     18  O   UNL     1     -34.045  24.271   1.495  0.00  0.00    -0.377 OA
ATOM     19  H   UNL     1     -33.209  24.732   1.328  0.00  0.00    +0.211 HD
ENDBRANCH  13  18
BRANCH  10  20
ATOM     20  O   UNL     1     -40.128  25.239   2.893  0.00  0.00    -0.450 OA
BRANCH  20  22
ATOM     21  O   UNL     1     -41.194  27.076   3.801  0.00  0.00    -0.250 OA
ATOM     22  C   UNL     1     -41.141  26.158   2.994  0.00  0.00    +0.318 C 
ATOM     23  C   UNL     1     -42.195  25.882   1.965  0.00  0.00    +0.121 C 
ENDBRANCH  20  22
ENDBRANCH  10  20
BRANCH   6  24
ATOM     24  C   UNL     1     -36.102  23.024   3.109  0.00  0.00    +0.143 C 
BRANCH  24  25
ATOM     25  O   UNL     1     -37.062  22.873   4.125  0.00  0.00    -0.382 OA
ATOM     26  H   UNL     1     -37.242  23.736   4.531  0.00  0.00    +0.210 HD
ENDBRANCH  24  25
ENDBRANCH   6  24
TORSDOF 5
ENDMDL
