MODEL 1
REMARK VINA RESULT:      -5.8      0.000      0.000
REMARK  Name = 5276376
REMARK  13 active torsions:
REMARK  status: ('A' for Active; 'I' for Inactive)
REMARK    1  A    between atoms: C_4  and  C_21
REMARK    2  A    between atoms: C_5  and  O_14
REMARK    3  A    between atoms: C_6  and  O_16
REMARK    4  A    between atoms: C_9  and  C_26
REMARK    5  A    between atoms: C_12  and  O_18
REMARK    6  A    between atoms: C_21  and  C_22
REMARK    7  A    between atoms: C_22  and  C_23
REMARK    8  A    between atoms: C_23  and  O_24
REMARK    9  A    between atoms: C_26  and  C_28
REMARK   10  A    between atoms: C_28  and  C_29
REMARK   11  A    between atoms: C_29  and  C_30
REMARK   12  A    between atoms: C_30  and  C_31
REMARK   13  A    between atoms: C_31  and  C_32
REMARK                            x       y       z     vdW  Elec       q    Type
REMARK                         _______ _______ _______ _____ _____    ______ ____
ROOT
ATOM      1  O   UNL     1     -35.211  21.194   4.422  0.00  0.00    -0.288 OA
ATOM      2  C   UNL     1     -36.458  24.275   2.948  0.00  0.00    +0.047 C 
ATOM      3  C   UNL     1     -35.301  23.421   3.503  0.00  0.00    +0.095 C 
ATOM      4  C   UNL     1     -36.965  23.710   1.575  0.00  0.00    +0.072 C 
ATOM      5  C   UNL     1     -36.032  25.771   2.920  0.00  0.00    +0.112 C 
ATOM      6  C   UNL     1     -34.826  23.920   4.885  0.00  0.00    +0.118 C 
ATOM      7  C   UNL     1     -34.394  25.394   4.814  0.00  0.00    +0.030 C 
ATOM      8  C   UNL     1     -35.539  26.260   4.283  0.00  0.00    +0.032 C 
ATOM      9  C   UNL     1     -37.187  22.189   1.622  0.00  0.00    -0.002 C 
ATOM     10  C   UNL     1     -35.698  21.954   3.582  0.00  0.00    +0.208 C 
ATOM     11  C   UNL     1     -36.031  24.064   0.406  0.00  0.00    +0.012 C 
ATOM     12  C   UNL     1     -36.639  21.400   2.571  0.00  0.00    +0.161 C 
ATOM     13  C   UNL     1     -33.912  25.925   6.165  0.00  0.00    +0.003 C 
ENDROOT
BRANCH   5  14
ATOM     14  O   UNL     1     -37.120  26.614   2.551  0.00  0.00    -0.384 OA
ATOM     15  H   UNL     1     -37.026  26.875   1.621  0.00  0.00    +0.210 HD
ENDBRANCH   5  14
BRANCH   6  16
ATOM     16  O   UNL     1     -35.891  23.763   5.826  0.00  0.00    -0.384 OA
ATOM     17  H   UNL     1     -36.320  22.903   5.688  0.00  0.00    +0.210 HD
ENDBRANCH   6  16
BRANCH  12  18
ATOM     18  O   UNL     1     -36.873  20.044   2.688  0.00  0.00    -0.503 OA
ATOM     19  H   UNL     1     -37.204  19.561   1.956  0.00  0.00    +0.292 HD
ENDBRANCH  12  18
BRANCH   4  21
ATOM     20  O   UNL     1     -38.592  24.868   0.260  0.00  0.00    -0.296 OA
ATOM     21  C   UNL     1     -38.335  24.299   1.321  0.00  0.00    +0.156 C 
BRANCH  21  22
ATOM     22  C   UNL     1     -39.348  24.145   2.442  0.00  0.00    +0.096 C 
BRANCH  22  23
ATOM     23  C   UNL     1     -40.313  25.317   2.539  0.00  0.00    +0.145 C 
BRANCH  23  24
ATOM     24  O   UNL     1     -39.771  26.340   3.364  0.00  0.00    -0.382 OA
ATOM     25  H   UNL     1     -38.877  26.560   3.060  0.00  0.00    +0.210 HD
ENDBRANCH  23  24
ENDBRANCH  22  23
ENDBRANCH  21  22
ENDBRANCH   4  21
BRANCH   9  26
ATOM     26  C   UNL     1     -38.053  21.590   0.528  0.00  0.00    +0.022 C 
ATOM     27  C   UNL     1     -39.355  21.100   1.147  0.00  0.00    +0.004 C 
BRANCH  26  28
ATOM     28  C   UNL     1     -37.331  20.456  -0.208  0.00  0.00    +0.004 C 
BRANCH  28  29
ATOM     29  C   UNL     1     -36.057  20.913  -0.928  0.00  0.00    +0.000 C 
BRANCH  29  30
ATOM     30  C   UNL     1     -34.904  19.937  -0.682  0.00  0.00    +0.000 C 
BRANCH  30  31
ATOM     31  C   UNL     1     -33.986  20.355   0.471  0.00  0.00    +0.000 C 
BRANCH  31  32
ATOM     32  C   UNL     1     -33.715  19.284   1.531  0.00  0.00    +0.000 C 
ATOM     33  C   UNL     1     -32.537  18.382   1.198  0.00  0.00    +0.000 C 
ENDBRANCH  31  32
ENDBRANCH  30  31
ENDBRANCH  29  30
ENDBRANCH  28  29
ENDBRANCH  26  28
ENDBRANCH   9  26
TORSDOF 13
ENDMDL
MODEL 2
REMARK VINA RESULT:      -5.7      0.906      1.051
REMARK  Name = 5276376
REMARK  13 active torsions:
REMARK  status: ('A' for Active; 'I' for Inactive)
REMARK    1  A    between atoms: C_4  and  C_21
REMARK    2  A    between atoms: C_5  and  O_14
REMARK    3  A    between atoms: C_6  and  O_16
REMARK    4  A    between atoms: C_9  and  C_26
REMARK    5  A    between atoms: C_12  and  O_18
REMARK    6  A    between atoms: C_21  and  C_22
REMARK    7  A    between atoms: C_22  and  C_23
REMARK    8  A    between atoms: C_23  and  O_24
REMARK    9  A    between atoms: C_26  and  C_28
REMARK   10  A    between atoms: C_28  and  C_29
REMARK   11  A    between atoms: C_29  and  C_30
REMARK   12  A    between atoms: C_30  and  C_31
REMARK   13  A    between atoms: C_31  and  C_32
REMARK                            x       y       z     vdW  Elec       q    Type
REMARK                         _______ _______ _______ _____ _____    ______ ____
ROOT
ATOM      1  O   UNL     1     -35.188  21.212   4.224  0.00  0.00    -0.288 OA
ATOM      2  C   UNL     1     -36.763  24.308   3.148  0.00  0.00    +0.047 C 
ATOM      3  C   UNL     1     -35.504  23.487   3.493  0.00  0.00    +0.095 C 
ATOM      4  C   UNL     1     -37.411  23.808   1.810  0.00  0.00    +0.072 C 
ATOM      5  C   UNL     1     -36.419  25.824   3.180  0.00  0.00    +0.112 C 
ATOM      6  C   UNL     1     -34.884  23.918   4.839  0.00  0.00    +0.118 C 
ATOM      7  C   UNL     1     -34.538  25.416   4.827  0.00  0.00    +0.030 C 
ATOM      8  C   UNL     1     -35.783  26.247   4.506  0.00  0.00    +0.032 C 
ATOM      9  C   UNL     1     -37.549  22.278   1.769  0.00  0.00    -0.002 C 
ATOM     10  C   UNL     1     -35.814  21.997   3.509  0.00  0.00    +0.208 C 
ATOM     11  C   UNL     1     -36.651  24.296   0.564  0.00  0.00    +0.012 C 
ATOM     12  C   UNL     1     -36.847  21.459   2.582  0.00  0.00    +0.161 C 
ATOM     13  C   UNL     1     -33.917  25.882   6.144  0.00  0.00    +0.003 C 
ENDROOT
BRANCH   5  14
ATOM     14  O   UNL     1     -37.585  26.625   3.012  0.00  0.00    -0.384 OA
ATOM     15  H   UNL     1     -37.393  27.537   3.284  0.00  0.00    +0.210 HD
ENDBRANCH   5  14
BRANCH   6  16
ATOM     16  O   UNL     1     -35.812  23.634   5.889  0.00  0.00    -0.384 OA
ATOM     17  H   UNL     1     -35.721  22.706   6.159  0.00  0.00    +0.210 HD
ENDBRANCH   6  16
BRANCH  12  18
ATOM     18  O   UNL     1     -36.996  20.087   2.625  0.00  0.00    -0.503 OA
ATOM     19  H   UNL     1     -37.292  19.624   1.865  0.00  0.00    +0.292 HD
ENDBRANCH  12  18
BRANCH   4  21
ATOM     20  O   UNL     1     -39.552  24.278   2.765  0.00  0.00    -0.296 OA
ATOM     21  C   UNL     1     -38.830  24.332   1.770  0.00  0.00    +0.156 C 
BRANCH  21  22
ATOM     22  C   UNL     1     -39.289  24.915   0.444  0.00  0.00    +0.096 C 
BRANCH  22  23
ATOM     23  C   UNL     1     -40.356  25.988   0.603  0.00  0.00    +0.145 C 
BRANCH  23  24
ATOM     24  O   UNL     1     -39.913  27.000   1.499  0.00  0.00    -0.382 OA
ATOM     25  H   UNL     1     -39.747  27.818   1.005  0.00  0.00    +0.210 HD
ENDBRANCH  23  24
ENDBRANCH  22  23
ENDBRANCH  21  22
ENDBRANCH   4  21
BRANCH   9  26
ATOM     26  C   UNL     1     -38.515  21.704   0.747  0.00  0.00    +0.022 C 
ATOM     27  C   UNL     1     -39.769  21.234   1.471  0.00  0.00    +0.004 C 
BRANCH  26  28
ATOM     28  C   UNL     1     -37.880  20.564  -0.056  0.00  0.00    +0.004 C 
BRANCH  28  29
ATOM     29  C   UNL     1     -36.868  21.047  -1.101  0.00  0.00    +0.000 C 
BRANCH  29  30
ATOM     30  C   UNL     1     -35.500  20.393  -0.889  0.00  0.00    +0.000 C 
BRANCH  30  31
ATOM     31  C   UNL     1     -34.500  21.294  -0.157  0.00  0.00    +0.000 C 
BRANCH  31  32
ATOM     32  C   UNL     1     -33.348  20.575   0.549  0.00  0.00    +0.000 C 
ATOM     33  C   UNL     1     -33.800  19.434   1.446  0.00  0.00    +0.000 C 
ENDBRANCH  31  32
ENDBRANCH  30  31
ENDBRANCH  29  30
ENDBRANCH  28  29
ENDBRANCH  26  28
ENDBRANCH   9  26
TORSDOF 13
ENDMDL
MODEL 3
REMARK VINA RESULT:      -5.7      2.280      5.782
REMARK  Name = 5276376
REMARK  13 active torsions:
REMARK  status: ('A' for Active; 'I' for Inactive)
REMARK    1  A    between atoms: C_4  and  C_21
REMARK    2  A    between atoms: C_5  and  O_14
REMARK    3  A    between atoms: C_6  and  O_16
REMARK    4  A    between atoms: C_9  and  C_26
REMARK    5  A    between atoms: C_12  and  O_18
REMARK    6  A    between atoms: C_21  and  C_22
REMARK    7  A    between atoms: C_22  and  C_23
REMARK    8  A    between atoms: C_23  and  O_24
REMARK    9  A    between atoms: C_26  and  C_28
REMARK   10  A    between atoms: C_28  and  C_29
REMARK   11  A    between atoms: C_29  and  C_30
REMARK   12  A    between atoms: C_30  and  C_31
REMARK   13  A    between atoms: C_31  and  C_32
REMARK                            x       y       z     vdW  Elec       q    Type
REMARK                         _______ _______ _______ _____ _____    ______ ____
ROOT
ATOM      1  O   UNL     1     -40.226  21.468   1.749  0.00  0.00    -0.288 OA
ATOM      2  C   UNL     1     -38.911  24.850   1.525  0.00  0.00    +0.047 C 
ATOM      3  C   UNL     1     -40.005  23.858   1.966  0.00  0.00    +0.095 C 
ATOM      4  C   UNL     1     -37.610  24.671   2.384  0.00  0.00    +0.072 C 
ATOM      5  C   UNL     1     -39.491  26.293   1.513  0.00  0.00    +0.112 C 
ATOM      6  C   UNL     1     -41.273  23.972   1.093  0.00  0.00    +0.118 C 
ATOM      7  C   UNL     1     -41.831  25.405   1.123  0.00  0.00    +0.030 C 
ATOM      8  C   UNL     1     -40.761  26.401   0.667  0.00  0.00    +0.032 C 
ATOM      9  C   UNL     1     -37.198  23.195   2.510  0.00  0.00    -0.002 C 
ATOM     10  C   UNL     1     -39.482  22.429   1.952  0.00  0.00    +0.208 C 
ATOM     11  C   UNL     1     -37.731  25.300   3.783  0.00  0.00    +0.012 C 
ATOM     12  C   UNL     1     -38.049  22.176   2.266  0.00  0.00    +0.161 C 
ATOM     13  C   UNL     1     -43.092  25.557   0.272  0.00  0.00    +0.003 C 
ENDROOT
BRANCH   5  14
ATOM     14  O   UNL     1     -38.558  27.224   0.971  0.00  0.00    -0.384 OA
ATOM     15  H   UNL     1     -37.675  26.823   0.952  0.00  0.00    +0.210 HD
ENDBRANCH   5  14
BRANCH   6  16
ATOM     16  O   UNL     1     -40.949  23.595  -0.247  0.00  0.00    -0.384 OA
ATOM     17  H   UNL     1     -40.677  24.382  -0.747  0.00  0.00    +0.210 HD
ENDBRANCH   6  16
BRANCH  12  18
ATOM     18  O   UNL     1     -37.697  20.841   2.299  0.00  0.00    -0.503 OA
ATOM     19  H   UNL     1     -37.719  20.332   1.512  0.00  0.00    +0.292 HD
ENDBRANCH  12  18
BRANCH   4  21
ATOM     20  O   UNL     1     -36.252  25.058   0.454  0.00  0.00    -0.296 OA
ATOM     21  C   UNL     1     -36.476  25.333   1.633  0.00  0.00    +0.156 C 
BRANCH  21  22
ATOM     22  C   UNL     1     -35.650  26.338   2.419  0.00  0.00    +0.096 C 
BRANCH  22  23
ATOM     23  C   UNL     1     -34.262  26.553   1.835  0.00  0.00    +0.145 C 
BRANCH  23  24
ATOM     24  O   UNL     1     -33.576  25.313   1.714  0.00  0.00    -0.382 OA
ATOM     25  H   UNL     1     -34.177  24.646   1.348  0.00  0.00    +0.210 HD
ENDBRANCH  23  24
ENDBRANCH  22  23
ENDBRANCH  21  22
ENDBRANCH   4  21
BRANCH   9  26
ATOM     26  C   UNL     1     -35.770  22.918   2.944  0.00  0.00    +0.022 C 
ATOM     27  C   UNL     1     -35.071  22.126   1.847  0.00  0.00    +0.004 C 
BRANCH  26  28
ATOM     28  C   UNL     1     -35.718  22.173   4.282  0.00  0.00    +0.004 C 
BRANCH  28  29
ATOM     29  C   UNL     1     -35.459  23.093   5.481  0.00  0.00    +0.000 C 
BRANCH  29  30
ATOM     30  C   UNL     1     -34.402  24.149   5.148  0.00  0.00    +0.000 C 
BRANCH  30  31
ATOM     31  C   UNL     1     -34.662  25.504   5.813  0.00  0.00    +0.000 C 
BRANCH  31  32
ATOM     32  C   UNL     1     -33.594  26.577   5.580  0.00  0.00    +0.000 C 
ATOM     33  C   UNL     1     -32.852  26.981   6.844  0.00  0.00    +0.000 C 
ENDBRANCH  31  32
ENDBRANCH  30  31
ENDBRANCH  29  30
ENDBRANCH  28  29
ENDBRANCH  26  28
ENDBRANCH   9  26
TORSDOF 13
ENDMDL
MODEL 4
REMARK VINA RESULT:      -5.4      2.658      4.901
REMARK  Name = 5276376
REMARK  13 active torsions:
REMARK  status: ('A' for Active; 'I' for Inactive)
REMARK    1  A    between atoms: C_4  and  C_21
REMARK    2  A    between atoms: C_5  and  O_14
REMARK    3  A    between atoms: C_6  and  O_16
REMARK    4  A    between atoms: C_9  and  C_26
REMARK    5  A    between atoms: C_12  and  O_18
REMARK    6  A    between atoms: C_21  and  C_22
REMARK    7  A    between atoms: C_22  and  C_23
REMARK    8  A    between atoms: C_23  and  O_24
REMARK    9  A    between atoms: C_26  and  C_28
REMARK   10  A    between atoms: C_28  and  C_29
REMARK   11  A    between atoms: C_29  and  C_30
REMARK   12  A    between atoms: C_30  and  C_31
REMARK   13  A    between atoms: C_31  and  C_32
REMARK                            x       y       z     vdW  Elec       q    Type
REMARK                         _______ _______ _______ _____ _____    ______ ____
ROOT
ATOM      1  O   UNL     1     -32.329  24.407   0.232  0.00  0.00    -0.288 OA
ATOM      2  C   UNL     1     -34.296  25.450   3.107  0.00  0.00    +0.047 C 
ATOM      3  C   UNL     1     -33.587  25.766   1.775  0.00  0.00    +0.095 C 
ATOM      4  C   UNL     1     -35.574  24.572   2.868  0.00  0.00    +0.072 C 
ATOM      5  C   UNL     1     -34.548  26.771   3.887  0.00  0.00    +0.112 C 
ATOM      6  C   UNL     1     -32.290  26.577   1.989  0.00  0.00    +0.118 C 
ATOM      7  C   UNL     1     -32.581  27.884   2.744  0.00  0.00    +0.030 C 
ATOM      8  C   UNL     1     -33.267  27.586   4.079  0.00  0.00    +0.032 C 
ATOM      9  C   UNL     1     -35.295  23.385   1.933  0.00  0.00    -0.002 C 
ATOM     10  C   UNL     1     -33.288  24.490   1.001  0.00  0.00    +0.208 C 
ATOM     11  C   UNL     1     -36.763  25.388   2.334  0.00  0.00    +0.012 C 
ATOM     12  C   UNL     1     -34.222  23.336   1.115  0.00  0.00    +0.161 C 
ATOM     13  C   UNL     1     -31.320  28.718   2.972  0.00  0.00    +0.003 C 
ENDROOT
BRANCH   5  14
ATOM     14  O   UNL     1     -35.069  26.515   5.189  0.00  0.00    -0.384 OA
ATOM     15  H   UNL     1     -34.480  25.902   5.658  0.00  0.00    +0.210 HD
ENDBRANCH   5  14
BRANCH   6  16
ATOM     16  O   UNL     1     -31.360  25.778   2.725  0.00  0.00    -0.384 OA
ATOM     17  H   UNL     1     -31.762  24.918   2.926  0.00  0.00    +0.210 HD
ENDBRANCH   6  16
BRANCH  12  18
ATOM     18  O   UNL     1     -33.898  22.258   0.315  0.00  0.00    -0.503 OA
ATOM     19  H   UNL     1     -34.399  21.467   0.370  0.00  0.00    +0.292 HD
ENDBRANCH  12  18
BRANCH   4  21
ATOM     20  O   UNL     1     -37.068  24.117   4.679  0.00  0.00    -0.296 OA
ATOM     21  C   UNL     1     -35.949  23.948   4.195  0.00  0.00    +0.156 C 
BRANCH  21  22
ATOM     22  C   UNL     1     -34.871  23.119   4.872  0.00  0.00    +0.096 C 
BRANCH  22  23
ATOM     23  C   UNL     1     -35.380  22.358   6.087  0.00  0.00    +0.145 C 
BRANCH  23  24
ATOM     24  O   UNL     1     -35.365  20.958   5.839  0.00  0.00    -0.382 OA
ATOM     25  H   UNL     1     -36.107  20.725   5.259  0.00  0.00    +0.210 HD
ENDBRANCH  23  24
ENDBRANCH  22  23
ENDBRANCH  21  22
ENDBRANCH   4  21
BRANCH   9  26
ATOM     26  C   UNL     1     -36.301  22.248   1.951  0.00  0.00    +0.022 C 
ATOM     27  C   UNL     1     -35.559  20.943   2.210  0.00  0.00    +0.004 C 
BRANCH  26  28
ATOM     28  C   UNL     1     -37.102  22.179   0.646  0.00  0.00    +0.004 C 
BRANCH  28  29
ATOM     29  C   UNL     1     -38.593  21.893   0.863  0.00  0.00    +0.000 C 
BRANCH  29  30
ATOM     30  C   UNL     1     -39.034  22.304   2.270  0.00  0.00    +0.000 C 
BRANCH  30  31
ATOM     31  C   UNL     1     -39.963  23.522   2.287  0.00  0.00    +0.000 C 
BRANCH  31  32
ATOM     32  C   UNL     1     -40.107  24.270   0.959  0.00  0.00    +0.000 C 
ATOM     33  C   UNL     1     -40.307  25.768   1.124  0.00  0.00    +0.000 C 
ENDBRANCH  31  32
ENDBRANCH  30  31
ENDBRANCH  29  30
ENDBRANCH  28  29
ENDBRANCH  26  28
ENDBRANCH   9  26
TORSDOF 13
ENDMDL
MODEL 5
REMARK VINA RESULT:      -5.4      2.055      3.671
REMARK  Name = 5276376
REMARK  13 active torsions:
REMARK  status: ('A' for Active; 'I' for Inactive)
REMARK    1  A    between atoms: C_4  and  C_21
REMARK    2  A    between atoms: C_5  and  O_14
REMARK    3  A    between atoms: C_6  and  O_16
REMARK    4  A    between atoms: C_9  and  C_26
REMARK    5  A    between atoms: C_12  and  O_18
REMARK    6  A    between atoms: C_21  and  C_22
REMARK    7  A    between atoms: C_22  and  C_23
REMARK    8  A    between atoms: C_23  and  O_24
REMARK    9  A    between atoms: C_26  and  C_28
REMARK   10  A    between atoms: C_28  and  C_29
REMARK   11  A    between atoms: C_29  and  C_30
REMARK   12  A    between atoms: C_30  and  C_31
REMARK   13  A    between atoms: C_31  and  C_32
REMARK                            x       y       z     vdW  Elec       q    Type
REMARK                         _______ _______ _______ _____ _____    ______ ____
ROOT
ATOM      1  O   UNL     1     -32.979  26.372   4.207  0.00  0.00    -0.288 OA
ATOM      2  C   UNL     1     -36.159  26.013   2.481  0.00  0.00    +0.047 C 
ATOM      3  C   UNL     1     -34.670  26.414   2.491  0.00  0.00    +0.095 C 
ATOM      4  C   UNL     1     -36.321  24.456   2.576  0.00  0.00    +0.072 C 
ATOM      5  C   UNL     1     -36.866  26.670   1.262  0.00  0.00    +0.112 C 
ATOM      6  C   UNL     1     -34.485  27.947   2.462  0.00  0.00    +0.118 C 
ATOM      7  C   UNL     1     -35.179  28.559   1.233  0.00  0.00    +0.030 C 
ATOM      8  C   UNL     1     -36.663  28.186   1.220  0.00  0.00    +0.032 C 
ATOM      9  C   UNL     1     -35.447  23.848   3.684  0.00  0.00    -0.002 C 
ATOM     10  C   UNL     1     -33.954  25.820   3.695  0.00  0.00    +0.208 C 
ATOM     11  C   UNL     1     -36.037  23.747   1.240  0.00  0.00    +0.012 C 
ATOM     12  C   UNL     1     -34.393  24.499   4.222  0.00  0.00    +0.161 C 
ATOM     13  C   UNL     1     -35.014  30.078   1.168  0.00  0.00    +0.003 C 
ENDROOT
BRANCH   5  14
ATOM     14  O   UNL     1     -38.273  26.446   1.294  0.00  0.00    -0.384 OA
ATOM     15  H   UNL     1     -38.476  25.753   1.942  0.00  0.00    +0.210 HD
ENDBRANCH   5  14
BRANCH   6  16
ATOM     16  O   UNL     1     -35.028  28.502   3.663  0.00  0.00    -0.384 OA
ATOM     17  H   UNL     1     -35.094  29.466   3.573  0.00  0.00    +0.210 HD
ENDBRANCH   6  16
BRANCH  12  18
ATOM     18  O   UNL     1     -33.629  24.017   5.267  0.00  0.00    -0.503 OA
ATOM     19  H   UNL     1     -33.970  23.347   5.826  0.00  0.00    +0.292 HD
ENDBRANCH  12  18
BRANCH   4  21
ATOM     20  O   UNL     1     -38.257  24.778   3.942  0.00  0.00    -0.296 OA
ATOM     21  C   UNL     1     -37.746  24.174   3.000  0.00  0.00    +0.156 C 
BRANCH  21  22
ATOM     22  C   UNL     1     -38.485  23.115   2.198  0.00  0.00    +0.096 C 
BRANCH  22  23
ATOM     23  C   UNL     1     -39.991  23.329   2.176  0.00  0.00    +0.145 C 
BRANCH  23  24
ATOM     24  O   UNL     1     -40.296  24.681   1.858  0.00  0.00    -0.382 OA
ATOM     25  H   UNL     1     -39.933  24.897   0.985  0.00  0.00    +0.210 HD
ENDBRANCH  23  24
ENDBRANCH  22  23
ENDBRANCH  21  22
ENDBRANCH   4  21
BRANCH   9  26
ATOM     26  C   UNL     1     -35.810  22.451   4.154  0.00  0.00    +0.022 C 
ATOM     27  C   UNL     1     -35.728  22.410   5.674  0.00  0.00    +0.004 C 
BRANCH  26  28
ATOM     28  C   UNL     1     -34.904  21.387   3.524  0.00  0.00    +0.004 C 
BRANCH  28  29
ATOM     29  C   UNL     1     -35.625  20.508   2.495  0.00  0.00    +0.000 C 
BRANCH  29  30
ATOM     30  C   UNL     1     -34.732  20.232   1.283  0.00  0.00    +0.000 C 
BRANCH  30  31
ATOM     31  C   UNL     1     -33.694  19.132   1.527  0.00  0.00    +0.000 C 
BRANCH  31  32
ATOM     32  C   UNL     1     -32.375  19.279   0.764  0.00  0.00    +0.000 C 
ATOM     33  C   UNL     1     -31.438  18.094   0.934  0.00  0.00    +0.000 C 
ENDBRANCH  31  32
ENDBRANCH  30  31
ENDBRANCH  29  30
ENDBRANCH  28  29
ENDBRANCH  26  28
ENDBRANCH   9  26
TORSDOF 13
ENDMDL
MODEL 6
REMARK VINA RESULT:      -5.3      2.445      6.667
REMARK  Name = 5276376
REMARK  13 active torsions:
REMARK  status: ('A' for Active; 'I' for Inactive)
REMARK    1  A    between atoms: C_4  and  C_21
REMARK    2  A    between atoms: C_5  and  O_14
REMARK    3  A    between atoms: C_6  and  O_16
REMARK    4  A    between atoms: C_9  and  C_26
REMARK    5  A    between atoms: C_12  and  O_18
REMARK    6  A    between atoms: C_21  and  C_22
REMARK    7  A    between atoms: C_22  and  C_23
REMARK    8  A    between atoms: C_23  and  O_24
REMARK    9  A    between atoms: C_26  and  C_28
REMARK   10  A    between atoms: C_28  and  C_29
REMARK   11  A    between atoms: C_29  and  C_30
REMARK   12  A    between atoms: C_30  and  C_31
REMARK   13  A    between atoms: C_31  and  C_32
REMARK                            x       y       z     vdW  Elec       q    Type
REMARK                         _______ _______ _______ _____ _____    ______ ____
ROOT
ATOM      1  O   UNL     1     -32.927  24.131  -0.110  0.00  0.00    -0.288 OA
ATOM      2  C   UNL     1     -35.796  23.102   1.872  0.00  0.00    +0.047 C 
ATOM      3  C   UNL     1     -34.439  22.795   1.208  0.00  0.00    +0.095 C 
ATOM      4  C   UNL     1     -35.618  24.070   3.093  0.00  0.00    +0.072 C 
ATOM      5  C   UNL     1     -36.529  21.770   2.197  0.00  0.00    +0.112 C 
ATOM      6  C   UNL     1     -34.596  21.894  -0.036  0.00  0.00    +0.118 C 
ATOM      7  C   UNL     1     -35.304  20.578   0.327  0.00  0.00    +0.030 C 
ATOM      8  C   UNL     1     -36.663  20.866   0.969  0.00  0.00    +0.032 C 
ATOM      9  C   UNL     1     -34.725  25.274   2.753  0.00  0.00    -0.002 C 
ATOM     10  C   UNL     1     -33.711  24.079   0.840  0.00  0.00    +0.208 C 
ATOM     11  C   UNL     1     -35.075  23.355   4.343  0.00  0.00    +0.012 C 
ATOM     12  C   UNL     1     -33.888  25.286   1.693  0.00  0.00    +0.161 C 
ATOM     13  C   UNL     1     -35.474  19.656  -0.880  0.00  0.00    +0.003 C 
ENDROOT
BRANCH   5  14
ATOM     14  O   UNL     1     -37.850  22.006   2.677  0.00  0.00    -0.384 OA
ATOM     15  H   UNL     1     -38.453  22.116   1.925  0.00  0.00    +0.210 HD
ENDBRANCH   5  14
BRANCH   6  16
ATOM     16  O   UNL     1     -35.344  22.600  -1.029  0.00  0.00    -0.384 OA
ATOM     17  H   UNL     1     -35.442  23.528  -0.760  0.00  0.00    +0.210 HD
ENDBRANCH   6  16
BRANCH  12  18
ATOM     18  O   UNL     1     -33.125  26.373   1.313  0.00  0.00    -0.503 OA
ATOM     19  H   UNL     1     -33.467  26.993   0.699  0.00  0.00    +0.292 HD
ENDBRANCH  12  18
BRANCH   4  21
ATOM     20  O   UNL     1     -37.484  24.529   4.516  0.00  0.00    -0.296 OA
ATOM     21  C   UNL     1     -36.975  24.663   3.404  0.00  0.00    +0.156 C 
BRANCH  21  22
ATOM     22  C   UNL     1     -37.650  25.418   2.271  0.00  0.00    +0.096 C 
BRANCH  22  23
ATOM     23  C   UNL     1     -39.153  25.556   2.460  0.00  0.00    +0.145 C 
BRANCH  23  24
ATOM     24  O   UNL     1     -39.439  26.478   3.504  0.00  0.00    -0.382 OA
ATOM     25  H   UNL     1     -39.143  27.364   3.243  0.00  0.00    +0.210 HD
ENDBRANCH  23  24
ENDBRANCH  22  23
ENDBRANCH  21  22
ENDBRANCH   4  21
BRANCH   9  26
ATOM     26  C   UNL     1     -34.808  26.472   3.681  0.00  0.00    +0.022 C 
ATOM     27  C   UNL     1     -35.024  27.726   2.844  0.00  0.00    +0.004 C 
BRANCH  26  28
ATOM     28  C   UNL     1     -33.554  26.601   4.554  0.00  0.00    +0.004 C 
BRANCH  28  29
ATOM     29  C   UNL     1     -33.830  26.390   6.048  0.00  0.00    +0.000 C 
BRANCH  29  30
ATOM     30  C   UNL     1     -32.765  27.076   6.907  0.00  0.00    +0.000 C 
BRANCH  30  31
ATOM     31  C   UNL     1     -31.953  28.130   6.148  0.00  0.00    +0.000 C 
BRANCH  31  32
ATOM     32  C   UNL     1     -31.807  29.486   6.843  0.00  0.00    +0.000 C 
ATOM     33  C   UNL     1     -31.890  30.669   5.891  0.00  0.00    +0.000 C 
ENDBRANCH  31  32
ENDBRANCH  30  31
ENDBRANCH  29  30
ENDBRANCH  28  29
ENDBRANCH  26  28
ENDBRANCH   9  26
TORSDOF 13
ENDMDL
MODEL 7
REMARK VINA RESULT:      -5.3      1.594      2.218
REMARK  Name = 5276376
REMARK  13 active torsions:
REMARK  status: ('A' for Active; 'I' for Inactive)
REMARK    1  A    between atoms: C_4  and  C_21
REMARK    2  A    between atoms: C_5  and  O_14
REMARK    3  A    between atoms: C_6  and  O_16
REMARK    4  A    between atoms: C_9  and  C_26
REMARK    5  A    between atoms: C_12  and  O_18
REMARK    6  A    between atoms: C_21  and  C_22
REMARK    7  A    between atoms: C_22  and  C_23
REMARK    8  A    between atoms: C_23  and  O_24
REMARK    9  A    between atoms: C_26  and  C_28
REMARK   10  A    between atoms: C_28  and  C_29
REMARK   11  A    between atoms: C_29  and  C_30
REMARK   12  A    between atoms: C_30  and  C_31
REMARK   13  A    between atoms: C_31  and  C_32
REMARK                            x       y       z     vdW  Elec       q    Type
REMARK                         _______ _______ _______ _____ _____    ______ ____
ROOT
ATOM      1  O   UNL     1     -35.282  21.490   4.241  0.00  0.00    -0.288 OA
ATOM      2  C   UNL     1     -36.610  24.618   2.948  0.00  0.00    +0.047 C 
ATOM      3  C   UNL     1     -35.421  23.736   3.378  0.00  0.00    +0.095 C 
ATOM      4  C   UNL     1     -37.251  24.087   1.618  0.00  0.00    +0.072 C 
ATOM      5  C   UNL     1     -36.165  26.107   2.909  0.00  0.00    +0.112 C 
ATOM      6  C   UNL     1     -34.813  24.200   4.719  0.00  0.00    +0.118 C 
ATOM      7  C   UNL     1     -34.365  25.669   4.637  0.00  0.00    +0.030 C 
ATOM      8  C   UNL     1     -35.541  26.561   4.230  0.00  0.00    +0.032 C 
ATOM      9  C   UNL     1     -37.491  22.569   1.655  0.00  0.00    -0.002 C 
ATOM     10  C   UNL     1     -35.832  22.273   3.465  0.00  0.00    +0.208 C 
ATOM     11  C   UNL     1     -36.423  24.453   0.374  0.00  0.00    +0.012 C 
ATOM     12  C   UNL     1     -36.871  21.753   2.534  0.00  0.00    +0.161 C 
ATOM     13  C   UNL     1     -33.753  26.166   5.947  0.00  0.00    +0.003 C 
ENDROOT
BRANCH   5  14
ATOM     14  O   UNL     1     -37.269  26.973   2.659  0.00  0.00    -0.384 OA
ATOM     15  H   UNL     1     -36.942  27.827   2.333  0.00  0.00    +0.210 HD
ENDBRANCH   5  14
BRANCH   6  16
ATOM     16  O   UNL     1     -35.789  24.038   5.751  0.00  0.00    -0.384 OA
ATOM     17  H   UNL     1     -36.449  23.384   5.472  0.00  0.00    +0.210 HD
ENDBRANCH   6  16
BRANCH  12  18
ATOM     18  O   UNL     1     -37.114  20.399   2.647  0.00  0.00    -0.503 OA
ATOM     19  H   UNL     1     -37.972  20.094   2.872  0.00  0.00    +0.292 HD
ENDBRANCH  12  18
BRANCH   4  21
ATOM     20  O   UNL     1     -38.935  25.389   0.528  0.00  0.00    -0.296 OA
ATOM     21  C   UNL     1     -38.629  24.701   1.502  0.00  0.00    +0.156 C 
BRANCH  21  22
ATOM     22  C   UNL     1     -39.586  24.416   2.647  0.00  0.00    +0.096 C 
BRANCH  22  23
ATOM     23  C   UNL     1     -40.561  25.554   2.905  0.00  0.00    +0.145 C 
BRANCH  23  24
ATOM     24  O   UNL     1     -39.867  26.711   3.354  0.00  0.00    -0.382 OA
ATOM     25  H   UNL     1     -40.501  27.347   3.719  0.00  0.00    +0.210 HD
ENDBRANCH  23  24
ENDBRANCH  22  23
ENDBRANCH  21  22
ENDBRANCH   4  21
BRANCH   9  26
ATOM     26  C   UNL     1     -38.463  22.005   0.635  0.00  0.00    +0.022 C 
ATOM     27  C   UNL     1     -39.582  21.283   1.373  0.00  0.00    +0.004 C 
BRANCH  26  28
ATOM     28  C   UNL     1     -37.763  21.070  -0.358  0.00  0.00    +0.004 C 
BRANCH  28  29
ATOM     29  C   UNL     1     -38.421  19.688  -0.458  0.00  0.00    +0.000 C 
BRANCH  29  30
ATOM     30  C   UNL     1     -37.388  18.572  -0.293  0.00  0.00    +0.000 C 
BRANCH  30  31
ATOM     31  C   UNL     1     -37.694  17.327  -1.131  0.00  0.00    +0.000 C 
BRANCH  31  32
ATOM     32  C   UNL     1     -38.306  16.146  -0.373  0.00  0.00    +0.000 C 
ATOM     33  C   UNL     1     -39.673  15.730  -0.892  0.00  0.00    +0.000 C 
ENDBRANCH  31  32
ENDBRANCH  30  31
ENDBRANCH  29  30
ENDBRANCH  28  29
ENDBRANCH  26  28
ENDBRANCH   9  26
TORSDOF 13
ENDMDL
MODEL 8
REMARK VINA RESULT:      -5.3      2.583      6.378
REMARK  Name = 5276376
REMARK  13 active torsions:
REMARK  status: ('A' for Active; 'I' for Inactive)
REMARK    1  A    between atoms: C_4  and  C_21
REMARK    2  A    between atoms: C_5  and  O_14
REMARK    3  A    between atoms: C_6  and  O_16
REMARK    4  A    between atoms: C_9  and  C_26
REMARK    5  A    between atoms: C_12  and  O_18
REMARK    6  A    between atoms: C_21  and  C_22
REMARK    7  A    between atoms: C_22  and  C_23
REMARK    8  A    between atoms: C_23  and  O_24
REMARK    9  A    between atoms: C_26  and  C_28
REMARK   10  A    between atoms: C_28  and  C_29
REMARK   11  A    between atoms: C_29  and  C_30
REMARK   12  A    between atoms: C_30  and  C_31
REMARK   13  A    between atoms: C_31  and  C_32
REMARK                            x       y       z     vdW  Elec       q    Type
REMARK                         _______ _______ _______ _____ _____    ______ ____
ROOT
ATOM      1  O   UNL     1     -37.283  28.211   1.352  0.00  0.00    -0.288 OA
ATOM      2  C   UNL     1     -37.456  24.765   2.499  0.00  0.00    +0.047 C 
ATOM      3  C   UNL     1     -37.568  25.818   1.379  0.00  0.00    +0.095 C 
ATOM      4  C   UNL     1     -35.963  24.573   2.942  0.00  0.00    +0.072 C 
ATOM      5  C   UNL     1     -38.179  23.460   2.060  0.00  0.00    +0.112 C 
ATOM      6  C   UNL     1     -39.035  26.072   0.969  0.00  0.00    +0.118 C 
ATOM      7  C   UNL     1     -39.711  24.765   0.522  0.00  0.00    +0.030 C 
ATOM      8  C   UNL     1     -39.626  23.715   1.632  0.00  0.00    +0.032 C 
ATOM      9  C   UNL     1     -35.251  25.914   3.178  0.00  0.00    -0.002 C 
ATOM     10  C   UNL     1     -36.903  27.123   1.790  0.00  0.00    +0.208 C 
ATOM     11  C   UNL     1     -35.154  23.721   1.948  0.00  0.00    +0.012 C 
ATOM     12  C   UNL     1     -35.714  27.083   2.685  0.00  0.00    +0.161 C 
ATOM     13  C   UNL     1     -41.167  24.976   0.103  0.00  0.00    +0.003 C 
ENDROOT
BRANCH   5  14
ATOM     14  O   UNL     1     -38.228  22.511   3.121  0.00  0.00    -0.384 OA
ATOM     15  H   UNL     1     -39.123  22.492   3.498  0.00  0.00    +0.210 HD
ENDBRANCH   5  14
BRANCH   6  16
ATOM     16  O   UNL     1     -39.735  26.635   2.081  0.00  0.00    -0.384 OA
ATOM     17  H   UNL     1     -40.113  27.492   1.824  0.00  0.00    +0.210 HD
ENDBRANCH   6  16
BRANCH  12  18
ATOM     18  O   UNL     1     -35.144  28.316   2.935  0.00  0.00    -0.503 OA
ATOM     19  H   UNL     1     -34.269  28.494   2.649  0.00  0.00    +0.292 HD
ENDBRANCH  12  18
BRANCH   4  21
ATOM     20  O   UNL     1     -36.712  24.289   5.195  0.00  0.00    -0.296 OA
ATOM     21  C   UNL     1     -35.976  23.891   4.293  0.00  0.00    +0.156 C 
BRANCH  21  22
ATOM     22  C   UNL     1     -35.035  22.708   4.453  0.00  0.00    +0.096 C 
BRANCH  22  23
ATOM     23  C   UNL     1     -35.150  22.037   5.813  0.00  0.00    +0.145 C 
BRANCH  23  24
ATOM     24  O   UNL     1     -35.256  20.626   5.664  0.00  0.00    -0.382 OA
ATOM     25  H   UNL     1     -35.978  20.296   6.219  0.00  0.00    +0.210 HD
ENDBRANCH  23  24
ENDBRANCH  22  23
ENDBRANCH  21  22
ENDBRANCH   4  21
BRANCH   9  26
ATOM     26  C   UNL     1     -33.971  25.876   3.993  0.00  0.00    +0.022 C 
ATOM     27  C   UNL     1     -34.251  26.456   5.372  0.00  0.00    +0.004 C 
BRANCH  26  28
ATOM     28  C   UNL     1     -32.833  26.632   3.297  0.00  0.00    +0.004 C 
BRANCH  28  29
ATOM     29  C   UNL     1     -32.242  25.875   2.102  0.00  0.00    +0.000 C 
BRANCH  29  30
ATOM     30  C   UNL     1     -32.444  26.655   0.801  0.00  0.00    +0.000 C 
BRANCH  30  31
ATOM     31  C   UNL     1     -33.352  25.940  -0.205  0.00  0.00    +0.000 C 
BRANCH  31  32
ATOM     32  C   UNL     1     -34.414  26.811  -0.882  0.00  0.00    +0.000 C 
ATOM     33  C   UNL     1     -34.264  28.294  -0.584  0.00  0.00    +0.000 C 
ENDBRANCH  31  32
ENDBRANCH  30  31
ENDBRANCH  29  30
ENDBRANCH  28  29
ENDBRANCH  26  28
ENDBRANCH   9  26
TORSDOF 13
ENDMDL
MODEL 9
REMARK VINA RESULT:      -5.3      1.696      3.161
REMARK  Name = 5276376
REMARK  13 active torsions:
REMARK  status: ('A' for Active; 'I' for Inactive)
REMARK    1  A    between atoms: C_4  and  C_21
REMARK    2  A    between atoms: C_5  and  O_14
REMARK    3  A    between atoms: C_6  and  O_16
REMARK    4  A    between atoms: C_9  and  C_26
REMARK    5  A    between atoms: C_12  and  O_18
REMARK    6  A    between atoms: C_21  and  C_22
REMARK    7  A    between atoms: C_22  and  C_23
REMARK    8  A    between atoms: C_23  and  O_24
REMARK    9  A    between atoms: C_26  and  C_28
REMARK   10  A    between atoms: C_28  and  C_29
REMARK   11  A    between atoms: C_29  and  C_30
REMARK   12  A    between atoms: C_30  and  C_31
REMARK   13  A    between atoms: C_31  and  C_32
REMARK                            x       y       z     vdW  Elec       q    Type
REMARK                         _______ _______ _______ _____ _____    ______ ____
ROOT
ATOM      1  O   UNL     1     -35.438  21.414   4.100  0.00  0.00    -0.288 OA
ATOM      2  C   UNL     1     -36.702  24.607   2.904  0.00  0.00    +0.047 C 
ATOM      3  C   UNL     1     -35.532  23.692   3.317  0.00  0.00    +0.095 C 
ATOM      4  C   UNL     1     -37.332  24.136   1.547  0.00  0.00    +0.072 C 
ATOM      5  C   UNL     1     -36.234  26.090   2.926  0.00  0.00    +0.112 C 
ATOM      6  C   UNL     1     -34.936  24.098   4.683  0.00  0.00    +0.118 C 
ATOM      7  C   UNL     1     -34.465  25.562   4.660  0.00  0.00    +0.030 C 
ATOM      8  C   UNL     1     -35.621  26.486   4.271  0.00  0.00    +0.032 C 
ATOM      9  C   UNL     1     -37.596  22.622   1.526  0.00  0.00    -0.002 C 
ATOM     10  C   UNL     1     -35.966  22.234   3.345  0.00  0.00    +0.208 C 
ATOM     11  C   UNL     1     -36.482  24.534   0.328  0.00  0.00    +0.012 C 
ATOM     12  C   UNL     1     -37.000  21.765   2.383  0.00  0.00    +0.161 C 
ATOM     13  C   UNL     1     -33.863  26.001   5.996  0.00  0.00    +0.003 C 
ENDROOT
BRANCH   5  14
ATOM     14  O   UNL     1     -37.321  26.982   2.694  0.00  0.00    -0.384 OA
ATOM     15  H   UNL     1     -36.988  27.892   2.644  0.00  0.00    +0.210 HD
ENDBRANCH   5  14
BRANCH   6  16
ATOM     16  O   UNL     1     -35.928  23.913   5.695  0.00  0.00    -0.384 OA
ATOM     17  H   UNL     1     -36.349  24.765   5.894  0.00  0.00    +0.210 HD
ENDBRANCH   6  16
BRANCH  12  18
ATOM     18  O   UNL     1     -37.265  20.411   2.442  0.00  0.00    -0.503 OA
ATOM     19  H   UNL     1     -36.857  19.882   3.100  0.00  0.00    +0.292 HD
ENDBRANCH  12  18
BRANCH   4  21
ATOM     20  O   UNL     1     -38.977  25.513   0.491  0.00  0.00    -0.296 OA
ATOM     21  C   UNL     1     -38.699  24.775   1.436  0.00  0.00    +0.156 C 
BRANCH  21  22
ATOM     22  C   UNL     1     -39.681  24.449   2.549  0.00  0.00    +0.096 C 
BRANCH  22  23
ATOM     23  C   UNL     1     -40.628  25.598   2.861  0.00  0.00    +0.145 C 
BRANCH  23  24
ATOM     24  O   UNL     1     -39.913  26.693   3.420  0.00  0.00    -0.382 OA
ATOM     25  H   UNL     1     -39.058  26.382   3.756  0.00  0.00    +0.210 HD
ENDBRANCH  23  24
ENDBRANCH  22  23
ENDBRANCH  21  22
ENDBRANCH   4  21
BRANCH   9  26
ATOM     26  C   UNL     1     -38.562  22.110   0.472  0.00  0.00    +0.022 C 
ATOM     27  C   UNL     1     -39.653  21.302   1.161  0.00  0.00    +0.004 C 
BRANCH  26  28
ATOM     28  C   UNL     1     -37.846  21.274  -0.595  0.00  0.00    +0.004 C 
BRANCH  28  29
ATOM     29  C   UNL     1     -37.835  21.936  -1.978  0.00  0.00    +0.000 C 
BRANCH  29  30
ATOM     30  C   UNL     1     -38.915  23.015  -2.082  0.00  0.00    +0.000 C 
BRANCH  30  31
ATOM     31  C   UNL     1     -40.187  22.540  -2.792  0.00  0.00    +0.000 C 
BRANCH  31  32
ATOM     32  C   UNL     1     -41.444  22.455  -1.923  0.00  0.00    +0.000 C 
ATOM     33  C   UNL     1     -41.618  23.640  -0.987  0.00  0.00    +0.000 C 
ENDBRANCH  31  32
ENDBRANCH  30  31
ENDBRANCH  29  30
ENDBRANCH  28  29
ENDBRANCH  26  28
ENDBRANCH   9  26
TORSDOF 13
ENDMDL
