MODEL 1
REMARK VINA RESULT:      -6.4      0.000      0.000
REMARK  Name = 54601877
REMARK  10 active torsions:
REMARK  status: ('A' for Active; 'I' for Inactive)
REMARK    1  A    between atoms: C_2  and  C_23
REMARK    2  A    between atoms: C_3  and  C_8
REMARK    3  A    between atoms: CA_4  and  C_20
REMARK    4  A    between atoms: C_10  and  C_11
REMARK    5  A    between atoms: C_12  and  C_13
REMARK    6  A    between atoms: C_13  and  C_16
REMARK    7  A    between atoms: C_16  and  O_17
REMARK    8  A    between atoms: C_20  and  O_21
REMARK    9  A    between atoms: C_23  and  C_25
REMARK   10  A    between atoms: C_25  and  O_26
REMARK                            x       y       z     vdW  Elec       q    Type
REMARK                         _______ _______ _______ _____ _____    ______ ____
ROOT
ATOM      1  N   UNL     1     -37.682  24.098   3.883  0.00  0.00    +0.392 N 
ATOM      2  C   UNL     1     -35.370  23.496   4.141  0.00  0.00    +0.004 C 
ATOM      3  C   UNL     1     -36.137  22.450   3.321  0.00  0.00    -0.004 C 
ATOM      4  CA  UNL     1     -36.464  24.466   4.611  0.00  0.00    +0.040 C 
ATOM      5  C   UNL     1     -37.281  23.272   2.746  0.00  0.00    -0.077 C 
ATOM      6  H1  UNL     1     -38.157  24.938   3.552  0.00  0.00    -0.084 HD
ATOM      7  H2  UNL     1     -38.324  23.588   4.490  0.00  0.00    -0.084 HD
ENDROOT
BRANCH   3   8
ATOM      8  C   UNL     1     -35.321  21.776   2.270  0.00  0.00    -0.046 C 
ATOM      9  C   UNL     1     -34.829  22.703   1.192  0.00  0.00    +0.026 C 
ATOM     10  C   UNL     1     -35.085  20.452   2.344  0.00  0.00    -0.009 C 
BRANCH  10  11
ATOM     11  C   UNL     1     -34.320  19.641   1.419  0.00  0.00    -0.005 C 
ATOM     12  C   UNL     1     -34.886  18.973   0.401  0.00  0.00    -0.015 C 
BRANCH  12  13
ATOM     13  C   UNL     1     -36.353  18.937   0.038  0.00  0.00    +0.121 C 
ATOM     14  C   UNL     1     -36.806  19.911  -1.047  0.00  0.00    +0.016 C 
BRANCH  13  16
ATOM     15  O   UNL     1     -36.304  16.983  -1.429  0.00  0.00    -0.250 OA
ATOM     16  C   UNL     1     -36.697  17.520  -0.402  0.00  0.00    +0.317 C 
BRANCH  16  17
ATOM     17  O   UNL     1     -37.487  16.884   0.504  0.00  0.00    -0.480 OA
ATOM     18  H   UNL     1     -37.762  16.002   0.347  0.00  0.00    +0.295 HD
ENDBRANCH  16  17
ENDBRANCH  13  16
ENDBRANCH  12  13
ENDBRANCH  10  11
ENDBRANCH   3   8
BRANCH   4  20
ATOM     19  OXT UNL     1     -35.607  26.244   3.218  0.00  0.00    -0.253 OA
ATOM     20  C   UNL     1     -36.127  25.883   4.262  0.00  0.00    +0.293 C 
BRANCH  20  21
ATOM     21  O   UNL     1     -36.478  26.720   5.269  0.00  0.00    -0.482 OA
ATOM     22  H   UNL     1     -35.820  27.076   5.835  0.00  0.00    +0.295 HD
ENDBRANCH  20  21
ENDBRANCH   4  20
BRANCH   2  23
ATOM     23  C   UNL     1     -34.589  22.883   5.300  0.00  0.00    +0.108 C 
BRANCH  23  25
ATOM     24  O   UNL     1     -36.285  22.073   6.852  0.00  0.00    -0.250 OA
ATOM     25  C   UNL     1     -35.402  21.853   6.037  0.00  0.00    +0.314 C 
BRANCH  25  26
ATOM     26  O   UNL     1     -35.011  20.606   5.667  0.00  0.00    -0.480 OA
ATOM     27  H   UNL     1     -34.496  20.487   4.893  0.00  0.00    +0.295 HD
ENDBRANCH  25  26
ENDBRANCH  23  25
ENDBRANCH   2  23
TORSDOF 10
ENDMDL
MODEL 2
REMARK VINA RESULT:      -5.9      2.399      3.362
REMARK  Name = 54601877
REMARK  10 active torsions:
REMARK  status: ('A' for Active; 'I' for Inactive)
REMARK    1  A    between atoms: C_2  and  C_23
REMARK    2  A    between atoms: C_3  and  C_8
REMARK    3  A    between atoms: CA_4  and  C_20
REMARK    4  A    between atoms: C_10  and  C_11
REMARK    5  A    between atoms: C_12  and  C_13
REMARK    6  A    between atoms: C_13  and  C_16
REMARK    7  A    between atoms: C_16  and  O_17
REMARK    8  A    between atoms: C_20  and  O_21
REMARK    9  A    between atoms: C_23  and  C_25
REMARK   10  A    between atoms: C_25  and  O_26
REMARK                            x       y       z     vdW  Elec       q    Type
REMARK                         _______ _______ _______ _____ _____    ______ ____
ROOT
ATOM      1  N   UNL     1     -37.569  25.956   3.856  0.00  0.00    +0.392 N 
ATOM      2  C   UNL     1     -35.309  25.405   4.462  0.00  0.00    +0.004 C 
ATOM      3  C   UNL     1     -36.291  24.303   4.882  0.00  0.00    -0.004 C 
ATOM      4  CA  UNL     1     -36.220  26.526   3.939  0.00  0.00    +0.040 C 
ATOM      5  C   UNL     1     -37.434  24.502   3.898  0.00  0.00    -0.077 C 
ATOM      6  H1  UNL     1     -38.013  26.240   2.983  0.00  0.00    -0.084 HD
ATOM      7  H2  UNL     1     -38.147  26.286   4.629  0.00  0.00    -0.084 HD
ENDROOT
BRANCH   3   8
ATOM      8  C   UNL     1     -35.721  22.925   4.838  0.00  0.00    -0.046 C 
ATOM      9  C   UNL     1     -35.253  22.415   6.174  0.00  0.00    +0.026 C 
ATOM     10  C   UNL     1     -35.663  22.256   3.670  0.00  0.00    -0.009 C 
BRANCH  10  11
ATOM     11  C   UNL     1     -35.146  20.921   3.446  0.00  0.00    -0.005 C 
ATOM     12  C   UNL     1     -35.138  20.340   2.235  0.00  0.00    -0.015 C 
BRANCH  12  13
ATOM     13  C   UNL     1     -35.638  20.932   0.938  0.00  0.00    +0.121 C 
ATOM     14  C   UNL     1     -34.593  21.150  -0.154  0.00  0.00    +0.016 C 
BRANCH  13  16
ATOM     15  O   UNL     1     -37.416  20.253  -0.596  0.00  0.00    -0.250 OA
ATOM     16  C   UNL     1     -36.732  20.023   0.393  0.00  0.00    +0.317 C 
BRANCH  16  17
ATOM     17  O   UNL     1     -36.856  18.882   1.122  0.00  0.00    -0.480 OA
ATOM     18  H   UNL     1     -36.111  18.331   1.259  0.00  0.00    +0.295 HD
ENDBRANCH  16  17
ENDBRANCH  13  16
ENDBRANCH  12  13
ENDBRANCH  10  11
ENDBRANCH   3   8
BRANCH   4  20
ATOM     19  OXT UNL     1     -34.856  26.537   1.946  0.00  0.00    -0.253 OA
ATOM     20  C   UNL     1     -35.818  26.963   2.564  0.00  0.00    +0.293 C 
BRANCH  20  21
ATOM     21  O   UNL     1     -36.671  27.906   2.093  0.00  0.00    -0.482 OA
ATOM     22  H   UNL     1     -37.126  27.765   1.285  0.00  0.00    +0.295 HD
ENDBRANCH  20  21
ENDBRANCH   4  20
BRANCH   2  23
ATOM     23  C   UNL     1     -34.410  25.863   5.606  0.00  0.00    +0.108 C 
BRANCH  23  25
ATOM     24  O   UNL     1     -32.940  27.807   5.610  0.00  0.00    -0.250 OA
ATOM     25  C   UNL     1     -33.293  26.746   5.118  0.00  0.00    +0.314 C 
BRANCH  25  26
ATOM     26  O   UNL     1     -32.711  26.191   4.025  0.00  0.00    -0.480 OA
ATOM     27  H   UNL     1     -31.899  26.532   3.702  0.00  0.00    +0.295 HD
ENDBRANCH  25  26
ENDBRANCH  23  25
ENDBRANCH   2  23
TORSDOF 10
ENDMDL
MODEL 3
REMARK VINA RESULT:      -5.8      2.338      2.830
REMARK  Name = 54601877
REMARK  10 active torsions:
REMARK  status: ('A' for Active; 'I' for Inactive)
REMARK    1  A    between atoms: C_2  and  C_23
REMARK    2  A    between atoms: C_3  and  C_8
REMARK    3  A    between atoms: CA_4  and  C_20
REMARK    4  A    between atoms: C_10  and  C_11
REMARK    5  A    between atoms: C_12  and  C_13
REMARK    6  A    between atoms: C_13  and  C_16
REMARK    7  A    between atoms: C_16  and  O_17
REMARK    8  A    between atoms: C_20  and  O_21
REMARK    9  A    between atoms: C_23  and  C_25
REMARK   10  A    between atoms: C_25  and  O_26
REMARK                            x       y       z     vdW  Elec       q    Type
REMARK                         _______ _______ _______ _____ _____    ______ ____
ROOT
ATOM      1  N   UNL     1     -36.754  25.498   5.177  0.00  0.00    +0.392 N 
ATOM      2  C   UNL     1     -35.028  23.982   4.472  0.00  0.00    +0.004 C 
ATOM      3  C   UNL     1     -36.392  23.594   3.887  0.00  0.00    -0.004 C 
ATOM      4  CA  UNL     1     -35.355  25.138   5.429  0.00  0.00    +0.040 C 
ATOM      5  C   UNL     1     -37.129  24.926   3.886  0.00  0.00    -0.077 C 
ATOM      6  H1  UNL     1     -36.853  26.513   5.150  0.00  0.00    -0.084 HD
ATOM      7  H2  UNL     1     -37.357  25.139   5.918  0.00  0.00    -0.084 HD
ENDROOT
BRANCH   3   8
ATOM      8  C   UNL     1     -36.324  22.968   2.535  0.00  0.00    -0.046 C 
ATOM      9  C   UNL     1     -35.790  23.881   1.465  0.00  0.00    +0.026 C 
ATOM     10  C   UNL     1     -36.722  21.692   2.362  0.00  0.00    -0.009 C 
BRANCH  10  11
ATOM     11  C   UNL     1     -36.724  20.931   1.129  0.00  0.00    -0.005 C 
ATOM     12  C   UNL     1     -35.614  20.372   0.620  0.00  0.00    -0.015 C 
BRANCH  12  13
ATOM     13  C   UNL     1     -34.221  20.422   1.201  0.00  0.00    +0.121 C 
ATOM     14  C   UNL     1     -33.608  19.085   1.611  0.00  0.00    +0.016 C 
BRANCH  13  16
ATOM     15  O   UNL     1     -33.621  22.011  -0.557  0.00  0.00    -0.250 OA
ATOM     16  C   UNL     1     -33.306  21.086   0.180  0.00  0.00    +0.317 C 
BRANCH  16  17
ATOM     17  O   UNL     1     -32.056  20.550   0.191  0.00  0.00    -0.480 OA
ATOM     18  H   UNL     1     -31.312  21.099   0.338  0.00  0.00    +0.295 HD
ENDBRANCH  16  17
ENDBRANCH  13  16
ENDBRANCH  12  13
ENDBRANCH  10  11
ENDBRANCH   3   8
BRANCH   4  20
ATOM     19  OXT UNL     1     -34.804  27.236   4.368  0.00  0.00    -0.253 OA
ATOM     20  C   UNL     1     -34.511  26.341   5.145  0.00  0.00    +0.293 C 
BRANCH  20  21
ATOM     21  O   UNL     1     -33.366  26.305   5.871  0.00  0.00    -0.482 OA
ATOM     22  H   UNL     1     -32.579  25.968   5.489  0.00  0.00    +0.295 HD
ENDBRANCH  20  21
ENDBRANCH   4  20
BRANCH   2  23
ATOM     23  C   UNL     1     -34.331  22.819   5.170  0.00  0.00    +0.108 C 
BRANCH  23  25
ATOM     24  O   UNL     1     -36.134  22.193   6.686  0.00  0.00    -0.250 OA
ATOM     25  C   UNL     1     -35.317  21.892   5.829  0.00  0.00    +0.314 C 
BRANCH  25  26
ATOM     26  O   UNL     1     -35.174  20.637   5.331  0.00  0.00    -0.480 OA
ATOM     27  H   UNL     1     -34.325  20.325   5.085  0.00  0.00    +0.295 HD
ENDBRANCH  25  26
ENDBRANCH  23  25
ENDBRANCH   2  23
TORSDOF 10
ENDMDL
MODEL 4
REMARK VINA RESULT:      -5.8      3.739      7.819
REMARK  Name = 54601877
REMARK  10 active torsions:
REMARK  status: ('A' for Active; 'I' for Inactive)
REMARK    1  A    between atoms: C_2  and  C_23
REMARK    2  A    between atoms: C_3  and  C_8
REMARK    3  A    between atoms: CA_4  and  C_20
REMARK    4  A    between atoms: C_10  and  C_11
REMARK    5  A    between atoms: C_12  and  C_13
REMARK    6  A    between atoms: C_13  and  C_16
REMARK    7  A    between atoms: C_16  and  O_17
REMARK    8  A    between atoms: C_20  and  O_21
REMARK    9  A    between atoms: C_23  and  C_25
REMARK   10  A    between atoms: C_25  and  O_26
REMARK                            x       y       z     vdW  Elec       q    Type
REMARK                         _______ _______ _______ _____ _____    ______ ____
ROOT
ATOM      1  N   UNL     1     -36.486  25.718   1.677  0.00  0.00    +0.392 N 
ATOM      2  C   UNL     1     -36.031  24.238   3.515  0.00  0.00    +0.004 C 
ATOM      3  C   UNL     1     -35.192  25.519   3.602  0.00  0.00    -0.004 C 
ATOM      4  CA  UNL     1     -36.740  24.356   2.158  0.00  0.00    +0.040 C 
ATOM      5  C   UNL     1     -36.041  26.512   2.821  0.00  0.00    -0.077 C 
ATOM      6  H1  UNL     1     -37.342  26.116   1.290  0.00  0.00    -0.084 HD
ATOM      7  H2  UNL     1     -35.777  25.715   0.945  0.00  0.00    -0.084 HD
ENDROOT
BRANCH   3   8
ATOM      8  C   UNL     1     -34.904  25.972   4.995  0.00  0.00    -0.046 C 
ATOM      9  C   UNL     1     -36.114  26.005   5.888  0.00  0.00    +0.026 C 
ATOM     10  C   UNL     1     -33.648  26.304   5.350  0.00  0.00    -0.009 C 
BRANCH  10  11
ATOM     11  C   UNL     1     -33.192  26.759   6.647  0.00  0.00    -0.005 C 
ATOM     12  C   UNL     1     -32.354  27.798   6.798  0.00  0.00    -0.015 C 
BRANCH  12  13
ATOM     13  C   UNL     1     -31.755  28.651   5.705  0.00  0.00    +0.121 C 
ATOM     14  C   UNL     1     -31.854  30.163   5.894  0.00  0.00    +0.016 C 
BRANCH  13  16
ATOM     15  O   UNL     1     -29.591  28.505   4.579  0.00  0.00    -0.250 OA
ATOM     16  C   UNL     1     -30.287  28.272   5.558  0.00  0.00    +0.317 C 
BRANCH  16  17
ATOM     17  O   UNL     1     -29.807  27.656   6.671  0.00  0.00    -0.480 OA
ATOM     18  H   UNL     1     -28.984  27.210   6.641  0.00  0.00    +0.295 HD
ENDBRANCH  16  17
ENDBRANCH  13  16
ENDBRANCH  12  13
ENDBRANCH  10  11
ENDBRANCH   3   8
BRANCH   4  20
ATOM     19  OXT UNL     1     -38.985  23.926   1.378  0.00  0.00    -0.253 OA
ATOM     20  C   UNL     1     -38.221  24.184   2.295  0.00  0.00    +0.293 C 
BRANCH  20  21
ATOM     21  O   UNL     1     -38.606  24.356   3.584  0.00  0.00    -0.482 OA
ATOM     22  H   UNL     1     -39.482  24.148   3.843  0.00  0.00    +0.295 HD
ENDBRANCH  20  21
ENDBRANCH   4  20
BRANCH   2  23
ATOM     23  C   UNL     1     -35.191  22.971   3.633  0.00  0.00    +0.108 C 
BRANCH  23  25
ATOM     24  O   UNL     1     -36.081  22.519   5.856  0.00  0.00    -0.250 OA
ATOM     25  C   UNL     1     -35.623  22.120   4.796  0.00  0.00    +0.314 C 
BRANCH  25  26
ATOM     26  O   UNL     1     -35.431  20.808   4.504  0.00  0.00    -0.480 OA
ATOM     27  H   UNL     1     -35.634  20.485   3.648  0.00  0.00    +0.295 HD
ENDBRANCH  25  26
ENDBRANCH  23  25
ENDBRANCH   2  23
TORSDOF 10
ENDMDL
MODEL 5
REMARK VINA RESULT:      -5.7      3.071      5.988
REMARK  Name = 54601877
REMARK  10 active torsions:
REMARK  status: ('A' for Active; 'I' for Inactive)
REMARK    1  A    between atoms: C_2  and  C_23
REMARK    2  A    between atoms: C_3  and  C_8
REMARK    3  A    between atoms: CA_4  and  C_20
REMARK    4  A    between atoms: C_10  and  C_11
REMARK    5  A    between atoms: C_12  and  C_13
REMARK    6  A    between atoms: C_13  and  C_16
REMARK    7  A    between atoms: C_16  and  O_17
REMARK    8  A    between atoms: C_20  and  O_21
REMARK    9  A    between atoms: C_23  and  C_25
REMARK   10  A    between atoms: C_25  and  O_26
REMARK                            x       y       z     vdW  Elec       q    Type
REMARK                         _______ _______ _______ _____ _____    ______ ____
ROOT
ATOM      1  N   UNL     1     -37.685  21.917   0.386  0.00  0.00    +0.392 N 
ATOM      2  C   UNL     1     -36.270  22.205   2.307  0.00  0.00    +0.004 C 
ATOM      3  C   UNL     1     -35.493  22.406   0.999  0.00  0.00    -0.004 C 
ATOM      4  CA  UNL     1     -37.655  21.734   1.840  0.00  0.00    +0.040 C 
ATOM      5  C   UNL     1     -36.594  22.823   0.035  0.00  0.00    -0.077 C 
ATOM      6  H1  UNL     1     -38.577  22.321   0.103  0.00  0.00    -0.084 HD
ATOM      7  H2  UNL     1     -37.575  21.021  -0.091  0.00  0.00    -0.084 HD
ENDROOT
BRANCH   3   8
ATOM      8  C   UNL     1     -34.390  23.407   1.089  0.00  0.00    -0.046 C 
ATOM      9  C   UNL     1     -33.309  23.217   0.060  0.00  0.00    +0.026 C 
ATOM     10  C   UNL     1     -34.426  24.367   2.032  0.00  0.00    -0.009 C 
BRANCH  10  11
ATOM     11  C   UNL     1     -33.449  25.412   2.262  0.00  0.00    -0.005 C 
ATOM     12  C   UNL     1     -33.347  26.067   3.430  0.00  0.00    -0.015 C 
BRANCH  12  13
ATOM     13  C   UNL     1     -34.185  25.854   4.669  0.00  0.00    +0.121 C 
ATOM     14  C   UNL     1     -33.643  26.452   5.965  0.00  0.00    +0.016 C 
BRANCH  13  16
ATOM     15  O   UNL     1     -36.627  25.832   4.567  0.00  0.00    -0.250 OA
ATOM     16  C   UNL     1     -35.571  26.430   4.408  0.00  0.00    +0.317 C 
BRANCH  16  17
ATOM     17  O   UNL     1     -35.515  27.724   3.994  0.00  0.00    -0.480 OA
ATOM     18  H   UNL     1     -36.126  28.039   3.358  0.00  0.00    +0.295 HD
ENDBRANCH  16  17
ENDBRANCH  13  16
ENDBRANCH  12  13
ENDBRANCH  10  11
ENDBRANCH   3   8
BRANCH   4  20
ATOM     19  OXT UNL     1     -39.940  22.415   2.227  0.00  0.00    -0.253 OA
ATOM     20  C   UNL     1     -38.747  22.572   2.432  0.00  0.00    +0.293 C 
BRANCH  20  21
ATOM     21  O   UNL     1     -38.230  23.538   3.230  0.00  0.00    -0.482 OA
ATOM     22  H   UNL     1     -37.495  24.043   2.940  0.00  0.00    +0.295 HD
ENDBRANCH  20  21
ENDBRANCH   4  20
BRANCH   2  23
ATOM     23  C   UNL     1     -35.596  21.211   3.248  0.00  0.00    +0.108 C 
BRANCH  23  25
ATOM     24  O   UNL     1     -36.026  22.764   5.076  0.00  0.00    -0.250 OA
ATOM     25  C   UNL     1     -35.656  21.669   4.680  0.00  0.00    +0.314 C 
BRANCH  25  26
ATOM     26  O   UNL     1     -35.232  20.674   5.500  0.00  0.00    -0.480 OA
ATOM     27  H   UNL     1     -34.487  20.157   5.263  0.00  0.00    +0.295 HD
ENDBRANCH  25  26
ENDBRANCH  23  25
ENDBRANCH   2  23
TORSDOF 10
ENDMDL
MODEL 6
REMARK VINA RESULT:      -5.7      3.392      5.728
REMARK  Name = 54601877
REMARK  10 active torsions:
REMARK  status: ('A' for Active; 'I' for Inactive)
REMARK    1  A    between atoms: C_2  and  C_23
REMARK    2  A    between atoms: C_3  and  C_8
REMARK    3  A    between atoms: CA_4  and  C_20
REMARK    4  A    between atoms: C_10  and  C_11
REMARK    5  A    between atoms: C_12  and  C_13
REMARK    6  A    between atoms: C_13  and  C_16
REMARK    7  A    between atoms: C_16  and  O_17
REMARK    8  A    between atoms: C_20  and  O_21
REMARK    9  A    between atoms: C_23  and  C_25
REMARK   10  A    between atoms: C_25  and  O_26
REMARK                            x       y       z     vdW  Elec       q    Type
REMARK                         _______ _______ _______ _____ _____    ______ ____
ROOT
ATOM      1  N   UNL     1     -32.376  28.495   3.857  0.00  0.00    +0.392 N 
ATOM      2  C   UNL     1     -34.437  27.564   3.042  0.00  0.00    +0.004 C 
ATOM      3  C   UNL     1     -33.660  26.554   3.896  0.00  0.00    -0.004 C 
ATOM      4  CA  UNL     1     -33.477  28.757   2.924  0.00  0.00    +0.040 C 
ATOM      5  C   UNL     1     -32.827  27.462   4.788  0.00  0.00    -0.077 C 
ATOM      6  H1  UNL     1     -32.143  29.346   4.368  0.00  0.00    -0.084 HD
ATOM      7  H2  UNL     1     -31.544  28.187   3.354  0.00  0.00    -0.084 HD
ENDROOT
BRANCH   3   8
ATOM      8  C   UNL     1     -34.523  25.614   4.670  0.00  0.00    -0.046 C 
ATOM      9  C   UNL     1     -35.748  26.255   5.261  0.00  0.00    +0.026 C 
ATOM     10  C   UNL     1     -34.172  24.318   4.787  0.00  0.00    -0.009 C 
BRANCH  10  11
ATOM     11  C   UNL     1     -34.886  23.274   5.495  0.00  0.00    -0.005 C 
ATOM     12  C   UNL     1     -35.593  22.323   4.864  0.00  0.00    -0.015 C 
BRANCH  12  13
ATOM     13  C   UNL     1     -35.775  22.161   3.373  0.00  0.00    +0.121 C 
ATOM     14  C   UNL     1     -35.491  20.774   2.802  0.00  0.00    +0.016 C 
BRANCH  13  16
ATOM     15  O   UNL     1     -37.950  21.919   2.286  0.00  0.00    -0.250 OA
ATOM     16  C   UNL     1     -37.206  22.550   3.025  0.00  0.00    +0.317 C 
BRANCH  16  17
ATOM     17  O   UNL     1     -37.593  23.687   3.660  0.00  0.00    -0.480 OA
ATOM     18  H   UNL     1     -38.168  23.639   4.398  0.00  0.00    +0.295 HD
ENDBRANCH  16  17
ENDBRANCH  13  16
ENDBRANCH  12  13
ENDBRANCH  10  11
ENDBRANCH   3   8
BRANCH   4  20
ATOM     19  OXT UNL     1     -33.549  31.062   3.643  0.00  0.00    -0.253 OA
ATOM     20  C   UNL     1     -34.137  30.036   3.337  0.00  0.00    +0.293 C 
BRANCH  20  21
ATOM     21  O   UNL     1     -35.486  29.903   3.329  0.00  0.00    -0.482 OA
ATOM     22  H   UNL     1     -36.011  30.481   2.811  0.00  0.00    +0.295 HD
ENDBRANCH  20  21
ENDBRANCH   4  20
BRANCH   2  23
ATOM     23  C   UNL     1     -34.846  27.001   1.686  0.00  0.00    +0.108 C 
BRANCH  23  25
ATOM     24  O   UNL     1     -36.841  25.626   1.418  0.00  0.00    -0.250 OA
ATOM     25  C   UNL     1     -36.322  26.713   1.623  0.00  0.00    +0.314 C 
BRANCH  25  26
ATOM     26  O   UNL     1     -37.024  27.856   1.832  0.00  0.00    -0.480 OA
ATOM     27  H   UNL     1     -36.881  28.358   2.611  0.00  0.00    +0.295 HD
ENDBRANCH  25  26
ENDBRANCH  23  25
ENDBRANCH   2  23
TORSDOF 10
ENDMDL
MODEL 7
REMARK VINA RESULT:      -5.7      2.132      2.792
REMARK  Name = 54601877
REMARK  10 active torsions:
REMARK  status: ('A' for Active; 'I' for Inactive)
REMARK    1  A    between atoms: C_2  and  C_23
REMARK    2  A    between atoms: C_3  and  C_8
REMARK    3  A    between atoms: CA_4  and  C_20
REMARK    4  A    between atoms: C_10  and  C_11
REMARK    5  A    between atoms: C_12  and  C_13
REMARK    6  A    between atoms: C_13  and  C_16
REMARK    7  A    between atoms: C_16  and  O_17
REMARK    8  A    between atoms: C_20  and  O_21
REMARK    9  A    between atoms: C_23  and  C_25
REMARK   10  A    between atoms: C_25  and  O_26
REMARK                            x       y       z     vdW  Elec       q    Type
REMARK                         _______ _______ _______ _____ _____    ______ ____
ROOT
ATOM      1  N   UNL     1     -35.910  26.913   4.289  0.00  0.00    +0.392 N 
ATOM      2  C   UNL     1     -35.659  24.536   4.036  0.00  0.00    +0.004 C 
ATOM      3  C   UNL     1     -36.356  25.162   2.821  0.00  0.00    -0.004 C 
ATOM      4  CA  UNL     1     -35.534  25.703   5.027  0.00  0.00    +0.040 C 
ATOM      5  C   UNL     1     -35.846  26.596   2.864  0.00  0.00    -0.077 C 
ATOM      6  H1  UNL     1     -35.261  27.669   4.506  0.00  0.00    -0.084 HD
ATOM      7  H2  UNL     1     -36.849  27.215   4.549  0.00  0.00    -0.084 HD
ENDROOT
BRANCH   3   8
ATOM      8  C   UNL     1     -36.062  24.481   1.527  0.00  0.00    -0.046 C 
ATOM      9  C   UNL     1     -36.989  24.868   0.408  0.00  0.00    +0.026 C 
ATOM     10  C   UNL     1     -35.039  23.608   1.442  0.00  0.00    -0.009 C 
BRANCH  10  11
ATOM     11  C   UNL     1     -34.614  22.862   0.274  0.00  0.00    -0.005 C 
ATOM     12  C   UNL     1     -35.217  21.730  -0.122  0.00  0.00    -0.015 C 
BRANCH  12  13
ATOM     13  C   UNL     1     -36.394  21.047   0.534  0.00  0.00    +0.121 C 
ATOM     14  C   UNL     1     -37.405  20.389  -0.402  0.00  0.00    +0.016 C 
BRANCH  13  16
ATOM     15  O   UNL     1     -34.748  19.475   1.425  0.00  0.00    -0.250 OA
ATOM     16  C   UNL     1     -35.856  19.991   1.491  0.00  0.00    +0.317 C 
BRANCH  16  17
ATOM     17  O   UNL     1     -36.748  19.691   2.473  0.00  0.00    -0.480 OA
ATOM     18  H   UNL     1     -37.665  19.811   2.324  0.00  0.00    +0.295 HD
ENDBRANCH  16  17
ENDBRANCH  13  16
ENDBRANCH  12  13
ENDBRANCH  10  11
ENDBRANCH   3   8
BRANCH   4  20
ATOM     19  OXT UNL     1     -33.762  26.658   6.361  0.00  0.00    -0.253 OA
ATOM     20  C   UNL     1     -34.124  25.871   5.501  0.00  0.00    +0.293 C 
BRANCH  20  21
ATOM     21  O   UNL     1     -33.292  25.028   4.840  0.00  0.00    -0.482 OA
ATOM     22  H   UNL     1     -33.498  24.115   4.783  0.00  0.00    +0.295 HD
ENDBRANCH  20  21
ENDBRANCH   4  20
BRANCH   2  23
ATOM     23  C   UNL     1     -36.429  23.353   4.614  0.00  0.00    +0.108 C 
BRANCH  23  25
ATOM     24  O   UNL     1     -34.812  22.565   6.260  0.00  0.00    -0.250 OA
ATOM     25  C   UNL     1     -35.512  22.362   5.279  0.00  0.00    +0.314 C 
BRANCH  25  26
ATOM     26  O   UNL     1     -35.566  21.173   4.625  0.00  0.00    -0.480 OA
ATOM     27  H   UNL     1     -35.140  21.075   3.796  0.00  0.00    +0.295 HD
ENDBRANCH  25  26
ENDBRANCH  23  25
ENDBRANCH   2  23
TORSDOF 10
ENDMDL
MODEL 8
REMARK VINA RESULT:      -5.6      3.250      4.112
REMARK  Name = 54601877
REMARK  10 active torsions:
REMARK  status: ('A' for Active; 'I' for Inactive)
REMARK    1  A    between atoms: C_2  and  C_23
REMARK    2  A    between atoms: C_3  and  C_8
REMARK    3  A    between atoms: CA_4  and  C_20
REMARK    4  A    between atoms: C_10  and  C_11
REMARK    5  A    between atoms: C_12  and  C_13
REMARK    6  A    between atoms: C_13  and  C_16
REMARK    7  A    between atoms: C_16  and  O_17
REMARK    8  A    between atoms: C_20  and  O_21
REMARK    9  A    between atoms: C_23  and  C_25
REMARK   10  A    between atoms: C_25  and  O_26
REMARK                            x       y       z     vdW  Elec       q    Type
REMARK                         _______ _______ _______ _____ _____    ______ ____
ROOT
ATOM      1  N   UNL     1     -36.341  26.443   4.988  0.00  0.00    +0.392 N 
ATOM      2  C   UNL     1     -35.700  24.129   4.879  0.00  0.00    +0.004 C 
ATOM      3  C   UNL     1     -36.888  24.429   3.956  0.00  0.00    -0.004 C 
ATOM      4  CA  UNL     1     -35.488  25.445   5.642  0.00  0.00    +0.040 C 
ATOM      5  C   UNL     1     -36.709  25.914   3.676  0.00  0.00    -0.077 C 
ATOM      6  H1  UNL     1     -35.831  27.320   4.880  0.00  0.00    -0.084 HD
ATOM      7  H2  UNL     1     -37.174  26.626   5.548  0.00  0.00    -0.084 HD
ENDROOT
BRANCH   3   8
ATOM      8  C   UNL     1     -36.923  23.605   2.713  0.00  0.00    -0.046 C 
ATOM      9  C   UNL     1     -35.798  23.894   1.757  0.00  0.00    +0.026 C 
ATOM     10  C   UNL     1     -37.905  22.701   2.531  0.00  0.00    -0.009 C 
BRANCH  10  11
ATOM     11  C   UNL     1     -38.092  21.822   1.394  0.00  0.00    -0.005 C 
ATOM     12  C   UNL     1     -38.803  22.177   0.312  0.00  0.00    -0.015 C 
BRANCH  12  13
ATOM     13  C   UNL     1     -39.510  23.492   0.078  0.00  0.00    +0.121 C 
ATOM     14  C   UNL     1     -39.358  24.105  -1.312  0.00  0.00    +0.016 C 
BRANCH  13  16
ATOM     15  O   UNL     1     -41.717  24.089   0.942  0.00  0.00    -0.250 OA
ATOM     16  C   UNL     1     -40.993  23.290   0.363  0.00  0.00    +0.317 C 
BRANCH  16  17
ATOM     17  O   UNL     1     -41.450  22.108  -0.130  0.00  0.00    -0.480 OA
ATOM     18  H   UNL     1     -41.150  21.801  -0.962  0.00  0.00    +0.295 HD
ENDBRANCH  16  17
ENDBRANCH  13  16
ENDBRANCH  12  13
ENDBRANCH  10  11
ENDBRANCH   3   8
BRANCH   4  20
ATOM     19  OXT UNL     1     -33.583  26.822   6.199  0.00  0.00    -0.253 OA
ATOM     20  C   UNL     1     -34.070  25.915   5.542  0.00  0.00    +0.293 C 
BRANCH  20  21
ATOM     21  O   UNL     1     -33.391  25.196   4.615  0.00  0.00    -0.482 OA
ATOM     22  H   UNL     1     -32.458  25.122   4.669  0.00  0.00    +0.295 HD
ENDBRANCH  20  21
ENDBRANCH   4  20
BRANCH   2  23
ATOM     23  C   UNL     1     -35.955  22.945   5.806  0.00  0.00    +0.108 C 
BRANCH  23  25
ATOM     24  O   UNL     1     -35.327  21.097   4.346  0.00  0.00    -0.250 OA
ATOM     25  C   UNL     1     -35.179  21.727   5.382  0.00  0.00    +0.314 C 
BRANCH  25  26
ATOM     26  O   UNL     1     -34.264  21.411   6.333  0.00  0.00    -0.480 OA
ATOM     27  H   UNL     1     -34.547  21.161   7.191  0.00  0.00    +0.295 HD
ENDBRANCH  25  26
ENDBRANCH  23  25
ENDBRANCH   2  23
TORSDOF 10
ENDMDL
MODEL 9
REMARK VINA RESULT:      -5.5      2.556      3.517
REMARK  Name = 54601877
REMARK  10 active torsions:
REMARK  status: ('A' for Active; 'I' for Inactive)
REMARK    1  A    between atoms: C_2  and  C_23
REMARK    2  A    between atoms: C_3  and  C_8
REMARK    3  A    between atoms: CA_4  and  C_20
REMARK    4  A    between atoms: C_10  and  C_11
REMARK    5  A    between atoms: C_12  and  C_13
REMARK    6  A    between atoms: C_13  and  C_16
REMARK    7  A    between atoms: C_16  and  O_17
REMARK    8  A    between atoms: C_20  and  O_21
REMARK    9  A    between atoms: C_23  and  C_25
REMARK   10  A    between atoms: C_25  and  O_26
REMARK                            x       y       z     vdW  Elec       q    Type
REMARK                         _______ _______ _______ _____ _____    ______ ____
ROOT
ATOM      1  N   UNL     1     -36.474  26.940   2.677  0.00  0.00    +0.392 N 
ATOM      2  C   UNL     1     -37.295  24.725   2.232  0.00  0.00    +0.004 C 
ATOM      3  C   UNL     1     -36.534  25.297   1.029  0.00  0.00    -0.004 C 
ATOM      4  CA  UNL     1     -37.357  25.901   3.218  0.00  0.00    +0.040 C 
ATOM      5  C   UNL     1     -35.605  26.306   1.688  0.00  0.00    -0.077 C 
ATOM      6  H1  UNL     1     -35.912  27.344   3.426  0.00  0.00    -0.084 HD
ATOM      7  H2  UNL     1     -37.020  27.688   2.249  0.00  0.00    -0.084 HD
ENDROOT
BRANCH   3   8
ATOM      8  C   UNL     1     -35.803  24.276   0.223  0.00  0.00    -0.046 C 
ATOM      9  C   UNL     1     -36.196  24.248  -1.229  0.00  0.00    +0.026 C 
ATOM     10  C   UNL     1     -34.885  23.484   0.810  0.00  0.00    -0.009 C 
BRANCH  10  11
ATOM     11  C   UNL     1     -34.088  22.449   0.185  0.00  0.00    -0.005 C 
ATOM     12  C   UNL     1     -34.512  21.180   0.064  0.00  0.00    -0.015 C 
BRANCH  12  13
ATOM     13  C   UNL     1     -35.832  20.613   0.530  0.00  0.00    +0.121 C 
ATOM     14  C   UNL     1     -36.462  19.543  -0.358  0.00  0.00    +0.016 C 
BRANCH  13  16
ATOM     15  O   UNL     1     -34.552  19.845   2.465  0.00  0.00    -0.250 OA
ATOM     16  C   UNL     1     -35.634  20.035   1.926  0.00  0.00    +0.317 C 
BRANCH  16  17
ATOM     17  O   UNL     1     -36.817  19.769   2.540  0.00  0.00    -0.480 OA
ATOM     18  H   UNL     1     -37.613  19.773   2.045  0.00  0.00    +0.295 HD
ENDBRANCH  16  17
ENDBRANCH  13  16
ENDBRANCH  12  13
ENDBRANCH  10  11
ENDBRANCH   3   8
BRANCH   4  20
ATOM     19  OXT UNL     1     -36.690  24.366   4.959  0.00  0.00    -0.253 OA
ATOM     20  C   UNL     1     -36.839  25.513   4.568  0.00  0.00    +0.293 C 
BRANCH  20  21
ATOM     21  O   UNL     1     -36.557  26.614   5.307  0.00  0.00    -0.482 OA
ATOM     22  H   UNL     1     -36.323  26.525   6.211  0.00  0.00    +0.295 HD
ENDBRANCH  20  21
ENDBRANCH   4  20
BRANCH   2  23
ATOM     23  C   UNL     1     -38.676  24.194   1.860  0.00  0.00    +0.108 C 
BRANCH  23  25
ATOM     24  O   UNL     1     -39.873  22.095   2.176  0.00  0.00    -0.250 OA
ATOM     25  C   UNL     1     -38.896  22.800   2.380  0.00  0.00    +0.314 C 
BRANCH  25  26
ATOM     26  O   UNL     1     -37.831  22.414   3.130  0.00  0.00    -0.480 OA
ATOM     27  H   UNL     1     -37.894  22.408   4.065  0.00  0.00    +0.295 HD
ENDBRANCH  25  26
ENDBRANCH  23  25
ENDBRANCH   2  23
TORSDOF 10
ENDMDL
