MODEL 1
REMARK VINA RESULT:      -6.9      0.000      0.000
REMARK  Name = 53471628
REMARK  9 active torsions:
REMARK  status: ('A' for Active; 'I' for Inactive)
REMARK    1  A    between atoms: N_2  and  C_16
REMARK    2  A    between atoms: C_3  and  C_5
REMARK    3  A    between atoms: C_5  and  C_6
REMARK    4  A    between atoms: C_16  and  C_19
REMARK    5  A    between atoms: N_18  and  C_21
REMARK    6  A    between atoms: C_21  and  C_24
REMARK    7  A    between atoms: N_23  and  C_26
REMARK    8  A    between atoms: C_26  and  C_28
REMARK    9  A    between atoms: C_28  and  O_29
REMARK                            x       y       z     vdW  Elec       q    Type
REMARK                         _______ _______ _______ _____ _____    ______ ____
ROOT
ATOM      1  O   UNL     1     -37.304  20.030   0.334  0.00  0.00    -0.275 OA
ATOM      2  N   UNL     1     -38.007  21.172   2.229  0.00  0.00    -0.296 N 
ATOM      3  C   UNL     1     -37.078  20.502   1.446  0.00  0.00    +0.227 C 
ATOM      4  H   UNL     1     -37.725  21.514   3.108  0.00  0.00    +0.150 HD
ENDROOT
BRANCH   3   5
ATOM      5  C   UNL     1     -35.721  20.421   2.125  0.00  0.00    +0.111 C 
BRANCH   5   6
ATOM      6  C   UNL     1     -34.589  20.886   1.260  0.00  0.00    -0.013 C 
ATOM      7  C   UNL     1     -33.471  20.077   0.999  0.00  0.00    -0.003 C 
ATOM      8  C   UNL     1     -32.434  20.576   0.175  0.00  0.00    -0.000 C 
ATOM      9  C   UNL     1     -34.684  22.168   0.718  0.00  0.00    -0.004 C 
ATOM     10  C   UNL     1     -33.359  18.785   1.537  0.00  0.00    -0.000 C 
ATOM     11  C   UNL     1     -32.547  21.869  -0.363  0.00  0.00    -0.000 C 
ATOM     12  C   UNL     1     -33.664  22.658  -0.093  0.00  0.00    -0.000 C 
ATOM     13  C   UNL     1     -31.315  19.768  -0.086  0.00  0.00    -0.000 C 
ATOM     14  C   UNL     1     -32.240  17.996   1.266  0.00  0.00    -0.000 C 
ATOM     15  C   UNL     1     -31.221  18.487   0.456  0.00  0.00    -0.000 C 
ENDBRANCH   5   6
ENDBRANCH   3   5
BRANCH   2  16
ATOM     16  C   UNL     1     -39.371  21.388   1.806  0.00  0.00    +0.176 C 
BRANCH  16  19
ATOM     17  O   UNL     1     -40.660  23.393   1.414  0.00  0.00    -0.273 OA
ATOM     18  N   UNL     1     -38.884  23.460   2.911  0.00  0.00    -0.295 N 
ATOM     19  C   UNL     1     -39.741  22.842   2.013  0.00  0.00    +0.243 C 
ATOM     20  H   UNL     1     -38.179  22.920   3.335  0.00  0.00    +0.150 HD
BRANCH  18  21
ATOM     21  C   UNL     1     -38.976  24.861   3.257  0.00  0.00    +0.176 C 
BRANCH  21  24
ATOM     22  O   UNL     1     -36.916  25.934   2.590  0.00  0.00    -0.273 OA
ATOM     23  N   UNL     1     -37.169  25.231   4.791  0.00  0.00    -0.294 N 
ATOM     24  C   UNL     1     -37.587  25.420   3.483  0.00  0.00    +0.243 C 
ATOM     25  H   UNL     1     -37.793  24.807   5.425  0.00  0.00    +0.150 HD
BRANCH  23  26
ATOM     26  C   UNL     1     -35.864  25.624   5.272  0.00  0.00    +0.200 C 
BRANCH  26  28
ATOM     27  O   UNL     1     -35.134  23.370   5.698  0.00  0.00    -0.248 OA
ATOM     28  C   UNL     1     -34.873  24.489   5.275  0.00  0.00    +0.334 C 
BRANCH  28  29
ATOM     29  O   UNL     1     -33.664  24.825   4.765  0.00  0.00    -0.479 OA
ATOM     30  H   UNL     1     -33.610  25.245   3.929  0.00  0.00    +0.295 HD
ENDBRANCH  28  29
ENDBRANCH  26  28
ENDBRANCH  23  26
ENDBRANCH  21  24
ENDBRANCH  18  21
ENDBRANCH  16  19
ENDBRANCH   2  16
TORSDOF 9
ENDMDL
MODEL 2
REMARK VINA RESULT:      -6.8      4.618      7.383
REMARK  Name = 53471628
REMARK  9 active torsions:
REMARK  status: ('A' for Active; 'I' for Inactive)
REMARK    1  A    between atoms: N_2  and  C_16
REMARK    2  A    between atoms: C_3  and  C_5
REMARK    3  A    between atoms: C_5  and  C_6
REMARK    4  A    between atoms: C_16  and  C_19
REMARK    5  A    between atoms: N_18  and  C_21
REMARK    6  A    between atoms: C_21  and  C_24
REMARK    7  A    between atoms: N_23  and  C_26
REMARK    8  A    between atoms: C_26  and  C_28
REMARK    9  A    between atoms: C_28  and  O_29
REMARK                            x       y       z     vdW  Elec       q    Type
REMARK                         _______ _______ _______ _____ _____    ______ ____
ROOT
ATOM      1  O   UNL     1     -35.397  26.565   2.631  0.00  0.00    -0.275 OA
ATOM      2  N   UNL     1     -34.395  26.663   4.722  0.00  0.00    -0.296 N 
ATOM      3  C   UNL     1     -35.368  26.257   3.820  0.00  0.00    +0.227 C 
ATOM      4  H   UNL     1     -34.461  26.359   5.657  0.00  0.00    +0.150 HD
ENDROOT
BRANCH   3   5
ATOM      5  C   UNL     1     -36.409  25.364   4.475  0.00  0.00    +0.111 C 
BRANCH   5   6
ATOM      6  C   UNL     1     -35.949  23.953   4.677  0.00  0.00    -0.013 C 
ATOM      7  C   UNL     1     -35.958  23.011   3.636  0.00  0.00    -0.003 C 
ATOM      8  C   UNL     1     -35.511  21.693   3.892  0.00  0.00    -0.000 C 
ATOM      9  C   UNL     1     -35.506  23.602   5.953  0.00  0.00    -0.004 C 
ATOM     10  C   UNL     1     -36.400  23.348   2.345  0.00  0.00    -0.000 C 
ATOM     11  C   UNL     1     -35.068  21.356   5.182  0.00  0.00    -0.000 C 
ATOM     12  C   UNL     1     -35.067  22.305   6.204  0.00  0.00    -0.000 C 
ATOM     13  C   UNL     1     -35.520  20.750   2.850  0.00  0.00    -0.000 C 
ATOM     14  C   UNL     1     -36.401  22.399   1.323  0.00  0.00    -0.000 C 
ATOM     15  C   UNL     1     -35.962  21.102   1.576  0.00  0.00    -0.000 C 
ENDBRANCH   5   6
ENDBRANCH   3   5
BRANCH   2  16
ATOM     16  C   UNL     1     -33.289  27.513   4.346  0.00  0.00    +0.176 C 
BRANCH  16  19
ATOM     17  O   UNL     1     -32.156  27.009   6.419  0.00  0.00    -0.273 OA
ATOM     18  N   UNL     1     -32.160  29.195   5.630  0.00  0.00    -0.295 N 
ATOM     19  C   UNL     1     -32.465  27.843   5.572  0.00  0.00    +0.243 C 
ATOM     20  H   UNL     1     -32.459  29.774   4.893  0.00  0.00    +0.150 HD
BRANCH  18  21
ATOM     21  C   UNL     1     -31.424  29.796   6.720  0.00  0.00    +0.176 C 
BRANCH  21  24
ATOM     22  O   UNL     1     -29.287  30.182   5.660  0.00  0.00    -0.273 OA
ATOM     23  N   UNL     1     -29.445  28.598   7.354  0.00  0.00    -0.294 N 
ATOM     24  C   UNL     1     -29.940  29.581   6.510  0.00  0.00    +0.243 C 
ATOM     25  H   UNL     1     -30.061  28.182   8.000  0.00  0.00    +0.150 HD
BRANCH  23  26
ATOM     26  C   UNL     1     -28.069  28.155   7.334  0.00  0.00    +0.200 C 
BRANCH  26  28
ATOM     27  O   UNL     1     -27.252  25.949   6.827  0.00  0.00    -0.248 OA
ATOM     28  C   UNL     1     -27.853  26.950   6.457  0.00  0.00    +0.334 C 
BRANCH  28  29
ATOM     29  O   UNL     1     -28.386  27.078   5.219  0.00  0.00    -0.479 OA
ATOM     30  H   UNL     1     -29.115  26.546   4.966  0.00  0.00    +0.295 HD
ENDBRANCH  28  29
ENDBRANCH  26  28
ENDBRANCH  23  26
ENDBRANCH  21  24
ENDBRANCH  18  21
ENDBRANCH  16  19
ENDBRANCH   2  16
TORSDOF 9
ENDMDL
MODEL 3
REMARK VINA RESULT:      -6.6      2.289      3.244
REMARK  Name = 53471628
REMARK  9 active torsions:
REMARK  status: ('A' for Active; 'I' for Inactive)
REMARK    1  A    between atoms: N_2  and  C_16
REMARK    2  A    between atoms: C_3  and  C_5
REMARK    3  A    between atoms: C_5  and  C_6
REMARK    4  A    between atoms: C_16  and  C_19
REMARK    5  A    between atoms: N_18  and  C_21
REMARK    6  A    between atoms: C_21  and  C_24
REMARK    7  A    between atoms: N_23  and  C_26
REMARK    8  A    between atoms: C_26  and  C_28
REMARK    9  A    between atoms: C_28  and  O_29
REMARK                            x       y       z     vdW  Elec       q    Type
REMARK                         _______ _______ _______ _____ _____    ______ ____
ROOT
ATOM      1  O   UNL     1     -36.998  20.838   1.240  0.00  0.00    -0.275 OA
ATOM      2  N   UNL     1     -35.811  21.738   3.021  0.00  0.00    -0.296 N 
ATOM      3  C   UNL     1     -36.010  20.853   1.971  0.00  0.00    +0.227 C 
ATOM      4  H   UNL     1     -34.982  21.668   3.547  0.00  0.00    +0.150 HD
ENDROOT
BRANCH   3   5
ATOM      5  C   UNL     1     -34.845  19.890   1.816  0.00  0.00    +0.111 C 
BRANCH   5   6
ATOM      6  C   UNL     1     -33.746  20.412   0.942  0.00  0.00    -0.013 C 
ATOM      7  C   UNL     1     -32.563  19.689   0.721  0.00  0.00    -0.003 C 
ATOM      8  C   UNL     1     -31.562  20.239  -0.115  0.00  0.00    -0.000 C 
ATOM      9  C   UNL     1     -33.941  21.660   0.348  0.00  0.00    -0.004 C 
ATOM     10  C   UNL     1     -32.350  18.432   1.311  0.00  0.00    -0.000 C 
ATOM     11  C   UNL     1     -31.775  21.496  -0.705  0.00  0.00    -0.000 C 
ATOM     12  C   UNL     1     -32.956  22.200  -0.474  0.00  0.00    -0.000 C 
ATOM     13  C   UNL     1     -30.378  19.517  -0.336  0.00  0.00    -0.000 C 
ATOM     14  C   UNL     1     -31.168  17.728   1.080  0.00  0.00    -0.000 C 
ATOM     15  C   UNL     1     -30.184  18.270   0.258  0.00  0.00    -0.000 C 
ENDBRANCH   5   6
ENDBRANCH   3   5
BRANCH   2  16
ATOM     16  C   UNL     1     -36.771  22.759   3.372  0.00  0.00    +0.176 C 
BRANCH  16  19
ATOM     17  O   UNL     1     -35.984  23.154   5.621  0.00  0.00    -0.273 OA
ATOM     18  N   UNL     1     -36.079  24.929   4.123  0.00  0.00    -0.295 N 
ATOM     19  C   UNL     1     -36.222  23.602   4.503  0.00  0.00    +0.243 C 
ATOM     20  H   UNL     1     -36.300  25.178   3.198  0.00  0.00    +0.150 HD
BRANCH  18  21
ATOM     21  C   UNL     1     -35.621  25.965   5.022  0.00  0.00    +0.176 C 
BRANCH  21  24
ATOM     22  O   UNL     1     -33.330  25.215   4.865  0.00  0.00    -0.273 OA
ATOM     23  N   UNL     1     -33.788  27.492   4.772  0.00  0.00    -0.294 N 
ATOM     24  C   UNL     1     -34.127  26.150   4.864  0.00  0.00    +0.243 C 
ATOM     25  H   UNL     1     -34.511  28.159   4.781  0.00  0.00    +0.150 HD
BRANCH  23  26
ATOM     26  C   UNL     1     -32.424  27.959   4.663  0.00  0.00    +0.200 C 
BRANCH  26  28
ATOM     27  O   UNL     1     -32.163  29.448   6.537  0.00  0.00    -0.248 OA
ATOM     28  C   UNL     1     -31.848  28.402   5.983  0.00  0.00    +0.334 C 
BRANCH  28  29
ATOM     29  O   UNL     1     -30.948  27.533   6.500  0.00  0.00    -0.479 OA
ATOM     30  H   UNL     1     -31.197  26.963   7.202  0.00  0.00    +0.295 HD
ENDBRANCH  28  29
ENDBRANCH  26  28
ENDBRANCH  23  26
ENDBRANCH  21  24
ENDBRANCH  18  21
ENDBRANCH  16  19
ENDBRANCH   2  16
TORSDOF 9
ENDMDL
MODEL 4
REMARK VINA RESULT:      -6.6      1.979      3.506
REMARK  Name = 53471628
REMARK  9 active torsions:
REMARK  status: ('A' for Active; 'I' for Inactive)
REMARK    1  A    between atoms: N_2  and  C_16
REMARK    2  A    between atoms: C_3  and  C_5
REMARK    3  A    between atoms: C_5  and  C_6
REMARK    4  A    between atoms: C_16  and  C_19
REMARK    5  A    between atoms: N_18  and  C_21
REMARK    6  A    between atoms: C_21  and  C_24
REMARK    7  A    between atoms: N_23  and  C_26
REMARK    8  A    between atoms: C_26  and  C_28
REMARK    9  A    between atoms: C_28  and  O_29
REMARK                            x       y       z     vdW  Elec       q    Type
REMARK                         _______ _______ _______ _____ _____    ______ ____
ROOT
ATOM      1  O   UNL     1     -37.142  22.613   3.184  0.00  0.00    -0.275 OA
ATOM      2  N   UNL     1     -35.504  21.399   4.292  0.00  0.00    -0.296 N 
ATOM      3  C   UNL     1     -36.301  21.719   3.203  0.00  0.00    +0.227 C 
ATOM      4  H   UNL     1     -34.856  20.663   4.205  0.00  0.00    +0.150 HD
ENDROOT
BRANCH   3   5
ATOM      5  C   UNL     1     -36.006  20.828   2.007  0.00  0.00    +0.111 C 
BRANCH   5   6
ATOM      6  C   UNL     1     -34.806  21.257   1.220  0.00  0.00    -0.013 C 
ATOM      7  C   UNL     1     -33.720  20.397   0.990  0.00  0.00    -0.003 C 
ATOM      8  C   UNL     1     -32.615  20.864   0.239  0.00  0.00    -0.000 C 
ATOM      9  C   UNL     1     -34.805  22.558   0.716  0.00  0.00    -0.004 C 
ATOM     10  C   UNL     1     -33.705  19.084   1.490  0.00  0.00    -0.000 C 
ATOM     11  C   UNL     1     -32.630  22.177  -0.260  0.00  0.00    -0.000 C 
ATOM     12  C   UNL     1     -33.717  23.017  -0.022  0.00  0.00    -0.000 C 
ATOM     13  C   UNL     1     -31.527  20.005   0.010  0.00  0.00    -0.000 C 
ATOM     14  C   UNL     1     -32.617  18.245   1.252  0.00  0.00    -0.000 C 
ATOM     15  C   UNL     1     -31.530  18.705   0.513  0.00  0.00    -0.000 C 
ENDBRANCH   5   6
ENDBRANCH   3   5
BRANCH   2  16
ATOM     16  C   UNL     1     -35.586  22.104   5.551  0.00  0.00    +0.176 C 
BRANCH  16  19
ATOM     17  O   UNL     1     -33.884  23.769   5.143  0.00  0.00    -0.273 OA
ATOM     18  N   UNL     1     -36.064  24.454   5.564  0.00  0.00    -0.295 N 
ATOM     19  C   UNL     1     -35.062  23.514   5.376  0.00  0.00    +0.243 C 
ATOM     20  H   UNL     1     -36.977  24.136   5.746  0.00  0.00    +0.150 HD
BRANCH  18  21
ATOM     21  C   UNL     1     -35.834  25.881   5.505  0.00  0.00    +0.176 C 
BRANCH  21  24
ATOM     22  O   UNL     1     -35.198  27.302   3.658  0.00  0.00    -0.273 OA
ATOM     23  N   UNL     1     -36.695  25.563   3.289  0.00  0.00    -0.294 N 
ATOM     24  C   UNL     1     -35.842  26.337   4.061  0.00  0.00    +0.243 C 
ATOM     25  H   UNL     1     -37.161  24.810   3.718  0.00  0.00    +0.150 HD
BRANCH  23  26
ATOM     26  C   UNL     1     -36.933  25.807   1.884  0.00  0.00    +0.200 C 
BRANCH  26  28
ATOM     27  O   UNL     1     -39.068  26.878   1.586  0.00  0.00    -0.248 OA
ATOM     28  C   UNL     1     -37.848  26.978   1.638  0.00  0.00    +0.334 C 
BRANCH  28  29
ATOM     29  O   UNL     1     -37.194  28.153   1.479  0.00  0.00    -0.479 OA
ATOM     30  H   UNL     1     -36.598  28.449   2.140  0.00  0.00    +0.295 HD
ENDBRANCH  28  29
ENDBRANCH  26  28
ENDBRANCH  23  26
ENDBRANCH  21  24
ENDBRANCH  18  21
ENDBRANCH  16  19
ENDBRANCH   2  16
TORSDOF 9
ENDMDL
MODEL 5
REMARK VINA RESULT:      -6.6      1.788      2.616
REMARK  Name = 53471628
REMARK  9 active torsions:
REMARK  status: ('A' for Active; 'I' for Inactive)
REMARK    1  A    between atoms: N_2  and  C_16
REMARK    2  A    between atoms: C_3  and  C_5
REMARK    3  A    between atoms: C_5  and  C_6
REMARK    4  A    between atoms: C_16  and  C_19
REMARK    5  A    between atoms: N_18  and  C_21
REMARK    6  A    between atoms: C_21  and  C_24
REMARK    7  A    between atoms: N_23  and  C_26
REMARK    8  A    between atoms: C_26  and  C_28
REMARK    9  A    between atoms: C_28  and  O_29
REMARK                            x       y       z     vdW  Elec       q    Type
REMARK                         _______ _______ _______ _____ _____    ______ ____
ROOT
ATOM      1  O   UNL     1     -37.539  20.934   1.024  0.00  0.00    -0.275 OA
ATOM      2  N   UNL     1     -36.721  22.097   2.858  0.00  0.00    -0.296 N 
ATOM      3  C   UNL     1     -36.685  21.104   1.891  0.00  0.00    +0.227 C 
ATOM      4  H   UNL     1     -35.984  22.150   3.510  0.00  0.00    +0.150 HD
ENDROOT
BRANCH   3   5
ATOM      5  C   UNL     1     -35.444  20.235   2.019  0.00  0.00    +0.111 C 
BRANCH   5   6
ATOM      6  C   UNL     1     -34.303  20.689   1.161  0.00  0.00    -0.013 C 
ATOM      7  C   UNL     1     -33.176  19.882   0.934  0.00  0.00    -0.003 C 
ATOM      8  C   UNL     1     -32.131  20.369   0.113  0.00  0.00    -0.000 C 
ATOM      9  C   UNL     1     -34.399  21.957   0.588  0.00  0.00    -0.004 C 
ATOM     10  C   UNL     1     -33.063  18.603   1.503  0.00  0.00    -0.000 C 
ATOM     11  C   UNL     1     -32.244  21.649  -0.456  0.00  0.00    -0.000 C 
ATOM     12  C   UNL     1     -33.371  22.436  -0.219  0.00  0.00    -0.000 C 
ATOM     13  C   UNL     1     -31.003  19.564  -0.114  0.00  0.00    -0.000 C 
ATOM     14  C   UNL     1     -31.935  17.816   1.266  0.00  0.00    -0.000 C 
ATOM     15  C   UNL     1     -30.908  18.296   0.459  0.00  0.00    -0.000 C 
ENDBRANCH   5   6
ENDBRANCH   3   5
BRANCH   2  16
ATOM     16  C   UNL     1     -37.795  23.059   2.948  0.00  0.00    +0.176 C 
BRANCH  16  19
ATOM     17  O   UNL     1     -37.675  25.430   3.392  0.00  0.00    -0.273 OA
ATOM     18  N   UNL     1     -36.380  23.972   4.657  0.00  0.00    -0.295 N 
ATOM     19  C   UNL     1     -37.310  24.293   3.678  0.00  0.00    +0.243 C 
ATOM     20  H   UNL     1     -36.162  23.023   4.802  0.00  0.00    +0.150 HD
BRANCH  18  21
ATOM     21  C   UNL     1     -35.716  24.962   5.474  0.00  0.00    +0.176 C 
BRANCH  21  24
ATOM     22  O   UNL     1     -33.478  24.949   4.563  0.00  0.00    -0.273 OA
ATOM     23  N   UNL     1     -34.814  26.828   4.266  0.00  0.00    -0.294 N 
ATOM     24  C   UNL     1     -34.543  25.543   4.714  0.00  0.00    +0.243 C 
ATOM     25  H   UNL     1     -35.706  27.206   4.443  0.00  0.00    +0.150 HD
BRANCH  23  26
ATOM     26  C   UNL     1     -33.853  27.638   3.553  0.00  0.00    +0.200 C 
BRANCH  26  28
ATOM     27  O   UNL     1     -32.699  28.797   5.319  0.00  0.00    -0.248 OA
ATOM     28  C   UNL     1     -32.654  28.000   4.390  0.00  0.00    +0.334 C 
BRANCH  28  29
ATOM     29  O   UNL     1     -31.520  27.361   4.017  0.00  0.00    -0.479 OA
ATOM     30  H   UNL     1     -30.692  27.641   4.355  0.00  0.00    +0.295 HD
ENDBRANCH  28  29
ENDBRANCH  26  28
ENDBRANCH  23  26
ENDBRANCH  21  24
ENDBRANCH  18  21
ENDBRANCH  16  19
ENDBRANCH   2  16
TORSDOF 9
ENDMDL
MODEL 6
REMARK VINA RESULT:      -6.5      4.180      6.972
REMARK  Name = 53471628
REMARK  9 active torsions:
REMARK  status: ('A' for Active; 'I' for Inactive)
REMARK    1  A    between atoms: N_2  and  C_16
REMARK    2  A    between atoms: C_3  and  C_5
REMARK    3  A    between atoms: C_5  and  C_6
REMARK    4  A    between atoms: C_16  and  C_19
REMARK    5  A    between atoms: N_18  and  C_21
REMARK    6  A    between atoms: C_21  and  C_24
REMARK    7  A    between atoms: N_23  and  C_26
REMARK    8  A    between atoms: C_26  and  C_28
REMARK    9  A    between atoms: C_28  and  O_29
REMARK                            x       y       z     vdW  Elec       q    Type
REMARK                         _______ _______ _______ _____ _____    ______ ____
ROOT
ATOM      1  O   UNL     1     -32.910  25.886   4.050  0.00  0.00    -0.275 OA
ATOM      2  N   UNL     1     -33.526  26.990   5.996  0.00  0.00    -0.296 N 
ATOM      3  C   UNL     1     -33.746  26.158   4.908  0.00  0.00    +0.227 C 
ATOM      4  H   UNL     1     -34.264  27.143   6.631  0.00  0.00    +0.150 HD
ENDROOT
BRANCH   3   5
ATOM      5  C   UNL     1     -35.160  25.602   4.898  0.00  0.00    +0.111 C 
BRANCH   5   6
ATOM      6  C   UNL     1     -35.218  24.106   4.948  0.00  0.00    -0.013 C 
ATOM      7  C   UNL     1     -35.306  23.326   3.783  0.00  0.00    -0.003 C 
ATOM      8  C   UNL     1     -35.358  21.917   3.898  0.00  0.00    -0.000 C 
ATOM      9  C   UNL     1     -35.182  23.507   6.207  0.00  0.00    -0.004 C 
ATOM     10  C   UNL     1     -35.343  23.913   2.508  0.00  0.00    -0.000 C 
ATOM     11  C   UNL     1     -35.320  21.329   5.174  0.00  0.00    -0.000 C 
ATOM     12  C   UNL     1     -35.233  22.120   6.319  0.00  0.00    -0.000 C 
ATOM     13  C   UNL     1     -35.446  21.135   2.734  0.00  0.00    -0.000 C 
ATOM     14  C   UNL     1     -35.431  23.121   1.362  0.00  0.00    -0.000 C 
ATOM     15  C   UNL     1     -35.482  21.735   1.476  0.00  0.00    -0.000 C 
ENDBRANCH   5   6
ENDBRANCH   3   5
BRANCH   2  16
ATOM     16  C   UNL     1     -32.259  27.639   6.237  0.00  0.00    +0.176 C 
BRANCH  16  19
ATOM     17  O   UNL     1     -32.553  29.943   5.573  0.00  0.00    -0.273 OA
ATOM     18  N   UNL     1     -31.477  28.474   4.129  0.00  0.00    -0.295 N 
ATOM     19  C   UNL     1     -32.114  28.827   5.310  0.00  0.00    +0.243 C 
ATOM     20  H   UNL     1     -31.165  27.548   4.024  0.00  0.00    +0.150 HD
BRANCH  18  21
ATOM     21  C   UNL     1     -31.251  29.402   3.043  0.00  0.00    +0.176 C 
BRANCH  21  24
ATOM     22  O   UNL     1     -32.903  30.520   1.679  0.00  0.00    -0.273 OA
ATOM     23  N   UNL     1     -33.094  28.233   2.048  0.00  0.00    -0.294 N 
ATOM     24  C   UNL     1     -32.486  29.473   2.171  0.00  0.00    +0.243 C 
ATOM     25  H   UNL     1     -32.670  27.459   2.485  0.00  0.00    +0.150 HD
BRANCH  23  26
ATOM     26  C   UNL     1     -34.319  28.020   1.311  0.00  0.00    +0.200 C 
BRANCH  26  28
ATOM     27  O   UNL     1     -36.690  28.156   1.705  0.00  0.00    -0.248 OA
ATOM     28  C   UNL     1     -35.551  28.359   2.109  0.00  0.00    +0.334 C 
BRANCH  28  29
ATOM     29  O   UNL     1     -35.281  28.910   3.316  0.00  0.00    -0.479 OA
ATOM     30  H   UNL     1     -34.448  29.311   3.470  0.00  0.00    +0.295 HD
ENDBRANCH  28  29
ENDBRANCH  26  28
ENDBRANCH  23  26
ENDBRANCH  21  24
ENDBRANCH  18  21
ENDBRANCH  16  19
ENDBRANCH   2  16
TORSDOF 9
ENDMDL
MODEL 7
REMARK VINA RESULT:      -6.5      2.073      2.807
REMARK  Name = 53471628
REMARK  9 active torsions:
REMARK  status: ('A' for Active; 'I' for Inactive)
REMARK    1  A    between atoms: N_2  and  C_16
REMARK    2  A    between atoms: C_3  and  C_5
REMARK    3  A    between atoms: C_5  and  C_6
REMARK    4  A    between atoms: C_16  and  C_19
REMARK    5  A    between atoms: N_18  and  C_21
REMARK    6  A    between atoms: C_21  and  C_24
REMARK    7  A    between atoms: N_23  and  C_26
REMARK    8  A    between atoms: C_26  and  C_28
REMARK    9  A    between atoms: C_28  and  O_29
REMARK                            x       y       z     vdW  Elec       q    Type
REMARK                         _______ _______ _______ _____ _____    ______ ____
ROOT
ATOM      1  O   UNL     1     -34.888  18.089  -0.797  0.00  0.00    -0.275 OA
ATOM      2  N   UNL     1     -36.211  19.283   0.690  0.00  0.00    -0.296 N 
ATOM      3  C   UNL     1     -35.015  18.750   0.231  0.00  0.00    +0.227 C 
ATOM      4  H   UNL     1     -36.206  19.800   1.528  0.00  0.00    +0.150 HD
ENDROOT
BRANCH   3   5
ATOM      5  C   UNL     1     -33.855  19.086   1.153  0.00  0.00    +0.111 C 
BRANCH   5   6
ATOM      6  C   UNL     1     -32.735  19.808   0.469  0.00  0.00    -0.013 C 
ATOM      7  C   UNL     1     -31.448  19.256   0.364  0.00  0.00    -0.003 C 
ATOM      8  C   UNL     1     -30.432  19.990  -0.293  0.00  0.00    -0.000 C 
ATOM      9  C   UNL     1     -33.017  21.066  -0.065  0.00  0.00    -0.004 C 
ATOM     10  C   UNL     1     -31.146  17.991   0.897  0.00  0.00    -0.000 C 
ATOM     11  C   UNL     1     -30.734  21.254  -0.826  0.00  0.00    -0.000 C 
ATOM     12  C   UNL     1     -32.017  21.787  -0.712  0.00  0.00    -0.000 C 
ATOM     13  C   UNL     1     -29.144  19.438  -0.398  0.00  0.00    -0.000 C 
ATOM     14  C   UNL     1     -29.862  17.459   0.783  0.00  0.00    -0.000 C 
ATOM     15  C   UNL     1     -28.863  18.181   0.136  0.00  0.00    -0.000 C 
ENDBRANCH   5   6
ENDBRANCH   3   5
BRANCH   2  16
ATOM     16  C   UNL     1     -37.461  19.110  -0.012  0.00  0.00    +0.176 C 
BRANCH  16  19
ATOM     17  O   UNL     1     -39.203  20.701  -0.533  0.00  0.00    -0.273 OA
ATOM     18  N   UNL     1     -38.087  20.865   1.499  0.00  0.00    -0.295 N 
ATOM     19  C   UNL     1     -38.366  20.292   0.267  0.00  0.00    +0.243 C 
ATOM     20  H   UNL     1     -37.393  20.453   2.062  0.00  0.00    +0.150 HD
BRANCH  18  21
ATOM     21  C   UNL     1     -38.766  22.040   1.998  0.00  0.00    +0.176 C 
BRANCH  21  24
ATOM     22  O   UNL     1     -37.959  24.049   3.070  0.00  0.00    -0.273 OA
ATOM     23  N   UNL     1     -36.767  22.070   3.323  0.00  0.00    -0.294 N 
ATOM     24  C   UNL     1     -37.818  22.847   2.859  0.00  0.00    +0.243 C 
ATOM     25  H   UNL     1     -36.755  21.113   3.093  0.00  0.00    +0.150 HD
BRANCH  23  26
ATOM     26  C   UNL     1     -35.687  22.596   4.128  0.00  0.00    +0.200 C 
BRANCH  26  28
ATOM     27  O   UNL     1     -35.823  22.425   6.525  0.00  0.00    -0.248 OA
ATOM     28  C   UNL     1     -35.550  21.896   5.455  0.00  0.00    +0.334 C 
BRANCH  28  29
ATOM     29  O   UNL     1     -35.093  20.625   5.352  0.00  0.00    -0.479 OA
ATOM     30  H   UNL     1     -35.701  19.915   5.281  0.00  0.00    +0.295 HD
ENDBRANCH  28  29
ENDBRANCH  26  28
ENDBRANCH  23  26
ENDBRANCH  21  24
ENDBRANCH  18  21
ENDBRANCH  16  19
ENDBRANCH   2  16
TORSDOF 9
ENDMDL
MODEL 8
REMARK VINA RESULT:      -6.4      4.550      7.260
REMARK  Name = 53471628
REMARK  9 active torsions:
REMARK  status: ('A' for Active; 'I' for Inactive)
REMARK    1  A    between atoms: N_2  and  C_16
REMARK    2  A    between atoms: C_3  and  C_5
REMARK    3  A    between atoms: C_5  and  C_6
REMARK    4  A    between atoms: C_16  and  C_19
REMARK    5  A    between atoms: N_18  and  C_21
REMARK    6  A    between atoms: C_21  and  C_24
REMARK    7  A    between atoms: N_23  and  C_26
REMARK    8  A    between atoms: C_26  and  C_28
REMARK    9  A    between atoms: C_28  and  O_29
REMARK                            x       y       z     vdW  Elec       q    Type
REMARK                         _______ _______ _______ _____ _____    ______ ____
ROOT
ATOM      1  O   UNL     1     -32.632  26.526   3.910  0.00  0.00    -0.275 OA
ATOM      2  N   UNL     1     -33.464  27.123   5.992  0.00  0.00    -0.296 N 
ATOM      3  C   UNL     1     -33.573  26.671   4.686  0.00  0.00    +0.227 C 
ATOM      4  H   UNL     1     -34.281  27.203   6.535  0.00  0.00    +0.150 HD
ENDROOT
BRANCH   3   5
ATOM      5  C   UNL     1     -35.014  26.361   4.314  0.00  0.00    +0.111 C 
BRANCH   5   6
ATOM      6  C   UNL     1     -35.176  25.079   3.556  0.00  0.00    -0.013 C 
ATOM      7  C   UNL     1     -35.210  23.832   4.201  0.00  0.00    -0.003 C 
ATOM      8  C   UNL     1     -35.364  22.658   3.428  0.00  0.00    -0.000 C 
ATOM      9  C   UNL     1     -35.291  25.167   2.168  0.00  0.00    -0.004 C 
ATOM     10  C   UNL     1     -35.096  23.725   5.597  0.00  0.00    -0.000 C 
ATOM     11  C   UNL     1     -35.479  22.765   2.032  0.00  0.00    -0.000 C 
ATOM     12  C   UNL     1     -35.442  24.011   1.408  0.00  0.00    -0.000 C 
ATOM     13  C   UNL     1     -35.398  21.409   4.072  0.00  0.00    -0.000 C 
ATOM     14  C   UNL     1     -35.133  22.478   6.221  0.00  0.00    -0.000 C 
ATOM     15  C   UNL     1     -35.284  21.322   5.459  0.00  0.00    -0.000 C 
ENDBRANCH   5   6
ENDBRANCH   3   5
BRANCH   2  16
ATOM     16  C   UNL     1     -32.198  27.480   6.590  0.00  0.00    +0.176 C 
BRANCH  16  19
ATOM     17  O   UNL     1     -31.596  29.692   7.350  0.00  0.00    -0.273 OA
ATOM     18  N   UNL     1     -32.264  29.393   5.145  0.00  0.00    -0.295 N 
ATOM     19  C   UNL     1     -31.963  28.967   6.430  0.00  0.00    +0.243 C 
ATOM     20  H   UNL     1     -32.551  28.723   4.484  0.00  0.00    +0.150 HD
BRANCH  18  21
ATOM     21  C   UNL     1     -32.178  30.775   4.727  0.00  0.00    +0.176 C 
BRANCH  21  24
ATOM     22  O   UNL     1     -32.829  31.799   2.638  0.00  0.00    -0.273 OA
ATOM     23  N   UNL     1     -34.245  30.245   3.630  0.00  0.00    -0.294 N 
ATOM     24  C   UNL     1     -33.087  31.003   3.538  0.00  0.00    +0.243 C 
ATOM     25  H   UNL     1     -34.346  29.637   4.397  0.00  0.00    +0.150 HD
BRANCH  23  26
ATOM     26  C   UNL     1     -35.310  30.304   2.655  0.00  0.00    +0.200 C 
BRANCH  26  28
ATOM     27  O   UNL     1     -34.491  28.514   1.269  0.00  0.00    -0.248 OA
ATOM     28  C   UNL     1     -35.436  29.039   1.846  0.00  0.00    +0.334 C 
BRANCH  28  29
ATOM     29  O   UNL     1     -36.693  28.537   1.816  0.00  0.00    -0.479 OA
ATOM     30  H   UNL     1     -37.401  29.029   2.184  0.00  0.00    +0.295 HD
ENDBRANCH  28  29
ENDBRANCH  26  28
ENDBRANCH  23  26
ENDBRANCH  21  24
ENDBRANCH  18  21
ENDBRANCH  16  19
ENDBRANCH   2  16
TORSDOF 9
ENDMDL
MODEL 9
REMARK VINA RESULT:      -6.4      4.496      6.811
REMARK  Name = 53471628
REMARK  9 active torsions:
REMARK  status: ('A' for Active; 'I' for Inactive)
REMARK    1  A    between atoms: N_2  and  C_16
REMARK    2  A    between atoms: C_3  and  C_5
REMARK    3  A    between atoms: C_5  and  C_6
REMARK    4  A    between atoms: C_16  and  C_19
REMARK    5  A    between atoms: N_18  and  C_21
REMARK    6  A    between atoms: C_21  and  C_24
REMARK    7  A    between atoms: N_23  and  C_26
REMARK    8  A    between atoms: C_26  and  C_28
REMARK    9  A    between atoms: C_28  and  O_29
REMARK                            x       y       z     vdW  Elec       q    Type
REMARK                         _______ _______ _______ _____ _____    ______ ____
ROOT
ATOM      1  O   UNL     1     -33.695  27.475   3.219  0.00  0.00    -0.275 OA
ATOM      2  N   UNL     1     -35.853  28.210   2.785  0.00  0.00    -0.296 N 
ATOM      3  C   UNL     1     -34.912  27.357   3.342  0.00  0.00    +0.227 C 
ATOM      4  H   UNL     1     -36.808  28.030   2.944  0.00  0.00    +0.150 HD
ENDROOT
BRANCH   3   5
ATOM      5  C   UNL     1     -35.564  26.244   4.146  0.00  0.00    +0.111 C 
BRANCH   5   6
ATOM      6  C   UNL     1     -35.489  24.903   3.483  0.00  0.00    -0.013 C 
ATOM      7  C   UNL     1     -35.403  23.711   4.222  0.00  0.00    -0.003 C 
ATOM      8  C   UNL     1     -35.333  22.476   3.536  0.00  0.00    -0.000 C 
ATOM      9  C   UNL     1     -35.506  24.877   2.088  0.00  0.00    -0.004 C 
ATOM     10  C   UNL     1     -35.385  23.719   5.627  0.00  0.00    -0.000 C 
ATOM     11  C   UNL     1     -35.352  22.468   2.131  0.00  0.00    -0.000 C 
ATOM     12  C   UNL     1     -35.437  23.661   1.414  0.00  0.00    -0.000 C 
ATOM     13  C   UNL     1     -35.247  21.283   4.274  0.00  0.00    -0.000 C 
ATOM     14  C   UNL     1     -35.299  22.525   6.344  0.00  0.00    -0.000 C 
ATOM     15  C   UNL     1     -35.230  21.310   5.668  0.00  0.00    -0.000 C 
ENDBRANCH   5   6
ENDBRANCH   3   5
BRANCH   2  16
ATOM     16  C   UNL     1     -35.489  29.353   1.980  0.00  0.00    +0.176 C 
BRANCH  16  19
ATOM     17  O   UNL     1     -35.391  31.005   3.740  0.00  0.00    -0.273 OA
ATOM     18  N   UNL     1     -33.488  30.578   2.476  0.00  0.00    -0.295 N 
ATOM     19  C   UNL     1     -34.810  30.389   2.850  0.00  0.00    +0.243 C 
ATOM     20  H   UNL     1     -33.124  30.028   1.746  0.00  0.00    +0.150 HD
BRANCH  18  21
ATOM     21  C   UNL     1     -32.617  31.546   3.106  0.00  0.00    +0.176 C 
BRANCH  21  24
ATOM     22  O   UNL     1     -30.535  30.655   3.949  0.00  0.00    -0.273 OA
ATOM     23  N   UNL     1     -32.466  30.430   5.223  0.00  0.00    -0.294 N 
ATOM     24  C   UNL     1     -31.736  30.850   4.122  0.00  0.00    +0.243 C 
ATOM     25  H   UNL     1     -33.427  30.643   5.257  0.00  0.00    +0.150 HD
BRANCH  23  26
ATOM     26  C   UNL     1     -31.886  29.695   6.325  0.00  0.00    +0.200 C 
BRANCH  26  28
ATOM     27  O   UNL     1     -32.708  27.519   6.946  0.00  0.00    -0.248 OA
ATOM     28  C   UNL     1     -32.039  28.203   6.181  0.00  0.00    +0.334 C 
BRANCH  28  29
ATOM     29  O   UNL     1     -31.366  27.689   5.124  0.00  0.00    -0.479 OA
ATOM     30  H   UNL     1     -31.728  26.970   4.644  0.00  0.00    +0.295 HD
ENDBRANCH  28  29
ENDBRANCH  26  28
ENDBRANCH  23  26
ENDBRANCH  21  24
ENDBRANCH  18  21
ENDBRANCH  16  19
ENDBRANCH   2  16
TORSDOF 9
ENDMDL
