MODEL 1
REMARK VINA RESULT:      -6.6      0.000      0.000
REMARK  Name = 5281642
REMARK  6 active torsions:
REMARK  status: ('A' for Active; 'I' for Inactive)
REMARK    1  A    between atoms: C_5  and  C_12
REMARK    2  A    between atoms: C_7  and  O_22
REMARK    3  A    between atoms: C_10  and  O_24
REMARK    4  A    between atoms: C_11  and  O_26
REMARK    5  A    between atoms: C_15  and  O_18
REMARK    6  A    between atoms: C_17  and  O_20
REMARK                            x       y       z     vdW  Elec       q    Type
REMARK                         _______ _______ _______ _____ _____    ______ ____
ROOT
ATOM      1  O   UNL     1     -35.062  22.049   2.805  0.00  0.00    -0.453 OA
ATOM      2  O   UNL     1     -38.994  23.084   2.551  0.00  0.00    -0.286 OA
ATOM      3  C   UNL     1     -36.849  23.577   3.413  0.00  0.00    +0.110 C 
ATOM      4  C   UNL     1     -35.518  23.167   3.456  0.00  0.00    +0.154 C 
ATOM      5  C   UNL     1     -35.968  21.292   2.078  0.00  0.00    +0.149 C 
ATOM      6  C   UNL     1     -37.811  22.781   2.636  0.00  0.00    +0.205 C 
ATOM      7  C   UNL     1     -37.259  24.725   4.095  0.00  0.00    +0.177 C 
ATOM      8  C   UNL     1     -37.271  21.587   1.955  0.00  0.00    +0.080 C 
ATOM      9  C   UNL     1     -34.585  23.906   4.185  0.00  0.00    +0.078 C 
ATOM     10  C   UNL     1     -36.323  25.462   4.823  0.00  0.00    +0.202 C 
ATOM     11  C   UNL     1     -34.989  25.053   4.868  0.00  0.00    +0.174 C 
ENDROOT
BRANCH   5  12
ATOM     12  C   UNL     1     -35.370  20.117   1.414  0.00  0.00    +0.038 C 
ATOM     13  C   UNL     1     -34.096  19.677   1.778  0.00  0.00    +0.043 C 
ATOM     14  C   UNL     1     -36.077  19.440   0.416  0.00  0.00    +0.006 C 
ATOM     15  C   UNL     1     -33.531  18.566   1.150  0.00  0.00    +0.168 C 
ATOM     16  C   UNL     1     -35.513  18.330  -0.211  0.00  0.00    +0.040 C 
ATOM     17  C   UNL     1     -34.240  17.892   0.155  0.00  0.00    +0.167 C 
BRANCH  15  18
ATOM     18  O   UNL     1     -32.287  18.150   1.516  0.00  0.00    -0.503 OA
ATOM     19  H   UNL     1     -31.952  18.360   2.366  0.00  0.00    +0.292 HD
ENDBRANCH  15  18
BRANCH  17  20
ATOM     20  O   UNL     1     -33.700  16.805  -0.464  0.00  0.00    -0.503 OA
ATOM     21  H   UNL     1     -34.099  15.964  -0.364  0.00  0.00    +0.292 HD
ENDBRANCH  17  20
ENDBRANCH   5  12
BRANCH   7  22
ATOM     22  O   UNL     1     -38.551  25.156   4.075  0.00  0.00    -0.503 OA
ATOM     23  H   UNL     1     -38.740  26.072   4.032  0.00  0.00    +0.292 HD
ENDBRANCH   7  22
BRANCH  10  24
ATOM     24  O   UNL     1     -36.710  26.585   5.495  0.00  0.00    -0.501 OA
ATOM     25  H   UNL     1     -37.293  26.516   6.225  0.00  0.00    +0.292 HD
ENDBRANCH  10  24
BRANCH  11  26
ATOM     26  O   UNL     1     -34.070  25.766   5.577  0.00  0.00    -0.503 OA
ATOM     27  H   UNL     1     -33.159  25.691   5.373  0.00  0.00    +0.292 HD
ENDBRANCH  11  26
TORSDOF 6
ENDMDL
MODEL 2
REMARK VINA RESULT:      -6.4      3.682      5.957
REMARK  Name = 5281642
REMARK  6 active torsions:
REMARK  status: ('A' for Active; 'I' for Inactive)
REMARK    1  A    between atoms: C_5  and  C_12
REMARK    2  A    between atoms: C_7  and  O_22
REMARK    3  A    between atoms: C_10  and  O_24
REMARK    4  A    between atoms: C_11  and  O_26
REMARK    5  A    between atoms: C_15  and  O_18
REMARK    6  A    between atoms: C_17  and  O_20
REMARK                            x       y       z     vdW  Elec       q    Type
REMARK                         _______ _______ _______ _____ _____    ______ ____
ROOT
ATOM      1  O   UNL     1     -33.486  26.134   4.845  0.00  0.00    -0.453 OA
ATOM      2  O   UNL     1     -33.544  28.734   1.709  0.00  0.00    -0.286 OA
ATOM      3  C   UNL     1     -32.934  28.325   3.955  0.00  0.00    +0.110 C 
ATOM      4  C   UNL     1     -32.946  27.387   4.986  0.00  0.00    +0.154 C 
ATOM      5  C   UNL     1     -34.050  25.790   3.625  0.00  0.00    +0.149 C 
ATOM      6  C   UNL     1     -33.524  27.962   2.658  0.00  0.00    +0.205 C 
ATOM      7  C   UNL     1     -32.369  29.588   4.155  0.00  0.00    +0.177 C 
ATOM      8  C   UNL     1     -34.093  26.603   2.558  0.00  0.00    +0.080 C 
ATOM      9  C   UNL     1     -32.391  27.706   6.226  0.00  0.00    +0.078 C 
ATOM     10  C   UNL     1     -31.815  29.904   5.396  0.00  0.00    +0.202 C 
ATOM     11  C   UNL     1     -31.826  28.965   6.429  0.00  0.00    +0.174 C 
ENDROOT
BRANCH   5  12
ATOM     12  C   UNL     1     -34.596  24.420   3.582  0.00  0.00    +0.038 C 
ATOM     13  C   UNL     1     -35.026  23.797   4.756  0.00  0.00    +0.043 C 
ATOM     14  C   UNL     1     -34.683  23.738   2.365  0.00  0.00    +0.006 C 
ATOM     15  C   UNL     1     -35.542  22.502   4.715  0.00  0.00    +0.168 C 
ATOM     16  C   UNL     1     -35.199  22.443   2.324  0.00  0.00    +0.040 C 
ATOM     17  C   UNL     1     -35.628  21.824   3.498  0.00  0.00    +0.167 C 
BRANCH  15  18
ATOM     18  O   UNL     1     -35.957  21.908   5.868  0.00  0.00    -0.503 OA
ATOM     19  H   UNL     1     -36.753  21.413   5.881  0.00  0.00    +0.292 HD
ENDBRANCH  15  18
BRANCH  17  20
ATOM     20  O   UNL     1     -36.132  20.560   3.445  0.00  0.00    -0.503 OA
ATOM     21  H   UNL     1     -35.573  19.826   3.608  0.00  0.00    +0.292 HD
ENDBRANCH  17  20
ENDBRANCH   5  12
BRANCH   7  22
ATOM     22  O   UNL     1     -32.339  30.530   3.171  0.00  0.00    -0.503 OA
ATOM     23  H   UNL     1     -32.760  31.356   3.300  0.00  0.00    +0.292 HD
ENDBRANCH   7  22
BRANCH  10  24
ATOM     24  O   UNL     1     -31.261  31.133   5.604  0.00  0.00    -0.501 OA
ATOM     25  H   UNL     1     -30.665  31.490   4.976  0.00  0.00    +0.292 HD
ENDBRANCH  10  24
BRANCH  11  26
ATOM     26  O   UNL     1     -31.289  29.267   7.644  0.00  0.00    -0.503 OA
ATOM     27  H   UNL     1     -31.308  28.634   8.335  0.00  0.00    +0.292 HD
ENDBRANCH  11  26
TORSDOF 6
ENDMDL
MODEL 3
REMARK VINA RESULT:      -6.4      3.367      7.897
REMARK  Name = 5281642
REMARK  6 active torsions:
REMARK  status: ('A' for Active; 'I' for Inactive)
REMARK    1  A    between atoms: C_5  and  C_12
REMARK    2  A    between atoms: C_7  and  O_22
REMARK    3  A    between atoms: C_10  and  O_24
REMARK    4  A    between atoms: C_11  and  O_26
REMARK    5  A    between atoms: C_15  and  O_18
REMARK    6  A    between atoms: C_17  and  O_20
REMARK                            x       y       z     vdW  Elec       q    Type
REMARK                         _______ _______ _______ _____ _____    ______ ____
ROOT
ATOM      1  O   UNL     1     -33.896  25.328   4.782  0.00  0.00    -0.453 OA
ATOM      2  O   UNL     1     -34.818  24.725   0.859  0.00  0.00    -0.286 OA
ATOM      3  C   UNL     1     -34.798  23.869   3.063  0.00  0.00    +0.110 C 
ATOM      4  C   UNL     1     -34.460  24.141   4.387  0.00  0.00    +0.154 C 
ATOM      5  C   UNL     1     -33.647  26.294   3.819  0.00  0.00    +0.149 C 
ATOM      6  C   UNL     1     -34.543  24.895   2.040  0.00  0.00    +0.205 C 
ATOM      7  C   UNL     1     -35.371  22.642   2.716  0.00  0.00    +0.177 C 
ATOM      8  C   UNL     1     -33.933  26.153   2.516  0.00  0.00    +0.080 C 
ATOM      9  C   UNL     1     -34.694  23.185   5.376  0.00  0.00    +0.078 C 
ATOM     10  C   UNL     1     -35.603  21.688   3.708  0.00  0.00    +0.202 C 
ATOM     11  C   UNL     1     -35.265  21.960   5.036  0.00  0.00    +0.174 C 
ENDROOT
BRANCH   5  12
ATOM     12  C   UNL     1     -33.045  27.532   4.354  0.00  0.00    +0.038 C 
ATOM     13  C   UNL     1     -32.582  27.575   5.671  0.00  0.00    +0.043 C 
ATOM     14  C   UNL     1     -32.938  28.665   3.544  0.00  0.00    +0.006 C 
ATOM     15  C   UNL     1     -32.013  28.745   6.176  0.00  0.00    +0.168 C 
ATOM     16  C   UNL     1     -32.369  29.835   4.049  0.00  0.00    +0.040 C 
ATOM     17  C   UNL     1     -31.907  29.875   5.364  0.00  0.00    +0.167 C 
BRANCH  15  18
ATOM     18  O   UNL     1     -31.567  28.773   7.462  0.00  0.00    -0.503 OA
ATOM     19  H   UNL     1     -32.077  29.193   8.127  0.00  0.00    +0.292 HD
ENDBRANCH  15  18
BRANCH  17  20
ATOM     20  O   UNL     1     -31.352  31.022   5.846  0.00  0.00    -0.503 OA
ATOM     21  H   UNL     1     -31.406  31.222   6.759  0.00  0.00    +0.292 HD
ENDBRANCH  17  20
ENDBRANCH   5  12
BRANCH   7  22
ATOM     22  O   UNL     1     -35.714  22.342   1.432  0.00  0.00    -0.503 OA
ATOM     23  H   UNL     1     -36.092  21.509   1.231  0.00  0.00    +0.292 HD
ENDBRANCH   7  22
BRANCH  10  24
ATOM     24  O   UNL     1     -36.161  20.486   3.384  0.00  0.00    -0.501 OA
ATOM     25  H   UNL     1     -36.345  19.860   4.055  0.00  0.00    +0.292 HD
ENDBRANCH  10  24
BRANCH  11  26
ATOM     26  O   UNL     1     -35.487  21.033   6.009  0.00  0.00    -0.503 OA
ATOM     27  H   UNL     1     -35.705  20.152   5.777  0.00  0.00    +0.292 HD
ENDBRANCH  11  26
TORSDOF 6
ENDMDL
MODEL 4
REMARK VINA RESULT:      -6.3      2.488      7.160
REMARK  Name = 5281642
REMARK  6 active torsions:
REMARK  status: ('A' for Active; 'I' for Inactive)
REMARK    1  A    between atoms: C_5  and  C_12
REMARK    2  A    between atoms: C_7  and  O_22
REMARK    3  A    between atoms: C_10  and  O_24
REMARK    4  A    between atoms: C_11  and  O_26
REMARK    5  A    between atoms: C_15  and  O_18
REMARK    6  A    between atoms: C_17  and  O_20
REMARK                            x       y       z     vdW  Elec       q    Type
REMARK                         _______ _______ _______ _____ _____    ______ ____
ROOT
ATOM      1  O   UNL     1     -34.786  24.226   4.070  0.00  0.00    -0.453 OA
ATOM      2  O   UNL     1     -38.552  25.562   3.276  0.00  0.00    -0.286 OA
ATOM      3  C   UNL     1     -37.012  23.770   3.212  0.00  0.00    +0.110 C 
ATOM      4  C   UNL     1     -35.708  23.378   3.510  0.00  0.00    +0.154 C 
ATOM      5  C   UNL     1     -35.167  25.531   4.343  0.00  0.00    +0.149 C 
ATOM      6  C   UNL     1     -37.423  25.151   3.508  0.00  0.00    +0.205 C 
ATOM      7  C   UNL     1     -37.910  22.864   2.643  0.00  0.00    +0.177 C 
ATOM      8  C   UNL     1     -36.393  26.024   4.107  0.00  0.00    +0.080 C 
ATOM      9  C   UNL     1     -35.294  22.073   3.241  0.00  0.00    +0.078 C 
ATOM     10  C   UNL     1     -37.493  21.559   2.375  0.00  0.00    +0.202 C 
ATOM     11  C   UNL     1     -36.187  21.165   2.674  0.00  0.00    +0.174 C 
ENDROOT
BRANCH   5  12
ATOM     12  C   UNL     1     -34.101  26.353   4.947  0.00  0.00    +0.038 C 
ATOM     13  C   UNL     1     -33.354  27.228   4.154  0.00  0.00    +0.043 C 
ATOM     14  C   UNL     1     -33.834  26.260   6.315  0.00  0.00    +0.006 C 
ATOM     15  C   UNL     1     -32.346  28.005   4.726  0.00  0.00    +0.168 C 
ATOM     16  C   UNL     1     -32.826  27.037   6.887  0.00  0.00    +0.040 C 
ATOM     17  C   UNL     1     -32.082  27.910   6.092  0.00  0.00    +0.167 C 
BRANCH  15  18
ATOM     18  O   UNL     1     -31.625  28.852   3.939  0.00  0.00    -0.503 OA
ATOM     19  H   UNL     1     -31.160  29.569   4.325  0.00  0.00    +0.292 HD
ENDBRANCH  15  18
BRANCH  17  20
ATOM     20  O   UNL     1     -31.102  28.665   6.662  0.00  0.00    -0.503 OA
ATOM     21  H   UNL     1     -31.328  29.362   7.246  0.00  0.00    +0.292 HD
ENDBRANCH  17  20
ENDBRANCH   5  12
BRANCH   7  22
ATOM     22  O   UNL     1     -39.192  23.212   2.338  0.00  0.00    -0.503 OA
ATOM     23  H   UNL     1     -39.889  22.996   2.926  0.00  0.00    +0.292 HD
ENDBRANCH   7  22
BRANCH  10  24
ATOM     24  O   UNL     1     -38.360  20.665   1.819  0.00  0.00    -0.501 OA
ATOM     25  H   UNL     1     -38.200  19.746   1.902  0.00  0.00    +0.292 HD
ENDBRANCH  10  24
BRANCH  11  26
ATOM     26  O   UNL     1     -35.772  19.894   2.414  0.00  0.00    -0.503 OA
ATOM     27  H   UNL     1     -34.888  19.643   2.597  0.00  0.00    +0.292 HD
ENDBRANCH  11  26
TORSDOF 6
ENDMDL
MODEL 5
REMARK VINA RESULT:      -6.3      3.521      7.288
REMARK  Name = 5281642
REMARK  6 active torsions:
REMARK  status: ('A' for Active; 'I' for Inactive)
REMARK    1  A    between atoms: C_5  and  C_12
REMARK    2  A    between atoms: C_7  and  O_22
REMARK    3  A    between atoms: C_10  and  O_24
REMARK    4  A    between atoms: C_11  and  O_26
REMARK    5  A    between atoms: C_15  and  O_18
REMARK    6  A    between atoms: C_17  and  O_20
REMARK                            x       y       z     vdW  Elec       q    Type
REMARK                         _______ _______ _______ _____ _____    ______ ____
ROOT
ATOM      1  O   UNL     1     -36.190  25.901   4.012  0.00  0.00    -0.453 OA
ATOM      2  O   UNL     1     -35.545  21.895   3.645  0.00  0.00    -0.286 OA
ATOM      3  C   UNL     1     -37.015  23.719   3.335  0.00  0.00    +0.110 C 
ATOM      4  C   UNL     1     -37.170  25.096   3.487  0.00  0.00    +0.154 C 
ATOM      5  C   UNL     1     -34.999  25.316   4.415  0.00  0.00    +0.149 C 
ATOM      6  C   UNL     1     -35.750  23.097   3.754  0.00  0.00    +0.205 C 
ATOM      7  C   UNL     1     -38.047  22.947   2.794  0.00  0.00    +0.177 C 
ATOM      8  C   UNL     1     -34.730  24.005   4.313  0.00  0.00    +0.080 C 
ATOM      9  C   UNL     1     -38.360  25.711   3.097  0.00  0.00    +0.078 C 
ATOM     10  C   UNL     1     -39.236  23.566   2.404  0.00  0.00    +0.202 C 
ATOM     11  C   UNL     1     -39.391  24.945   2.555  0.00  0.00    +0.174 C 
ENDROOT
BRANCH   5  12
ATOM     12  C   UNL     1     -34.015  26.273   4.958  0.00  0.00    +0.038 C 
ATOM     13  C   UNL     1     -33.395  27.198   4.115  0.00  0.00    +0.043 C 
ATOM     14  C   UNL     1     -33.698  26.256   6.319  0.00  0.00    +0.006 C 
ATOM     15  C   UNL     1     -32.465  28.102   4.629  0.00  0.00    +0.168 C 
ATOM     16  C   UNL     1     -32.768  27.160   6.833  0.00  0.00    +0.040 C 
ATOM     17  C   UNL     1     -32.152  28.083   5.988  0.00  0.00    +0.167 C 
BRANCH  15  18
ATOM     18  O   UNL     1     -31.868  28.998   3.794  0.00  0.00    -0.503 OA
ATOM     19  H   UNL     1     -31.350  28.695   3.073  0.00  0.00    +0.292 HD
ENDBRANCH  15  18
BRANCH  17  20
ATOM     20  O   UNL     1     -31.246  28.962   6.502  0.00  0.00    -0.503 OA
ATOM     21  H   UNL     1     -30.889  29.637   5.959  0.00  0.00    +0.292 HD
ENDBRANCH  17  20
ENDBRANCH   5  12
BRANCH   7  22
ATOM     22  O   UNL     1     -37.931  21.600   2.631  0.00  0.00    -0.503 OA
ATOM     23  H   UNL     1     -37.781  21.241   1.778  0.00  0.00    +0.292 HD
ENDBRANCH   7  22
BRANCH  10  24
ATOM     24  O   UNL     1     -40.251  22.824   1.875  0.00  0.00    -0.501 OA
ATOM     25  H   UNL     1     -40.769  23.171   1.177  0.00  0.00    +0.292 HD
ENDBRANCH  10  24
BRANCH  11  26
ATOM     26  O   UNL     1     -40.550  25.556   2.179  0.00  0.00    -0.503 OA
ATOM     27  H   UNL     1     -41.151  25.861   2.829  0.00  0.00    +0.292 HD
ENDBRANCH  11  26
TORSDOF 6
ENDMDL
MODEL 6
REMARK VINA RESULT:      -6.2      3.691      5.419
REMARK  Name = 5281642
REMARK  6 active torsions:
REMARK  status: ('A' for Active; 'I' for Inactive)
REMARK    1  A    between atoms: C_5  and  C_12
REMARK    2  A    between atoms: C_7  and  O_22
REMARK    3  A    between atoms: C_10  and  O_24
REMARK    4  A    between atoms: C_11  and  O_26
REMARK    5  A    between atoms: C_15  and  O_18
REMARK    6  A    between atoms: C_17  and  O_20
REMARK                            x       y       z     vdW  Elec       q    Type
REMARK                         _______ _______ _______ _____ _____    ______ ____
ROOT
ATOM      1  O   UNL     1     -34.856  26.344   3.481  0.00  0.00    -0.453 OA
ATOM      2  O   UNL     1     -38.125  27.323   1.254  0.00  0.00    -0.286 OA
ATOM      3  C   UNL     1     -36.025  27.979   2.118  0.00  0.00    +0.110 C 
ATOM      4  C   UNL     1     -34.936  27.580   2.890  0.00  0.00    +0.154 C 
ATOM      5  C   UNL     1     -35.908  25.458   3.305  0.00  0.00    +0.149 C 
ATOM      6  C   UNL     1     -37.139  27.040   1.923  0.00  0.00    +0.205 C 
ATOM      7  C   UNL     1     -36.053  29.251   1.539  0.00  0.00    +0.177 C 
ATOM      8  C   UNL     1     -37.006  25.724   2.580  0.00  0.00    +0.080 C 
ATOM      9  C   UNL     1     -33.865  28.452   3.089  0.00  0.00    +0.078 C 
ATOM     10  C   UNL     1     -34.980  30.121   1.740  0.00  0.00    +0.202 C 
ATOM     11  C   UNL     1     -33.888  29.722   2.513  0.00  0.00    +0.174 C 
ENDROOT
BRANCH   5  12
ATOM     12  C   UNL     1     -35.717  24.158   3.978  0.00  0.00    +0.038 C 
ATOM     13  C   UNL     1     -35.870  22.968   3.262  0.00  0.00    +0.043 C 
ATOM     14  C   UNL     1     -35.382  24.113   5.333  0.00  0.00    +0.006 C 
ATOM     15  C   UNL     1     -35.689  21.740   3.898  0.00  0.00    +0.168 C 
ATOM     16  C   UNL     1     -35.201  22.884   5.969  0.00  0.00    +0.040 C 
ATOM     17  C   UNL     1     -35.354  21.698   5.251  0.00  0.00    +0.167 C 
BRANCH  15  18
ATOM     18  O   UNL     1     -35.843  20.588   3.187  0.00  0.00    -0.503 OA
ATOM     19  H   UNL     1     -36.635  20.092   3.262  0.00  0.00    +0.292 HD
ENDBRANCH  15  18
BRANCH  17  20
ATOM     20  O   UNL     1     -35.173  20.504   5.883  0.00  0.00    -0.503 OA
ATOM     21  H   UNL     1     -34.327  20.102   5.891  0.00  0.00    +0.292 HD
ENDBRANCH  17  20
ENDBRANCH   5  12
BRANCH   7  22
ATOM     22  O   UNL     1     -37.100  29.676   0.778  0.00  0.00    -0.503 OA
ATOM     23  H   UNL     1     -37.975  29.430   1.006  0.00  0.00    +0.292 HD
ENDBRANCH   7  22
BRANCH  10  24
ATOM     24  O   UNL     1     -34.995  31.366   1.181  0.00  0.00    -0.501 OA
ATOM     25  H   UNL     1     -35.405  32.076   1.632  0.00  0.00    +0.292 HD
ENDBRANCH  10  24
BRANCH  11  26
ATOM     26  O   UNL     1     -32.838  30.566   2.715  0.00  0.00    -0.503 OA
ATOM     27  H   UNL     1     -32.325  30.858   1.988  0.00  0.00    +0.292 HD
ENDBRANCH  11  26
TORSDOF 6
ENDMDL
MODEL 7
REMARK VINA RESULT:      -6.2      1.594      2.561
REMARK  Name = 5281642
REMARK  6 active torsions:
REMARK  status: ('A' for Active; 'I' for Inactive)
REMARK    1  A    between atoms: C_5  and  C_12
REMARK    2  A    between atoms: C_7  and  O_22
REMARK    3  A    between atoms: C_10  and  O_24
REMARK    4  A    between atoms: C_11  and  O_26
REMARK    5  A    between atoms: C_15  and  O_18
REMARK    6  A    between atoms: C_17  and  O_20
REMARK                            x       y       z     vdW  Elec       q    Type
REMARK                         _______ _______ _______ _____ _____    ______ ____
ROOT
ATOM      1  O   UNL     1     -35.258  22.373   2.106  0.00  0.00    -0.453 OA
ATOM      2  O   UNL     1     -38.876  20.908   0.938  0.00  0.00    -0.286 OA
ATOM      3  C   UNL     1     -37.680  22.556   2.138  0.00  0.00    +0.110 C 
ATOM      4  C   UNL     1     -36.411  23.004   2.500  0.00  0.00    +0.154 C 
ATOM      5  C   UNL     1     -35.363  21.236   1.319  0.00  0.00    +0.149 C 
ATOM      6  C   UNL     1     -37.795  21.355   1.297  0.00  0.00    +0.205 C 
ATOM      7  C   UNL     1     -38.821  23.238   2.568  0.00  0.00    +0.177 C 
ATOM      8  C   UNL     1     -36.526  20.712   0.901  0.00  0.00    +0.080 C 
ATOM      9  C   UNL     1     -36.275  24.142   3.297  0.00  0.00    +0.078 C 
ATOM     10  C   UNL     1     -38.681  24.376   3.365  0.00  0.00    +0.202 C 
ATOM     11  C   UNL     1     -37.411  24.827   3.728  0.00  0.00    +0.174 C 
ENDROOT
BRANCH   5  12
ATOM     12  C   UNL     1     -34.064  20.642   0.948  0.00  0.00    +0.038 C 
ATOM     13  C   UNL     1     -33.699  19.387   1.442  0.00  0.00    +0.043 C 
ATOM     14  C   UNL     1     -33.192  21.333   0.103  0.00  0.00    +0.006 C 
ATOM     15  C   UNL     1     -32.471  18.825   1.092  0.00  0.00    +0.168 C 
ATOM     16  C   UNL     1     -31.964  20.771  -0.247  0.00  0.00    +0.040 C 
ATOM     17  C   UNL     1     -31.603  19.518   0.247  0.00  0.00    +0.167 C 
BRANCH  15  18
ATOM     18  O   UNL     1     -32.130  17.601   1.582  0.00  0.00    -0.503 OA
ATOM     19  H   UNL     1     -31.809  16.937   1.003  0.00  0.00    +0.292 HD
ENDBRANCH  15  18
BRANCH  17  20
ATOM     20  O   UNL     1     -30.402  18.979  -0.104  0.00  0.00    -0.503 OA
ATOM     21  H   UNL     1     -30.072  18.233   0.356  0.00  0.00    +0.292 HD
ENDBRANCH  17  20
ENDBRANCH   5  12
BRANCH   7  22
ATOM     22  O   UNL     1     -40.077  22.829   2.234  0.00  0.00    -0.503 OA
ATOM     23  H   UNL     1     -40.604  22.373   2.859  0.00  0.00    +0.292 HD
ENDBRANCH   7  22
BRANCH  10  24
ATOM     24  O   UNL     1     -39.787  25.052   3.792  0.00  0.00    -0.501 OA
ATOM     25  H   UNL     1     -39.691  25.850   4.271  0.00  0.00    +0.292 HD
ENDBRANCH  10  24
BRANCH  11  26
ATOM     26  O   UNL     1     -37.266  25.935   4.507  0.00  0.00    -0.503 OA
ATOM     27  H   UNL     1     -36.478  26.065   4.995  0.00  0.00    +0.292 HD
ENDBRANCH  11  26
TORSDOF 6
ENDMDL
MODEL 8
REMARK VINA RESULT:      -6.2      2.037      7.548
REMARK  Name = 5281642
REMARK  6 active torsions:
REMARK  status: ('A' for Active; 'I' for Inactive)
REMARK    1  A    between atoms: C_5  and  C_12
REMARK    2  A    between atoms: C_7  and  O_22
REMARK    3  A    between atoms: C_10  and  O_24
REMARK    4  A    between atoms: C_11  and  O_26
REMARK    5  A    between atoms: C_15  and  O_18
REMARK    6  A    between atoms: C_17  and  O_20
REMARK                            x       y       z     vdW  Elec       q    Type
REMARK                         _______ _______ _______ _____ _____    ______ ____
ROOT
ATOM      1  O   UNL     1     -37.397  21.738   1.794  0.00  0.00    -0.453 OA
ATOM      2  O   UNL     1     -34.164  19.263   1.658  0.00  0.00    -0.286 OA
ATOM      3  C   UNL     1     -36.355  19.731   0.907  0.00  0.00    +0.110 C 
ATOM      4  C   UNL     1     -37.425  20.620   0.999  0.00  0.00    +0.154 C 
ATOM      5  C   UNL     1     -36.257  21.988   2.543  0.00  0.00    +0.149 C 
ATOM      6  C   UNL     1     -35.141  19.998   1.694  0.00  0.00    +0.205 C 
ATOM      7  C   UNL     1     -36.438  18.608   0.080  0.00  0.00    +0.177 C 
ATOM      8  C   UNL     1     -35.162  21.211   2.534  0.00  0.00    +0.080 C 
ATOM      9  C   UNL     1     -38.587  20.391   0.262  0.00  0.00    +0.078 C 
ATOM     10  C   UNL     1     -37.602  18.382  -0.656  0.00  0.00    +0.202 C 
ATOM     11  C   UNL     1     -38.674  19.272  -0.565  0.00  0.00    +0.174 C 
ENDROOT
BRANCH   5  12
ATOM     12  C   UNL     1     -36.332  23.217   3.357  0.00  0.00    +0.038 C 
ATOM     13  C   UNL     1     -37.242  24.224   3.027  0.00  0.00    +0.043 C 
ATOM     14  C   UNL     1     -35.492  23.379   4.462  0.00  0.00    +0.006 C 
ATOM     15  C   UNL     1     -37.312  25.386   3.796  0.00  0.00    +0.168 C 
ATOM     16  C   UNL     1     -35.563  24.541   5.231  0.00  0.00    +0.040 C 
ATOM     17  C   UNL     1     -36.473  25.544   4.899  0.00  0.00    +0.167 C 
BRANCH  15  18
ATOM     18  O   UNL     1     -38.204  26.359   3.460  0.00  0.00    -0.503 OA
ATOM     19  H   UNL     1     -38.614  26.350   2.617  0.00  0.00    +0.292 HD
ENDBRANCH  15  18
BRANCH  17  20
ATOM     20  O   UNL     1     -36.534  26.673   5.659  0.00  0.00    -0.503 OA
ATOM     21  H   UNL     1     -36.169  27.474   5.338  0.00  0.00    +0.292 HD
ENDBRANCH  17  20
ENDBRANCH   5  12
BRANCH   7  22
ATOM     22  O   UNL     1     -35.413  17.718  -0.035  0.00  0.00    -0.503 OA
ATOM     23  H   UNL     1     -35.010  17.365   0.733  0.00  0.00    +0.292 HD
ENDBRANCH   7  22
BRANCH  10  24
ATOM     24  O   UNL     1     -37.697  17.289  -1.467  0.00  0.00    -0.501 OA
ATOM     25  H   UNL     1     -38.067  17.372  -2.323  0.00  0.00    +0.292 HD
ENDBRANCH  10  24
BRANCH  11  26
ATOM     26  O   UNL     1     -39.815  19.056  -1.279  0.00  0.00    -0.503 OA
ATOM     27  H   UNL     1     -40.128  18.183  -1.409  0.00  0.00    +0.292 HD
ENDBRANCH  11  26
TORSDOF 6
ENDMDL
MODEL 9
REMARK VINA RESULT:      -6.2      1.580      2.627
REMARK  Name = 5281642
REMARK  6 active torsions:
REMARK  status: ('A' for Active; 'I' for Inactive)
REMARK    1  A    between atoms: C_5  and  C_12
REMARK    2  A    between atoms: C_7  and  O_22
REMARK    3  A    between atoms: C_10  and  O_24
REMARK    4  A    between atoms: C_11  and  O_26
REMARK    5  A    between atoms: C_15  and  O_18
REMARK    6  A    between atoms: C_17  and  O_20
REMARK                            x       y       z     vdW  Elec       q    Type
REMARK                         _______ _______ _______ _____ _____    ______ ____
ROOT
ATOM      1  O   UNL     1     -36.362  21.914   1.190  0.00  0.00    -0.453 OA
ATOM      2  O   UNL     1     -35.965  22.760   5.156  0.00  0.00    -0.286 OA
ATOM      3  C   UNL     1     -36.841  23.395   3.054  0.00  0.00    +0.110 C 
ATOM      4  C   UNL     1     -36.939  23.046   1.708  0.00  0.00    +0.154 C 
ATOM      5  C   UNL     1     -35.645  21.087   2.042  0.00  0.00    +0.149 C 
ATOM      6  C   UNL     1     -36.088  22.516   3.962  0.00  0.00    +0.205 C 
ATOM      7  C   UNL     1     -37.449  24.560   3.529  0.00  0.00    +0.177 C 
ATOM      8  C   UNL     1     -35.486  21.313   3.355  0.00  0.00    +0.080 C 
ATOM      9  C   UNL     1     -37.649  23.861   0.827  0.00  0.00    +0.078 C 
ATOM     10  C   UNL     1     -38.158  25.374   2.644  0.00  0.00    +0.202 C 
ATOM     11  C   UNL     1     -38.258  25.025   1.296  0.00  0.00    +0.174 C 
ENDROOT
BRANCH   5  12
ATOM     12  C   UNL     1     -35.073  19.897   1.382  0.00  0.00    +0.038 C 
ATOM     13  C   UNL     1     -33.832  19.400   1.785  0.00  0.00    +0.043 C 
ATOM     14  C   UNL     1     -35.771  19.264   0.350  0.00  0.00    +0.006 C 
ATOM     15  C   UNL     1     -33.291  18.275   1.161  0.00  0.00    +0.168 C 
ATOM     16  C   UNL     1     -35.230  18.140  -0.274  0.00  0.00    +0.040 C 
ATOM     17  C   UNL     1     -33.990  17.645   0.131  0.00  0.00    +0.167 C 
BRANCH  15  18
ATOM     18  O   UNL     1     -32.079  17.802   1.564  0.00  0.00    -0.503 OA
ATOM     19  H   UNL     1     -31.667  18.158   2.328  0.00  0.00    +0.292 HD
ENDBRANCH  15  18
BRANCH  17  20
ATOM     20  O   UNL     1     -33.473  16.545  -0.484  0.00  0.00    -0.503 OA
ATOM     21  H   UNL     1     -33.886  15.711  -0.377  0.00  0.00    +0.292 HD
ENDBRANCH  17  20
ENDBRANCH   5  12
BRANCH   7  22
ATOM     22  O   UNL     1     -37.374  24.933   4.837  0.00  0.00    -0.503 OA
ATOM     23  H   UNL     1     -36.542  24.979   5.265  0.00  0.00    +0.292 HD
ENDBRANCH   7  22
BRANCH  10  24
ATOM     24  O   UNL     1     -38.757  26.514   3.094  0.00  0.00    -0.501 OA
ATOM     25  H   UNL     1     -39.364  26.475   3.805  0.00  0.00    +0.292 HD
ENDBRANCH  10  24
BRANCH  11  26
ATOM     26  O   UNL     1     -38.947  25.815   0.425  0.00  0.00    -0.503 OA
ATOM     27  H   UNL     1     -38.499  26.478  -0.061  0.00  0.00    +0.292 HD
ENDBRANCH  11  26
TORSDOF 6
ENDMDL
