MODEL 1
REMARK VINA RESULT:      -6.5      0.000      0.000
REMARK  Name = 21628892
REMARK  4 active torsions:
REMARK  status: ('A' for Active; 'I' for Inactive)
REMARK    1  A    between atoms: C_17  and  C_23
REMARK    2  A    between atoms: C_23  and  O_25
REMARK    3  A    between atoms: C_23  and  C_27
REMARK    4  A    between atoms: C_27  and  S_28
REMARK                            x       y       z     vdW  Elec       q    Type
REMARK                         _______ _______ _______ _____ _____    ______ ____
ROOT
ATOM      1  O   UNL     1     -32.709  26.627   4.472  0.00  0.00    -0.345 OA
ATOM      2  O   UNL     1     -36.657  22.991   1.618  0.00  0.00    -0.353 OA
ATOM      3  O   UNL     1     -36.321  25.803   4.439  0.00  0.00    -0.450 OA
ATOM      4  O   UNL     1     -31.235  27.745   1.883  0.00  0.00    -0.444 OA
ATOM      5  O   UNL     1     -38.130  24.447   4.019  0.00  0.00    -0.250 OA
ATOM      6  O   UNL     1     -30.000  26.346   0.598  0.00  0.00    -0.245 OA
ATOM      7  C   UNL     1     -34.624  24.406   3.668  0.00  0.00    +0.059 C 
ATOM      8  C   UNL     1     -34.387  24.810   2.166  0.00  0.00    +0.024 C 
ATOM      9  C   UNL     1     -35.863  23.535   3.937  0.00  0.00    +0.120 C 
ATOM     10  C   UNL     1     -33.088  26.818   3.100  0.00  0.00    +0.175 C 
ATOM     11  C   UNL     1     -34.113  26.820   4.224  0.00  0.00    +0.187 C 
ATOM     12  C   UNL     1     -34.903  25.602   4.569  0.00  0.00    +0.199 C 
ATOM     13  C   UNL     1     -36.144  22.513   2.869  0.00  0.00    +0.152 C 
ATOM     14  C   UNL     1     -35.321  22.483   1.609  0.00  0.00    +0.143 C 
ATOM     15  C   UNL     1     -33.127  25.702   2.128  0.00  0.00    -0.008 C 
ATOM     16  C   UNL     1     -34.242  23.490   1.358  0.00  0.00    +0.036 C 
ATOM     17  C   UNL     1     -32.515  28.071   2.497  0.00  0.00    +0.225 C 
ATOM     18  C   UNL     1     -36.923  24.603   4.120  0.00  0.00    +0.318 C 
ATOM     19  C   UNL     1     -35.493  25.688   1.509  0.00  0.00    +0.004 C 
ATOM     20  C   UNL     1     -35.739  22.787   5.287  0.00  0.00    +0.014 C 
ATOM     21  C   UNL     1     -32.135  25.587   1.229  0.00  0.00    +0.076 C 
ATOM     22  C   UNL     1     -31.036  26.576   1.212  0.00  0.00    +0.341 C 
ENDROOT
BRANCH  17  23
ATOM     23  C   UNL     1     -32.260  29.221   3.463  0.00  0.00    +0.140 C 
ATOM     24  C   UNL     1     -31.975  30.505   2.669  0.00  0.00    +0.034 C 
BRANCH  23  25
ATOM     25  O   UNL     1     -33.456  29.447   4.216  0.00  0.00    -0.382 OA
ATOM     26  H   UNL     1     -34.059  28.696   4.097  0.00  0.00    +0.210 HD
ENDBRANCH  23  25
BRANCH  23  27
ATOM     27  C   UNL     1     -31.090  28.958   4.429  0.00  0.00    +0.122 C 
BRANCH  27  28
ATOM     28  S   UNL     1     -31.484  29.363   6.163  0.00  0.00    +0.045 S 
ATOM     29  O   UNL     1     -31.976  30.775   6.181  0.00  0.00    -0.256 OA
ATOM     30  C   UNL     1     -29.765  29.372   6.725  0.00  0.00    +0.106 C 
ENDBRANCH  27  28
ENDBRANCH  23  27
ENDBRANCH  17  23
TORSDOF 4
ENDMDL
MODEL 2
REMARK VINA RESULT:      -6.5      2.862      7.259
REMARK  Name = 21628892
REMARK  4 active torsions:
REMARK  status: ('A' for Active; 'I' for Inactive)
REMARK    1  A    between atoms: C_17  and  C_23
REMARK    2  A    between atoms: C_23  and  O_25
REMARK    3  A    between atoms: C_23  and  C_27
REMARK    4  A    between atoms: C_27  and  S_28
REMARK                            x       y       z     vdW  Elec       q    Type
REMARK                         _______ _______ _______ _____ _____    ______ ____
ROOT
ATOM      1  O   UNL     1     -34.416  23.186   2.196  0.00  0.00    -0.345 OA
ATOM      2  O   UNL     1     -33.176  28.795   4.183  0.00  0.00    -0.353 OA
ATOM      3  O   UNL     1     -34.123  26.659   0.941  0.00  0.00    -0.450 OA
ATOM      4  O   UNL     1     -36.518  22.405   4.454  0.00  0.00    -0.444 OA
ATOM      5  O   UNL     1     -33.373  28.831   1.020  0.00  0.00    -0.250 OA
ATOM      6  O   UNL     1     -35.833  22.185   6.603  0.00  0.00    -0.245 OA
ATOM      7  C   UNL     1     -33.130  25.854   2.887  0.00  0.00    +0.059 C 
ATOM      8  C   UNL     1     -34.208  26.026   4.021  0.00  0.00    +0.024 C 
ATOM      9  C   UNL     1     -32.384  27.134   2.475  0.00  0.00    +0.120 C 
ATOM     10  C   UNL     1     -35.314  23.927   3.037  0.00  0.00    +0.175 C 
ATOM     11  C   UNL     1     -34.860  24.455   1.684  0.00  0.00    +0.187 C 
ATOM     12  C   UNL     1     -33.730  25.420   1.556  0.00  0.00    +0.199 C 
ATOM     13  C   UNL     1     -32.079  28.066   3.617  0.00  0.00    +0.152 C 
ATOM     14  C   UNL     1     -32.599  27.773   4.998  0.00  0.00    +0.143 C 
ATOM     15  C   UNL     1     -34.852  24.642   4.250  0.00  0.00    -0.008 C 
ATOM     16  C   UNL     1     -33.469  26.585   5.269  0.00  0.00    +0.036 C 
ATOM     17  C   UNL     1     -36.628  23.231   3.258  0.00  0.00    +0.225 C 
ATOM     18  C   UNL     1     -33.323  27.678   1.416  0.00  0.00    +0.318 C 
ATOM     19  C   UNL     1     -35.413  26.954   3.686  0.00  0.00    +0.004 C 
ATOM     20  C   UNL     1     -31.049  26.801   1.766  0.00  0.00    +0.014 C 
ATOM     21  C   UNL     1     -35.099  24.102   5.455  0.00  0.00    +0.076 C 
ATOM     22  C   UNL     1     -35.834  22.823   5.555  0.00  0.00    +0.341 C 
ENDROOT
BRANCH  17  23
ATOM     23  C   UNL     1     -37.097  22.316   2.134  0.00  0.00    +0.140 C 
ATOM     24  C   UNL     1     -38.627  22.189   2.180  0.00  0.00    +0.034 C 
BRANCH  23  25
ATOM     25  O   UNL     1     -36.763  22.933   0.887  0.00  0.00    -0.382 OA
ATOM     26  H   UNL     1     -36.732  23.897   1.001  0.00  0.00    +0.210 HD
ENDBRANCH  23  25
BRANCH  23  27
ATOM     27  C   UNL     1     -36.474  20.910   2.191  0.00  0.00    +0.122 C 
BRANCH  27  28
ATOM     28  S   UNL     1     -35.937  20.293   0.561  0.00  0.00    +0.045 S 
ATOM     29  O   UNL     1     -36.736  19.061   0.277  0.00  0.00    -0.256 OA
ATOM     30  C   UNL     1     -34.296  19.771   1.114  0.00  0.00    +0.106 C 
ENDBRANCH  27  28
ENDBRANCH  23  27
ENDBRANCH  17  23
TORSDOF 4
ENDMDL
MODEL 3
REMARK VINA RESULT:      -6.4      2.543      4.905
REMARK  Name = 21628892
REMARK  4 active torsions:
REMARK  status: ('A' for Active; 'I' for Inactive)
REMARK    1  A    between atoms: C_17  and  C_23
REMARK    2  A    between atoms: C_23  and  O_25
REMARK    3  A    between atoms: C_23  and  C_27
REMARK    4  A    between atoms: C_27  and  S_28
REMARK                            x       y       z     vdW  Elec       q    Type
REMARK                         _______ _______ _______ _____ _____    ______ ____
ROOT
ATOM      1  O   UNL     1     -37.505  24.574   3.912  0.00  0.00    -0.345 OA
ATOM      2  O   UNL     1     -36.888  20.471  -0.530  0.00  0.00    -0.353 OA
ATOM      3  O   UNL     1     -37.612  24.330   0.218  0.00  0.00    -0.450 OA
ATOM      4  O   UNL     1     -34.893  23.797   5.556  0.00  0.00    -0.444 OA
ATOM      5  O   UNL     1     -37.876  23.213  -1.776  0.00  0.00    -0.250 OA
ATOM      6  O   UNL     1     -34.760  21.774   6.569  0.00  0.00    -0.245 OA
ATOM      7  C   UNL     1     -37.940  22.551   1.684  0.00  0.00    +0.059 C 
ATOM      8  C   UNL     1     -36.507  21.977   1.989  0.00  0.00    +0.024 C 
ATOM      9  C   UNL     1     -38.542  22.155   0.325  0.00  0.00    +0.120 C 
ATOM     10  C   UNL     1     -36.242  23.980   3.575  0.00  0.00    +0.175 C 
ATOM     11  C   UNL     1     -37.062  24.757   2.556  0.00  0.00    +0.187 C 
ATOM     12  C   UNL     1     -37.965  24.071   1.587  0.00  0.00    +0.199 C 
ATOM     13  C   UNL     1     -38.229  20.747  -0.103  0.00  0.00    +0.152 C 
ATOM     14  C   UNL     1     -37.295  19.893   0.713  0.00  0.00    +0.143 C 
ATOM     15  C   UNL     1     -36.084  22.521   3.371  0.00  0.00    -0.008 C 
ATOM     16  C   UNL     1     -36.616  20.428   1.935  0.00  0.00    +0.036 C 
ATOM     17  C   UNL     1     -35.088  24.571   4.337  0.00  0.00    +0.225 C 
ATOM     18  C   UNL     1     -37.981  23.251  -0.560  0.00  0.00    +0.318 C 
ATOM     19  C   UNL     1     -35.366  22.440   1.035  0.00  0.00    +0.004 C 
ATOM     20  C   UNL     1     -40.081  22.319   0.325  0.00  0.00    +0.014 C 
ATOM     21  C   UNL     1     -35.509  21.788   4.339  0.00  0.00    +0.076 C 
ATOM     22  C   UNL     1     -35.033  22.442   5.576  0.00  0.00    +0.341 C 
ENDROOT
BRANCH  17  23
ATOM     23  C   UNL     1     -35.243  26.026   4.760  0.00  0.00    +0.140 C 
ATOM     24  C   UNL     1     -35.430  26.906   3.514  0.00  0.00    +0.034 C 
BRANCH  23  25
ATOM     25  O   UNL     1     -36.437  26.141   5.540  0.00  0.00    -0.382 OA
ATOM     26  H   UNL     1     -36.969  25.336   5.436  0.00  0.00    +0.210 HD
ENDBRANCH  23  25
BRANCH  23  27
ATOM     27  C   UNL     1     -34.048  26.555   5.573  0.00  0.00    +0.122 C 
BRANCH  27  28
ATOM     28  S   UNL     1     -32.925  27.612   4.599  0.00  0.00    +0.045 S 
ATOM     29  O   UNL     1     -32.052  26.700   3.799  0.00  0.00    -0.256 OA
ATOM     30  C   UNL     1     -31.965  28.187   6.020  0.00  0.00    +0.106 C 
ENDBRANCH  27  28
ENDBRANCH  23  27
ENDBRANCH  17  23
TORSDOF 4
ENDMDL
MODEL 4
REMARK VINA RESULT:      -6.4      3.036      7.425
REMARK  Name = 21628892
REMARK  4 active torsions:
REMARK  status: ('A' for Active; 'I' for Inactive)
REMARK    1  A    between atoms: C_17  and  C_23
REMARK    2  A    between atoms: C_23  and  O_25
REMARK    3  A    between atoms: C_23  and  C_27
REMARK    4  A    between atoms: C_27  and  S_28
REMARK                            x       y       z     vdW  Elec       q    Type
REMARK                         _______ _______ _______ _____ _____    ______ ____
ROOT
ATOM      1  O   UNL     1     -34.314  23.391   2.082  0.00  0.00    -0.345 OA
ATOM      2  O   UNL     1     -33.045  28.838   4.463  0.00  0.00    -0.353 OA
ATOM      3  O   UNL     1     -33.881  26.924   1.055  0.00  0.00    -0.450 OA
ATOM      4  O   UNL     1     -36.542  22.532   4.186  0.00  0.00    -0.444 OA
ATOM      5  O   UNL     1     -33.086  29.067   1.301  0.00  0.00    -0.250 OA
ATOM      6  O   UNL     1     -35.967  22.166   6.348  0.00  0.00    -0.245 OA
ATOM      7  C   UNL     1     -33.003  25.979   2.994  0.00  0.00    +0.059 C 
ATOM      8  C   UNL     1     -34.130  26.111   4.083  0.00  0.00    +0.024 C 
ATOM      9  C   UNL     1     -32.208  27.262   2.696  0.00  0.00    +0.120 C 
ATOM     10  C   UNL     1     -35.235  24.103   2.923  0.00  0.00    +0.175 C 
ATOM     11  C   UNL     1     -34.704  24.699   1.628  0.00  0.00    +0.187 C 
ATOM     12  C   UNL     1     -33.547  25.641   1.612  0.00  0.00    +0.199 C 
ATOM     13  C   UNL     1     -31.939  28.116   3.906  0.00  0.00    +0.152 C 
ATOM     14  C   UNL     1     -32.532  27.754   5.241  0.00  0.00    +0.143 C 
ATOM     15  C   UNL     1     -34.817  24.732   4.198  0.00  0.00    -0.008 C 
ATOM     16  C   UNL     1     -33.441  26.575   5.397  0.00  0.00    +0.036 C 
ATOM     17  C   UNL     1     -36.574  23.429   3.039  0.00  0.00    +0.225 C 
ATOM     18  C   UNL     1     -33.082  27.891   1.629  0.00  0.00    +0.318 C 
ATOM     19  C   UNL     1     -35.296  27.088   3.748  0.00  0.00    +0.004 C 
ATOM     20  C   UNL     1     -30.849  26.937   2.033  0.00  0.00    +0.014 C 
ATOM     21  C   UNL     1     -35.134  24.129   5.355  0.00  0.00    +0.076 C 
ATOM     22  C   UNL     1     -35.902  22.866   5.342  0.00  0.00    +0.341 C 
ENDROOT
BRANCH  17  23
ATOM     23  C   UNL     1     -37.008  22.596   1.840  0.00  0.00    +0.140 C 
ATOM     24  C   UNL     1     -37.338  23.524   0.661  0.00  0.00    +0.034 C 
BRANCH  23  25
ATOM     25  O   UNL     1     -35.902  21.781   1.437  0.00  0.00    -0.382 OA
ATOM     26  H   UNL     1     -35.099  22.077   1.897  0.00  0.00    +0.210 HD
ENDBRANCH  23  25
BRANCH  23  27
ATOM     27  C   UNL     1     -38.225  21.699   2.129  0.00  0.00    +0.122 C 
BRANCH  27  28
ATOM     28  S   UNL     1     -39.369  21.560   0.716  0.00  0.00    +0.045 S 
ATOM     29  O   UNL     1     -40.674  21.068   1.258  0.00  0.00    -0.256 OA
ATOM     30  C   UNL     1     -38.523  20.154  -0.045  0.00  0.00    +0.106 C 
ENDBRANCH  27  28
ENDBRANCH  23  27
ENDBRANCH  17  23
TORSDOF 4
ENDMDL
MODEL 5
REMARK VINA RESULT:      -6.1      4.770      9.158
REMARK  Name = 21628892
REMARK  4 active torsions:
REMARK  status: ('A' for Active; 'I' for Inactive)
REMARK    1  A    between atoms: C_17  and  C_23
REMARK    2  A    between atoms: C_23  and  O_25
REMARK    3  A    between atoms: C_23  and  C_27
REMARK    4  A    between atoms: C_27  and  S_28
REMARK                            x       y       z     vdW  Elec       q    Type
REMARK                         _______ _______ _______ _____ _____    ______ ____
ROOT
ATOM      1  O   UNL     1     -37.062  20.239   2.251  0.00  0.00    -0.345 OA
ATOM      2  O   UNL     1     -36.845  26.286   2.832  0.00  0.00    -0.353 OA
ATOM      3  O   UNL     1     -34.601  23.000   2.448  0.00  0.00    -0.450 OA
ATOM      4  O   UNL     1     -39.255  20.126  -0.054  0.00  0.00    -0.444 OA
ATOM      5  O   UNL     1     -33.906  25.115   3.026  0.00  0.00    -0.250 OA
ATOM      6  O   UNL     1     -41.374  20.803   0.375  0.00  0.00    -0.245 OA
ATOM      7  C   UNL     1     -36.786  23.098   3.248  0.00  0.00    +0.059 C 
ATOM      8  C   UNL     1     -37.668  23.559   2.029  0.00  0.00    +0.024 C 
ATOM      9  C   UNL     1     -35.981  24.208   3.946  0.00  0.00    +0.120 C 
ATOM     10  C   UNL     1     -37.473  21.134   1.206  0.00  0.00    +0.175 C 
ATOM     11  C   UNL     1     -36.066  21.165   1.784  0.00  0.00    +0.187 C 
ATOM     12  C   UNL     1     -35.676  22.134   2.850  0.00  0.00    +0.199 C 
ATOM     13  C   UNL     1     -36.700  25.526   4.040  0.00  0.00    +0.152 C 
ATOM     14  C   UNL     1     -38.037  25.714   3.375  0.00  0.00    +0.143 C 
ATOM     15  C   UNL     1     -38.354  22.297   1.461  0.00  0.00    -0.008 C 
ATOM     16  C   UNL     1     -38.666  24.623   2.566  0.00  0.00    +0.036 C 
ATOM     17  C   UNL     1     -37.829  20.427  -0.073  0.00  0.00    +0.225 C 
ATOM     18  C   UNL     1     -34.717  24.206   3.108  0.00  0.00    +0.318 C 
ATOM     19  C   UNL     1     -36.899  24.152   0.811  0.00  0.00    +0.004 C 
ATOM     20  C   UNL     1     -35.574  23.787   5.378  0.00  0.00    +0.014 C 
ATOM     21  C   UNL     1     -39.647  22.223   1.107  0.00  0.00    +0.076 C 
ATOM     22  C   UNL     1     -40.166  21.000   0.458  0.00  0.00    +0.341 C 
ENDROOT
BRANCH  17  23
ATOM     23  C   UNL     1     -37.105  19.112  -0.333  0.00  0.00    +0.140 C 
ATOM     24  C   UNL     1     -35.653  19.397  -0.744  0.00  0.00    +0.034 C 
BRANCH  23  25
ATOM     25  O   UNL     1     -37.059  18.377   0.894  0.00  0.00    -0.382 OA
ATOM     26  H   UNL     1     -37.657  18.787   1.540  0.00  0.00    +0.210 HD
ENDBRANCH  23  25
BRANCH  23  27
ATOM     27  C   UNL     1     -37.775  18.251  -1.419  0.00  0.00    +0.122 C 
BRANCH  27  28
ATOM     28  S   UNL     1     -38.207  16.575  -0.846  0.00  0.00    +0.045 S 
ATOM     29  O   UNL     1     -36.924  15.888  -0.500  0.00  0.00    -0.256 OA
ATOM     30  C   UNL     1     -38.733  15.975  -2.469  0.00  0.00    +0.106 C 
ENDBRANCH  27  28
ENDBRANCH  23  27
ENDBRANCH  17  23
TORSDOF 4
ENDMDL
MODEL 6
REMARK VINA RESULT:      -5.9      3.800      6.666
REMARK  Name = 21628892
REMARK  4 active torsions:
REMARK  status: ('A' for Active; 'I' for Inactive)
REMARK    1  A    between atoms: C_17  and  C_23
REMARK    2  A    between atoms: C_23  and  O_25
REMARK    3  A    between atoms: C_23  and  C_27
REMARK    4  A    between atoms: C_27  and  S_28
REMARK                            x       y       z     vdW  Elec       q    Type
REMARK                         _______ _______ _______ _____ _____    ______ ____
ROOT
ATOM      1  O   UNL     1     -37.966  21.822   2.003  0.00  0.00    -0.345 OA
ATOM      2  O   UNL     1     -33.237  18.892  -0.446  0.00  0.00    -0.353 OA
ATOM      3  O   UNL     1     -36.388  21.201  -1.290  0.00  0.00    -0.450 OA
ATOM      4  O   UNL     1     -36.383  23.257   4.362  0.00  0.00    -0.444 OA
ATOM      5  O   UNL     1     -35.075  20.024  -2.767  0.00  0.00    -0.250 OA
ATOM      6  O   UNL     1     -35.471  22.015   6.024  0.00  0.00    -0.245 OA
ATOM      7  C   UNL     1     -36.122  19.858   0.593  0.00  0.00    +0.059 C 
ATOM      8  C   UNL     1     -34.921  20.481   1.397  0.00  0.00    +0.024 C 
ATOM      9  C   UNL     1     -35.737  19.020  -0.639  0.00  0.00    +0.120 C 
ATOM     10  C   UNL     1     -36.608  22.246   2.193  0.00  0.00    +0.175 C 
ATOM     11  C   UNL     1     -37.225  22.124   0.808  0.00  0.00    +0.187 C 
ATOM     12  C   UNL     1     -37.027  20.909  -0.036  0.00  0.00    +0.199 C 
ATOM     13  C   UNL     1     -34.491  18.196  -0.460  0.00  0.00    +0.152 C 
ATOM     14  C   UNL     1     -33.667  18.323   0.793  0.00  0.00    +0.143 C 
ATOM     15  C   UNL     1     -35.527  21.301   2.557  0.00  0.00    -0.008 C 
ATOM     16  C   UNL     1     -34.028  19.299   1.869  0.00  0.00    +0.036 C 
ATOM     17  C   UNL     1     -36.493  23.547   2.938  0.00  0.00    +0.225 C 
ATOM     18  C   UNL     1     -35.664  20.100  -1.700  0.00  0.00    +0.318 C 
ATOM     19  C   UNL     1     -34.039  21.508   0.627  0.00  0.00    +0.004 C 
ATOM     20  C   UNL     1     -36.883  18.064  -1.045  0.00  0.00    +0.014 C 
ATOM     21  C   UNL     1     -35.082  21.278   3.824  0.00  0.00    +0.076 C 
ATOM     22  C   UNL     1     -35.660  22.199   4.826  0.00  0.00    +0.341 C 
ENDROOT
BRANCH  17  23
ATOM     23  C   UNL     1     -37.658  24.515   2.775  0.00  0.00    +0.140 C 
ATOM     24  C   UNL     1     -38.002  24.659   1.285  0.00  0.00    +0.034 C 
BRANCH  23  25
ATOM     25  O   UNL     1     -38.804  23.949   3.419  0.00  0.00    -0.382 OA
ATOM     26  H   UNL     1     -39.302  23.415   2.780  0.00  0.00    +0.210 HD
ENDBRANCH  23  25
BRANCH  23  27
ATOM     27  C   UNL     1     -37.379  25.910   3.363  0.00  0.00    +0.122 C 
BRANCH  27  28
ATOM     28  S   UNL     1     -35.651  26.452   3.143  0.00  0.00    +0.045 S 
ATOM     29  O   UNL     1     -35.223  27.079   4.431  0.00  0.00    -0.256 OA
ATOM     30  C   UNL     1     -36.041  27.784   1.984  0.00  0.00    +0.106 C 
ENDBRANCH  27  28
ENDBRANCH  23  27
ENDBRANCH  17  23
TORSDOF 4
ENDMDL
MODEL 7
REMARK VINA RESULT:      -5.7      2.063      2.972
REMARK  Name = 21628892
REMARK  4 active torsions:
REMARK  status: ('A' for Active; 'I' for Inactive)
REMARK    1  A    between atoms: C_17  and  C_23
REMARK    2  A    between atoms: C_23  and  O_25
REMARK    3  A    between atoms: C_23  and  C_27
REMARK    4  A    between atoms: C_27  and  S_28
REMARK                            x       y       z     vdW  Elec       q    Type
REMARK                         _______ _______ _______ _____ _____    ______ ____
ROOT
ATOM      1  O   UNL     1     -32.547  26.382   3.329  0.00  0.00    -0.345 OA
ATOM      2  O   UNL     1     -38.197  24.207   3.880  0.00  0.00    -0.353 OA
ATOM      3  O   UNL     1     -34.497  23.989   5.377  0.00  0.00    -0.450 OA
ATOM      4  O   UNL     1     -33.306  29.470   3.205  0.00  0.00    -0.444 OA
ATOM      5  O   UNL     1     -36.261  22.570   5.783  0.00  0.00    -0.250 OA
ATOM      6  O   UNL     1     -34.475  30.273   1.438  0.00  0.00    -0.245 OA
ATOM      7  C   UNL     1     -35.086  24.710   3.243  0.00  0.00    +0.059 C 
ATOM      8  C   UNL     1     -35.909  26.035   3.450  0.00  0.00    +0.024 C 
ATOM      9  C   UNL     1     -35.846  23.402   3.522  0.00  0.00    +0.120 C 
ATOM     10  C   UNL     1     -33.637  27.172   3.827  0.00  0.00    +0.175 C 
ATOM     11  C   UNL     1     -33.219  25.871   4.493  0.00  0.00    +0.187 C 
ATOM     12  C   UNL     1     -33.912  24.581   4.205  0.00  0.00    +0.199 C 
ATOM     13  C   UNL     1     -37.289  23.422   3.095  0.00  0.00    +0.152 C 
ATOM     14  C   UNL     1     -37.908  24.687   2.565  0.00  0.00    +0.143 C 
ATOM     15  C   UNL     1     -34.957  27.214   3.154  0.00  0.00    -0.008 C 
ATOM     16  C   UNL     1     -37.132  25.965   2.493  0.00  0.00    +0.036 C 
ATOM     17  C   UNL     1     -33.210  28.529   4.314  0.00  0.00    +0.225 C 
ATOM     18  C   UNL     1     -35.603  23.249   5.011  0.00  0.00    +0.318 C 
ATOM     19  C   UNL     1     -36.413  26.310   4.898  0.00  0.00    +0.004 C 
ATOM     20  C   UNL     1     -35.163  22.199   2.827  0.00  0.00    +0.014 C 
ATOM     21  C   UNL     1     -35.277  28.291   2.418  0.00  0.00    +0.076 C 
ATOM     22  C   UNL     1     -34.326  29.417   2.304  0.00  0.00    +0.341 C 
ENDROOT
BRANCH  17  23
ATOM     23  C   UNL     1     -31.789  28.628   4.854  0.00  0.00    +0.140 C 
ATOM     24  C   UNL     1     -31.744  28.075   6.287  0.00  0.00    +0.034 C 
BRANCH  23  25
ATOM     25  O   UNL     1     -30.948  27.792   4.053  0.00  0.00    -0.382 OA
ATOM     26  H   UNL     1     -30.345  27.294   4.630  0.00  0.00    +0.210 HD
ENDBRANCH  23  25
BRANCH  23  27
ATOM     27  C   UNL     1     -31.234  30.064   4.852  0.00  0.00    +0.122 C 
BRANCH  27  28
ATOM     28  S   UNL     1     -29.466  30.152   4.413  0.00  0.00    +0.045 S 
ATOM     29  O   UNL     1     -28.857  31.217   5.268  0.00  0.00    -0.256 OA
ATOM     30  C   UNL     1     -29.738  30.853   2.769  0.00  0.00    +0.106 C 
ENDBRANCH  27  28
ENDBRANCH  23  27
ENDBRANCH  17  23
TORSDOF 4
ENDMDL
MODEL 8
REMARK VINA RESULT:      -5.7      2.866      5.869
REMARK  Name = 21628892
REMARK  4 active torsions:
REMARK  status: ('A' for Active; 'I' for Inactive)
REMARK    1  A    between atoms: C_17  and  C_23
REMARK    2  A    between atoms: C_23  and  O_25
REMARK    3  A    between atoms: C_23  and  C_27
REMARK    4  A    between atoms: C_27  and  S_28
REMARK                            x       y       z     vdW  Elec       q    Type
REMARK                         _______ _______ _______ _____ _____    ______ ____
ROOT
ATOM      1  O   UNL     1     -35.570  24.619   1.505  0.00  0.00    -0.345 OA
ATOM      2  O   UNL     1     -36.624  18.826  -0.009  0.00  0.00    -0.353 OA
ATOM      3  O   UNL     1     -33.739  21.495   0.724  0.00  0.00    -0.450 OA
ATOM      4  O   UNL     1     -37.612  24.785   3.940  0.00  0.00    -0.444 OA
ATOM      5  O   UNL     1     -33.514  19.408  -0.216  0.00  0.00    -0.250 OA
ATOM      6  O   UNL     1     -39.840  24.621   3.555  0.00  0.00    -0.245 OA
ATOM      7  C   UNL     1     -35.923  21.963   0.065  0.00  0.00    +0.059 C 
ATOM      8  C   UNL     1     -36.839  21.494   1.256  0.00  0.00    +0.024 C 
ATOM      9  C   UNL     1     -35.388  20.846  -0.846  0.00  0.00    +0.120 C 
ATOM     10  C   UNL     1     -36.120  23.664   2.426  0.00  0.00    +0.175 C 
ATOM     11  C   UNL     1     -34.771  23.450   1.757  0.00  0.00    +0.187 C 
ATOM     12  C   UNL     1     -34.626  22.611   0.532  0.00  0.00    +0.199 C 
ATOM     13  C   UNL     1     -36.367  19.729  -1.093  0.00  0.00    +0.152 C 
ATOM     14  C   UNL     1     -37.690  19.704  -0.377  0.00  0.00    +0.143 C 
ATOM     15  C   UNL     1     -37.231  22.756   2.054  0.00  0.00    -0.008 C 
ATOM     16  C   UNL     1     -38.052  20.751   0.630  0.00  0.00    +0.036 C 
ATOM     17  C   UNL     1     -36.279  24.209   3.818  0.00  0.00    +0.225 C 
ATOM     18  C   UNL     1     -34.124  20.460  -0.104  0.00  0.00    +0.318 C 
ATOM     19  C   UNL     1     -36.168  20.569   2.314  0.00  0.00    +0.004 C 
ATOM     20  C   UNL     1     -34.952  21.406  -2.221  0.00  0.00    +0.014 C 
ATOM     21  C   UNL     1     -38.468  23.026   2.501  0.00  0.00    +0.076 C 
ATOM     22  C   UNL     1     -38.701  24.205   3.362  0.00  0.00    +0.341 C 
ENDROOT
BRANCH  17  23
ATOM     23  C   UNL     1     -35.292  25.294   4.227  0.00  0.00    +0.140 C 
ATOM     24  C   UNL     1     -35.344  25.488   5.751  0.00  0.00    +0.034 C 
BRANCH  23  25
ATOM     25  O   UNL     1     -33.972  24.843   3.905  0.00  0.00    -0.382 OA
ATOM     26  H   UNL     1     -33.450  25.588   3.567  0.00  0.00    +0.210 HD
ENDBRANCH  23  25
BRANCH  23  27
ATOM     27  C   UNL     1     -35.552  26.647   3.540  0.00  0.00    +0.122 C 
BRANCH  27  28
ATOM     28  S   UNL     1     -34.023  27.557   3.141  0.00  0.00    +0.045 S 
ATOM     29  O   UNL     1     -33.352  27.874   4.439  0.00  0.00    -0.256 OA
ATOM     30  C   UNL     1     -34.865  29.055   2.576  0.00  0.00    +0.106 C 
ENDBRANCH  27  28
ENDBRANCH  23  27
ENDBRANCH  17  23
TORSDOF 4
ENDMDL
MODEL 9
REMARK VINA RESULT:      -5.7     12.983     15.272
REMARK  Name = 21628892
REMARK  4 active torsions:
REMARK  status: ('A' for Active; 'I' for Inactive)
REMARK    1  A    between atoms: C_17  and  C_23
REMARK    2  A    between atoms: C_23  and  O_25
REMARK    3  A    between atoms: C_23  and  C_27
REMARK    4  A    between atoms: C_27  and  S_28
REMARK                            x       y       z     vdW  Elec       q    Type
REMARK                         _______ _______ _______ _____ _____    ______ ____
ROOT
ATOM      1  O   UNL     1     -30.535  40.688   3.482  0.00  0.00    -0.345 OA
ATOM      2  O   UNL     1     -34.728  40.671  -0.920  0.00  0.00    -0.353 OA
ATOM      3  O   UNL     1     -32.473  38.319   1.395  0.00  0.00    -0.450 OA
ATOM      4  O   UNL     1     -31.977  42.765   5.415  0.00  0.00    -0.444 OA
ATOM      5  O   UNL     1     -33.688  37.712  -0.461  0.00  0.00    -0.250 OA
ATOM      6  O   UNL     1     -32.228  44.921   4.764  0.00  0.00    -0.245 OA
ATOM      7  C   UNL     1     -32.044  40.541   0.845  0.00  0.00    +0.059 C 
ATOM      8  C   UNL     1     -33.198  41.377   1.513  0.00  0.00    +0.024 C 
ATOM      9  C   UNL     1     -32.420  39.802  -0.450  0.00  0.00    +0.120 C 
ATOM     10  C   UNL     1     -31.900  41.074   3.709  0.00  0.00    +0.175 C 
ATOM     11  C   UNL     1     -31.533  39.698   3.175  0.00  0.00    +0.187 C 
ATOM     12  C   UNL     1     -31.565  39.387   1.716  0.00  0.00    +0.199 C 
ATOM     13  C   UNL     1     -33.363  40.562  -1.344  0.00  0.00    +0.152 C 
ATOM     14  C   UNL     1     -33.951  41.871  -0.891  0.00  0.00    +0.143 C 
ATOM     15  C   UNL     1     -32.621  42.000   2.804  0.00  0.00    -0.008 C 
ATOM     16  C   UNL     1     -33.661  42.429   0.467  0.00  0.00    +0.036 C 
ATOM     17  C   UNL     1     -32.204  41.349   5.155  0.00  0.00    +0.225 C 
ATOM     18  C   UNL     1     -32.955  38.501   0.115  0.00  0.00    +0.318 C 
ATOM     19  C   UNL     1     -34.435  40.569   2.003  0.00  0.00    +0.004 C 
ATOM     20  C   UNL     1     -31.161  39.451  -1.279  0.00  0.00    +0.014 C 
ATOM     21  C   UNL     1     -32.808  43.272   3.190  0.00  0.00    +0.076 C 
ATOM     22  C   UNL     1     -32.312  43.725   4.507  0.00  0.00    +0.341 C 
ENDROOT
BRANCH  17  23
ATOM     23  C   UNL     1     -31.372  40.577   6.171  0.00  0.00    +0.140 C 
ATOM     24  C   UNL     1     -32.059  40.631   7.545  0.00  0.00    +0.034 C 
BRANCH  23  25
ATOM     25  O   UNL     1     -31.339  39.204   5.771  0.00  0.00    -0.382 OA
ATOM     26  H   UNL     1     -32.096  39.017   5.192  0.00  0.00    +0.210 HD
ENDBRANCH  23  25
BRANCH  23  27
ATOM     27  C   UNL     1     -29.933  41.105   6.309  0.00  0.00    +0.122 C 
BRANCH  27  28
ATOM     28  S   UNL     1     -28.676  39.784   6.273  0.00  0.00    +0.045 S 
ATOM     29  O   UNL     1     -29.120  38.732   7.238  0.00  0.00    -0.256 OA
ATOM     30  C   UNL     1     -27.386  40.762   7.080  0.00  0.00    +0.106 C 
ENDBRANCH  27  28
ENDBRANCH  23  27
ENDBRANCH  17  23
TORSDOF 4
ENDMDL
