MODEL 1
REMARK VINA RESULT:      -6.8      0.000      0.000
REMARK  Name = 54738532
REMARK  7 active torsions:
REMARK  status: ('A' for Active; 'I' for Inactive)
REMARK    1  A    between atoms: C_1  and  C_13
REMARK    2  A    between atoms: C_1  and  C_19
REMARK    3  A    between atoms: C_7  and  C_16
REMARK    4  A    between atoms: C_16  and  O_17
REMARK    5  A    between atoms: C_20  and  C_22
REMARK    6  A    between atoms: C_23  and  C_27
REMARK    7  A    between atoms: C_27  and  O_33
REMARK                            x       y       z     vdW  Elec       q    Type
REMARK                         _______ _______ _______ _____ _____    ______ ____
ROOT
ATOM      1  C   UNL     1     -38.936  24.517   2.277  0.00  0.00    +0.049 C 
ATOM      2  C   UNL     1     -40.055  24.869   3.259  0.00  0.00    +0.007 C 
ENDROOT
BRANCH   1  13
ATOM      3  O   UNL     1     -36.240  24.340   5.614  0.00  0.00    -0.341 OA
ATOM      4  O   UNL     1     -34.860  23.797   2.660  0.00  0.00    -0.327 OA
ATOM      5  O   UNL     1     -37.143  23.239   3.156  0.00  0.00    -0.334 OA
ATOM      6  O   UNL     1     -34.733  26.924   4.369  0.00  0.00    -0.291 OA
ATOM      7  C   UNL     1     -35.447  23.361   4.940  0.00  0.00    +0.198 C 
ATOM      8  C   UNL     1     -34.924  24.745   5.224  0.00  0.00    +0.206 C 
ATOM      9  C   UNL     1     -35.760  23.057   3.497  0.00  0.00    +0.215 C 
ATOM     10  C   UNL     1     -35.133  25.191   2.715  0.00  0.00    +0.179 C 
ATOM     11  C   UNL     1     -36.549  25.415   2.166  0.00  0.00    +0.062 C 
ATOM     12  C   UNL     1     -34.905  25.735   4.125  0.00  0.00    +0.207 C 
ATOM     13  C   UNL     1     -37.576  24.591   2.969  0.00  0.00    +0.124 C 
ATOM     14  C   UNL     1     -35.468  21.581   3.214  0.00  0.00    +0.064 C 
ATOM     15  C   UNL     1     -36.915  26.896   2.078  0.00  0.00    +0.005 C 
BRANCH   7  16
ATOM     16  C   UNL     1     -35.034  22.260   5.855  0.00  0.00    +0.172 C 
BRANCH  16  17
ATOM     17  O   UNL     1     -36.171  21.770   6.552  0.00  0.00    -0.379 OA
ATOM     18  H   UNL     1     -36.268  20.820   6.382  0.00  0.00    +0.211 HD
ENDBRANCH  16  17
ENDBRANCH   7  16
ENDBRANCH   1  13
BRANCH   1  19
ATOM     19  C   UNL     1     -39.159  23.128   1.721  0.00  0.00    -0.028 C 
ATOM     20  C   UNL     1     -39.164  22.724   0.432  0.00  0.00    -0.026 C 
ATOM     21  C   UNL     1     -38.924  23.638  -0.741  0.00  0.00    +0.031 C 
BRANCH  20  22
ATOM     22  C   UNL     1     -39.415  21.307   0.146  0.00  0.00    -0.001 C 
ATOM     23  C   UNL     1     -38.583  20.455  -0.479  0.00  0.00    +0.037 C 
BRANCH  23  27
ATOM     24  O   UNL     1     -39.175  16.138  -1.221  0.00  0.00    -0.289 OA
ATOM     25  O   UNL     1     -36.069  19.354   0.268  0.00  0.00    -0.270 OA
ATOM     26  N   UNL     1     -36.036  17.014  -0.011  0.00  0.00    -0.294 N 
ATOM     27  C   UNL     1     -38.860  19.055  -0.750  0.00  0.00    +0.141 C 
ATOM     28  C   UNL     1     -37.950  18.092  -0.549  0.00  0.00    +0.123 C 
ATOM     29  C   UNL     1     -38.151  16.649  -0.799  0.00  0.00    +0.200 C 
ATOM     30  C   UNL     1     -36.582  18.296  -0.044  0.00  0.00    +0.252 C 
ATOM     31  C   UNL     1     -36.887  15.914  -0.445  0.00  0.00    +0.160 C 
ATOM     32  H   UNL     1     -35.113  16.859   0.294  0.00  0.00    +0.150 HD
BRANCH  27  33
ATOM     33  O   UNL     1     -40.124  18.771  -1.228  0.00  0.00    -0.505 OA
ATOM     34  H   UNL     1     -40.854  19.297  -0.963  0.00  0.00    +0.292 HD
ENDBRANCH  27  33
ENDBRANCH  23  27
ENDBRANCH  20  22
ENDBRANCH   1  19
TORSDOF 7
ENDMDL
MODEL 2
REMARK VINA RESULT:      -6.5      3.673      5.525
REMARK  Name = 54738532
REMARK  7 active torsions:
REMARK  status: ('A' for Active; 'I' for Inactive)
REMARK    1  A    between atoms: C_1  and  C_13
REMARK    2  A    between atoms: C_1  and  C_19
REMARK    3  A    between atoms: C_7  and  C_16
REMARK    4  A    between atoms: C_16  and  O_17
REMARK    5  A    between atoms: C_20  and  C_22
REMARK    6  A    between atoms: C_23  and  C_27
REMARK    7  A    between atoms: C_27  and  O_33
REMARK                            x       y       z     vdW  Elec       q    Type
REMARK                         _______ _______ _______ _____ _____    ______ ____
ROOT
ATOM      1  C   UNL     1     -34.478  23.114   0.610  0.00  0.00    +0.049 C 
ATOM      2  C   UNL     1     -35.694  23.003  -0.313  0.00  0.00    +0.007 C 
ENDROOT
BRANCH   1  13
ATOM      3  O   UNL     1     -34.198  24.096   4.781  0.00  0.00    -0.341 OA
ATOM      4  O   UNL     1     -37.228  23.307   3.721  0.00  0.00    -0.327 OA
ATOM      5  O   UNL     1     -35.581  24.342   2.312  0.00  0.00    -0.334 OA
ATOM      6  O   UNL     1     -35.065  21.041   5.426  0.00  0.00    -0.291 OA
ATOM      7  C   UNL     1     -35.523  24.630   4.759  0.00  0.00    +0.198 C 
ATOM      8  C   UNL     1     -35.184  23.385   5.536  0.00  0.00    +0.206 C 
ATOM      9  C   UNL     1     -36.355  24.427   3.518  0.00  0.00    +0.215 C 
ATOM     10  C   UNL     1     -36.499  22.087   3.768  0.00  0.00    +0.179 C 
ATOM     11  C   UNL     1     -35.821  21.892   2.404  0.00  0.00    +0.062 C 
ATOM     12  C   UNL     1     -35.542  22.070   4.960  0.00  0.00    +0.207 C 
ATOM     13  C   UNL     1     -34.916  23.096   2.073  0.00  0.00    +0.124 C 
ATOM     14  C   UNL     1     -37.275  25.636   3.320  0.00  0.00    +0.064 C 
ATOM     15  C   UNL     1     -35.090  20.553   2.300  0.00  0.00    +0.005 C 
BRANCH   7  16
ATOM     16  C   UNL     1     -35.614  25.914   5.508  0.00  0.00    +0.172 C 
BRANCH  16  17
ATOM     17  O   UNL     1     -34.465  26.704   5.235  0.00  0.00    -0.379 OA
ATOM     18  H   UNL     1     -34.615  27.226   4.431  0.00  0.00    +0.211 HD
ENDBRANCH  16  17
ENDBRANCH   7  16
ENDBRANCH   1  13
BRANCH   1  19
ATOM     19  C   UNL     1     -33.524  21.971   0.340  0.00  0.00    -0.028 C 
ATOM     20  C   UNL     1     -32.388  21.972  -0.390  0.00  0.00    -0.026 C 
ATOM     21  C   UNL     1     -31.838  23.185  -1.094  0.00  0.00    +0.031 C 
BRANCH  20  22
ATOM     22  C   UNL     1     -31.633  20.720  -0.509  0.00  0.00    -0.001 C 
ATOM     23  C   UNL     1     -31.677  19.674   0.336  0.00  0.00    +0.037 C 
BRANCH  23  27
ATOM     24  O   UNL     1     -29.593  15.802  -0.112  0.00  0.00    -0.289 OA
ATOM     25  O   UNL     1     -33.837  17.834   0.153  0.00  0.00    -0.270 OA
ATOM     26  N   UNL     1     -33.065  15.621  -0.098  0.00  0.00    -0.294 N 
ATOM     27  C   UNL     1     -30.915  18.446   0.193  0.00  0.00    +0.141 C 
ATOM     28  C   UNL     1     -31.503  17.248   0.066  0.00  0.00    +0.123 C 
ATOM     29  C   UNL     1     -30.803  15.955  -0.083  0.00  0.00    +0.200 C 
ATOM     30  C   UNL     1     -32.955  17.002   0.053  0.00  0.00    +0.252 C 
ATOM     31  C   UNL     1     -31.827  14.858  -0.195  0.00  0.00    +0.160 C 
ATOM     32  H   UNL     1     -33.944  15.179  -0.138  0.00  0.00    +0.150 HD
BRANCH  27  33
ATOM     33  O   UNL     1     -29.541  18.584   0.194  0.00  0.00    -0.505 OA
ATOM     34  H   UNL     1     -29.117  19.049   0.889  0.00  0.00    +0.292 HD
ENDBRANCH  27  33
ENDBRANCH  23  27
ENDBRANCH  20  22
ENDBRANCH   1  19
TORSDOF 7
ENDMDL
MODEL 3
REMARK VINA RESULT:      -6.5      4.817      8.018
REMARK  Name = 54738532
REMARK  7 active torsions:
REMARK  status: ('A' for Active; 'I' for Inactive)
REMARK    1  A    between atoms: C_1  and  C_13
REMARK    2  A    between atoms: C_1  and  C_19
REMARK    3  A    between atoms: C_7  and  C_16
REMARK    4  A    between atoms: C_16  and  O_17
REMARK    5  A    between atoms: C_20  and  C_22
REMARK    6  A    between atoms: C_23  and  C_27
REMARK    7  A    between atoms: C_27  and  O_33
REMARK                            x       y       z     vdW  Elec       q    Type
REMARK                         _______ _______ _______ _____ _____    ______ ____
ROOT
ATOM      1  C   UNL     1     -38.947  24.292   2.179  0.00  0.00    +0.049 C 
ATOM      2  C   UNL     1     -38.738  24.298   0.663  0.00  0.00    +0.007 C 
ENDROOT
BRANCH   1  13
ATOM      3  O   UNL     1     -36.323  24.212   5.577  0.00  0.00    -0.341 OA
ATOM      4  O   UNL     1     -34.855  23.739   2.653  0.00  0.00    -0.327 OA
ATOM      5  O   UNL     1     -37.124  23.086   3.095  0.00  0.00    -0.334 OA
ATOM      6  O   UNL     1     -34.896  26.862   4.376  0.00  0.00    -0.291 OA
ATOM      7  C   UNL     1     -35.475  23.269   4.918  0.00  0.00    +0.198 C 
ATOM      8  C   UNL     1     -35.016  24.672   5.218  0.00  0.00    +0.206 C 
ATOM      9  C   UNL     1     -35.743  22.959   3.467  0.00  0.00    +0.215 C 
ATOM     10  C   UNL     1     -35.186  25.121   2.707  0.00  0.00    +0.179 C 
ATOM     11  C   UNL     1     -36.597  25.289   2.126  0.00  0.00    +0.062 C 
ATOM     12  C   UNL     1     -35.013  25.668   4.124  0.00  0.00    +0.207 C 
ATOM     13  C   UNL     1     -37.608  24.420   2.902  0.00  0.00    +0.124 C 
ATOM     14  C   UNL     1     -35.383  21.497   3.185  0.00  0.00    +0.064 C 
ATOM     15  C   UNL     1     -37.022  26.754   2.035  0.00  0.00    +0.005 C 
BRANCH   7  16
ATOM     16  C   UNL     1     -35.038  22.183   5.838  0.00  0.00    +0.172 C 
BRANCH  16  17
ATOM     17  O   UNL     1     -36.163  21.678   6.545  0.00  0.00    -0.379 OA
ATOM     18  H   UNL     1     -35.920  21.530   7.472  0.00  0.00    +0.211 HD
ENDBRANCH  16  17
ENDBRANCH   7  16
ENDBRANCH   1  13
BRANCH   1  19
ATOM     19  C   UNL     1     -39.861  25.431   2.575  0.00  0.00    -0.028 C 
ATOM     20  C   UNL     1     -41.119  25.691   2.157  0.00  0.00    -0.026 C 
ATOM     21  C   UNL     1     -41.877  24.835   1.175  0.00  0.00    +0.031 C 
BRANCH  20  22
ATOM     22  C   UNL     1     -41.800  26.876   2.689  0.00  0.00    -0.001 C 
ATOM     23  C   UNL     1     -42.376  26.995   3.899  0.00  0.00    +0.037 C 
BRANCH  23  27
ATOM     24  O   UNL     1     -44.651  30.484   5.377  0.00  0.00    -0.289 OA
ATOM     25  O   UNL     1     -45.071  26.120   3.650  0.00  0.00    -0.270 OA
ATOM     26  N   UNL     1     -46.585  27.778   4.367  0.00  0.00    -0.294 N 
ATOM     27  C   UNL     1     -43.046  28.183   4.398  0.00  0.00    +0.141 C 
ATOM     28  C   UNL     1     -44.381  28.272   4.483  0.00  0.00    +0.123 C 
ATOM     29  C   UNL     1     -45.138  29.441   4.977  0.00  0.00    +0.200 C 
ATOM     30  C   UNL     1     -45.337  27.220   4.098  0.00  0.00    +0.252 C 
ATOM     31  C   UNL     1     -46.609  29.131   4.908  0.00  0.00    +0.160 C 
ATOM     32  H   UNL     1     -47.416  27.279   4.198  0.00  0.00    +0.150 HD
BRANCH  27  33
ATOM     33  O   UNL     1     -42.223  29.223   4.783  0.00  0.00    -0.505 OA
ATOM     34  H   UNL     1     -41.860  29.238   5.648  0.00  0.00    +0.292 HD
ENDBRANCH  27  33
ENDBRANCH  23  27
ENDBRANCH  20  22
ENDBRANCH   1  19
TORSDOF 7
ENDMDL
MODEL 4
REMARK VINA RESULT:      -6.4      3.782      8.895
REMARK  Name = 54738532
REMARK  7 active torsions:
REMARK  status: ('A' for Active; 'I' for Inactive)
REMARK    1  A    between atoms: C_1  and  C_13
REMARK    2  A    between atoms: C_1  and  C_19
REMARK    3  A    between atoms: C_7  and  C_16
REMARK    4  A    between atoms: C_16  and  O_17
REMARK    5  A    between atoms: C_20  and  C_22
REMARK    6  A    between atoms: C_23  and  C_27
REMARK    7  A    between atoms: C_27  and  O_33
REMARK                            x       y       z     vdW  Elec       q    Type
REMARK                         _______ _______ _______ _____ _____    ______ ____
ROOT
ATOM      1  C   UNL     1     -35.411  22.903   3.504  0.00  0.00    +0.049 C 
ATOM      2  C   UNL     1     -35.584  22.436   4.951  0.00  0.00    +0.007 C 
ENDROOT
BRANCH   1  13
ATOM      3  O   UNL     1     -39.570  23.956   3.306  0.00  0.00    -0.341 OA
ATOM      4  O   UNL     1     -37.981  23.946   0.408  0.00  0.00    -0.327 OA
ATOM      5  O   UNL     1     -36.894  24.450   2.490  0.00  0.00    -0.334 OA
ATOM      6  O   UNL     1     -40.035  21.267   1.558  0.00  0.00    -0.291 OA
ATOM      7  C   UNL     1     -39.313  24.817   2.196  0.00  0.00    +0.198 C 
ATOM      8  C   UNL     1     -40.132  23.561   2.050  0.00  0.00    +0.206 C 
ATOM      9  C   UNL     1     -37.942  24.787   1.569  0.00  0.00    +0.215 C 
ATOM     10  C   UNL     1     -38.151  22.580   0.766  0.00  0.00    +0.179 C 
ATOM     11  C   UNL     1     -36.930  22.155   1.593  0.00  0.00    +0.062 C 
ATOM     12  C   UNL     1     -39.495  22.364   1.461  0.00  0.00    +0.207 C 
ATOM     13  C   UNL     1     -36.772  23.064   2.829  0.00  0.00    +0.124 C 
ATOM     14  C   UNL     1     -37.589  26.186   1.053  0.00  0.00    +0.064 C 
ATOM     15  C   UNL     1     -36.952  20.669   1.948  0.00  0.00    +0.005 C 
BRANCH   7  16
ATOM     16  C   UNL     1     -40.041  26.111   2.322  0.00  0.00    +0.172 C 
BRANCH  16  17
ATOM     17  O   UNL     1     -39.913  26.600   3.650  0.00  0.00    -0.379 OA
ATOM     18  H   UNL     1     -40.219  27.519   3.686  0.00  0.00    +0.211 HD
ENDBRANCH  16  17
ENDBRANCH   7  16
ENDBRANCH   1  13
BRANCH   1  19
ATOM     19  C   UNL     1     -34.660  24.215   3.475  0.00  0.00    -0.028 C 
ATOM     20  C   UNL     1     -33.969  24.772   2.456  0.00  0.00    -0.026 C 
ATOM     21  C   UNL     1     -33.829  24.150   1.091  0.00  0.00    +0.031 C 
BRANCH  20  22
ATOM     22  C   UNL     1     -33.314  26.065   2.682  0.00  0.00    -0.001 C 
ATOM     23  C   UNL     1     -33.775  27.077   3.438  0.00  0.00    +0.037 C 
BRANCH  23  27
ATOM     24  O   UNL     1     -31.666  30.863   4.307  0.00  0.00    -0.289 OA
ATOM     25  O   UNL     1     -32.873  26.677   6.105  0.00  0.00    -0.270 OA
ATOM     26  N   UNL     1     -31.681  28.549   6.902  0.00  0.00    -0.294 N 
ATOM     27  C   UNL     1     -33.103  28.349   3.642  0.00  0.00    +0.141 C 
ATOM     28  C   UNL     1     -32.490  28.659   4.793  0.00  0.00    +0.123 C 
ATOM     29  C   UNL     1     -31.785  29.927   5.080  0.00  0.00    +0.200 C 
ATOM     30  C   UNL     1     -32.406  27.794   5.981  0.00  0.00    +0.252 C 
ATOM     31  C   UNL     1     -31.239  29.872   6.481  0.00  0.00    +0.160 C 
ATOM     32  H   UNL     1     -31.477  28.202   7.800  0.00  0.00    +0.150 HD
BRANCH  27  33
ATOM     33  O   UNL     1     -33.131  29.224   2.575  0.00  0.00    -0.505 OA
ATOM     34  H   UNL     1     -33.124  28.894   1.697  0.00  0.00    +0.292 HD
ENDBRANCH  27  33
ENDBRANCH  23  27
ENDBRANCH  20  22
ENDBRANCH   1  19
TORSDOF 7
ENDMDL
MODEL 5
REMARK VINA RESULT:      -6.3      5.377     10.289
REMARK  Name = 54738532
REMARK  7 active torsions:
REMARK  status: ('A' for Active; 'I' for Inactive)
REMARK    1  A    between atoms: C_1  and  C_13
REMARK    2  A    between atoms: C_1  and  C_19
REMARK    3  A    between atoms: C_7  and  C_16
REMARK    4  A    between atoms: C_16  and  O_17
REMARK    5  A    between atoms: C_20  and  C_22
REMARK    6  A    between atoms: C_23  and  C_27
REMARK    7  A    between atoms: C_27  and  O_33
REMARK                            x       y       z     vdW  Elec       q    Type
REMARK                         _______ _______ _______ _____ _____    ______ ____
ROOT
ATOM      1  C   UNL     1     -34.384  26.756   2.212  0.00  0.00    +0.049 C 
ATOM      2  C   UNL     1     -33.607  26.368   0.952  0.00  0.00    +0.007 C 
ENDROOT
BRANCH   1  13
ATOM      3  O   UNL     1     -35.901  22.741   2.345  0.00  0.00    -0.341 OA
ATOM      4  O   UNL     1     -37.010  24.744   4.729  0.00  0.00    -0.327 OA
ATOM      5  O   UNL     1     -34.842  24.988   3.724  0.00  0.00    -0.334 OA
ATOM      6  O   UNL     1     -38.843  23.971   1.770  0.00  0.00    -0.291 OA
ATOM      7  C   UNL     1     -35.985  22.805   3.770  0.00  0.00    +0.198 C 
ATOM      8  C   UNL     1     -37.217  22.716   2.908  0.00  0.00    +0.206 C 
ATOM      9  C   UNL     1     -35.745  24.133   4.442  0.00  0.00    +0.215 C 
ATOM     10  C   UNL     1     -37.668  25.153   3.537  0.00  0.00    +0.179 C 
ATOM     11  C   UNL     1     -36.794  26.217   2.859  0.00  0.00    +0.062 C 
ATOM     12  C   UNL     1     -37.998  23.947   2.657  0.00  0.00    +0.207 C 
ATOM     13  C   UNL     1     -35.383  25.660   2.581  0.00  0.00    +0.124 C 
ATOM     14  C   UNL     1     -35.080  23.900   5.803  0.00  0.00    +0.064 C 
ATOM     15  C   UNL     1     -37.453  26.810   1.613  0.00  0.00    +0.005 C 
BRANCH   7  16
ATOM     16  C   UNL     1     -35.491  21.553   4.409  0.00  0.00    +0.172 C 
BRANCH  16  17
ATOM     17  O   UNL     1     -35.495  20.500   3.454  0.00  0.00    -0.379 OA
ATOM     18  H   UNL     1     -34.817  20.671   2.782  0.00  0.00    +0.211 HD
ENDBRANCH  16  17
ENDBRANCH   7  16
ENDBRANCH   1  13
BRANCH   1  19
ATOM     19  C   UNL     1     -33.422  26.986   3.357  0.00  0.00    -0.028 C 
ATOM     20  C   UNL     1     -32.941  28.155   3.835  0.00  0.00    -0.026 C 
ATOM     21  C   UNL     1     -33.310  29.508   3.285  0.00  0.00    +0.031 C 
BRANCH  20  22
ATOM     22  C   UNL     1     -32.004  28.114   4.962  0.00  0.00    -0.001 C 
ATOM     23  C   UNL     1     -30.743  28.584   4.975  0.00  0.00    +0.037 C 
BRANCH  23  27
ATOM     24  O   UNL     1     -27.883  28.652   8.344  0.00  0.00    -0.289 OA
ATOM     25  O   UNL     1     -29.361  31.034   4.556  0.00  0.00    -0.270 OA
ATOM     26  N   UNL     1     -27.723  31.393   6.212  0.00  0.00    -0.294 N 
ATOM     27  C   UNL     1     -29.836  28.528   6.109  0.00  0.00    +0.141 C 
ATOM     28  C   UNL     1     -28.942  29.495   6.360  0.00  0.00    +0.123 C 
ATOM     29  C   UNL     1     -27.987  29.514   7.488  0.00  0.00    +0.200 C 
ATOM     30  C   UNL     1     -28.749  30.715   5.559  0.00  0.00    +0.252 C 
ATOM     31  C   UNL     1     -27.166  30.772   7.407  0.00  0.00    +0.160 C 
ATOM     32  H   UNL     1     -27.387  32.257   5.881  0.00  0.00    +0.150 HD
BRANCH  27  33
ATOM     33  O   UNL     1     -29.950  27.415   6.918  0.00  0.00    -0.505 OA
ATOM     34  H   UNL     1     -30.779  26.989   7.016  0.00  0.00    +0.292 HD
ENDBRANCH  27  33
ENDBRANCH  23  27
ENDBRANCH  20  22
ENDBRANCH   1  19
TORSDOF 7
ENDMDL
MODEL 6
REMARK VINA RESULT:      -6.3      4.867      9.826
REMARK  Name = 54738532
REMARK  7 active torsions:
REMARK  status: ('A' for Active; 'I' for Inactive)
REMARK    1  A    between atoms: C_1  and  C_13
REMARK    2  A    between atoms: C_1  and  C_19
REMARK    3  A    between atoms: C_7  and  C_16
REMARK    4  A    between atoms: C_16  and  O_17
REMARK    5  A    between atoms: C_20  and  C_22
REMARK    6  A    between atoms: C_23  and  C_27
REMARK    7  A    between atoms: C_27  and  O_33
REMARK                            x       y       z     vdW  Elec       q    Type
REMARK                         _______ _______ _______ _____ _____    ______ ____
ROOT
ATOM      1  C   UNL     1     -33.616  26.633   1.846  0.00  0.00    +0.049 C 
ATOM      2  C   UNL     1     -32.618  25.837   1.002  0.00  0.00    +0.007 C 
ENDROOT
BRANCH   1  13
ATOM      3  O   UNL     1     -35.318  22.858   2.980  0.00  0.00    -0.341 OA
ATOM      4  O   UNL     1     -36.554  25.489   4.554  0.00  0.00    -0.327 OA
ATOM      5  O   UNL     1     -34.293  25.393   3.750  0.00  0.00    -0.334 OA
ATOM      6  O   UNL     1     -38.135  23.911   1.773  0.00  0.00    -0.291 OA
ATOM      7  C   UNL     1     -35.533  23.338   4.309  0.00  0.00    +0.198 C 
ATOM      8  C   UNL     1     -36.681  23.019   3.388  0.00  0.00    +0.206 C 
ATOM      9  C   UNL     1     -35.296  24.800   4.588  0.00  0.00    +0.215 C 
ATOM     10  C   UNL     1     -37.079  25.540   3.233  0.00  0.00    +0.179 C 
ATOM     11  C   UNL     1     -36.098  26.345   2.369  0.00  0.00    +0.062 C 
ATOM     12  C   UNL     1     -37.378  24.135   2.712  0.00  0.00    +0.207 C 
ATOM     13  C   UNL     1     -34.693  25.710   2.411  0.00  0.00    +0.124 C 
ATOM     14  C   UNL     1     -34.774  24.966   6.018  0.00  0.00    +0.064 C 
ATOM     15  C   UNL     1     -36.610  26.557   0.945  0.00  0.00    +0.005 C 
BRANCH   7  16
ATOM     16  C   UNL     1     -35.157  22.320   5.330  0.00  0.00    +0.172 C 
BRANCH  16  17
ATOM     17  O   UNL     1     -36.254  22.101   6.208  0.00  0.00    -0.379 OA
ATOM     18  H   UNL     1     -36.613  22.956   6.494  0.00  0.00    +0.211 HD
ENDBRANCH  16  17
ENDBRANCH   7  16
ENDBRANCH   1  13
BRANCH   1  19
ATOM     19  C   UNL     1     -32.890  27.334   2.973  0.00  0.00    -0.028 C 
ATOM     20  C   UNL     1     -33.074  28.584   3.449  0.00  0.00    -0.026 C 
ATOM     21  C   UNL     1     -34.101  29.549   2.915  0.00  0.00    +0.031 C 
BRANCH  20  22
ATOM     22  C   UNL     1     -32.228  29.040   4.558  0.00  0.00    -0.001 C 
ATOM     23  C   UNL     1     -31.394  28.284   5.294  0.00  0.00    +0.037 C 
BRANCH  23  27
ATOM     24  O   UNL     1     -28.669  29.637   8.501  0.00  0.00    -0.289 OA
ATOM     25  O   UNL     1     -28.871  27.320   4.402  0.00  0.00    -0.270 OA
ATOM     26  N   UNL     1     -27.152  27.879   5.914  0.00  0.00    -0.294 N 
ATOM     27  C   UNL     1     -30.569  28.765   6.389  0.00  0.00    +0.141 C 
ATOM     28  C   UNL     1     -29.246  28.554   6.436  0.00  0.00    +0.123 C 
ATOM     29  C   UNL     1     -28.338  29.008   7.510  0.00  0.00    +0.200 C 
ATOM     30  C   UNL     1     -28.455  27.832   5.425  0.00  0.00    +0.252 C 
ATOM     31  C   UNL     1     -26.938  28.568   7.181  0.00  0.00    +0.160 C 
ATOM     32  H   UNL     1     -26.406  27.463   5.425  0.00  0.00    +0.150 HD
BRANCH  27  33
ATOM     33  O   UNL     1     -31.230  29.456   7.385  0.00  0.00    -0.505 OA
ATOM     34  H   UNL     1     -30.758  30.049   7.937  0.00  0.00    +0.292 HD
ENDBRANCH  27  33
ENDBRANCH  23  27
ENDBRANCH  20  22
ENDBRANCH   1  19
TORSDOF 7
ENDMDL
MODEL 7
REMARK VINA RESULT:      -6.2      3.905      9.175
REMARK  Name = 54738532
REMARK  7 active torsions:
REMARK  status: ('A' for Active; 'I' for Inactive)
REMARK    1  A    between atoms: C_1  and  C_13
REMARK    2  A    between atoms: C_1  and  C_19
REMARK    3  A    between atoms: C_7  and  C_16
REMARK    4  A    between atoms: C_16  and  O_17
REMARK    5  A    between atoms: C_20  and  C_22
REMARK    6  A    between atoms: C_23  and  C_27
REMARK    7  A    between atoms: C_27  and  O_33
REMARK                            x       y       z     vdW  Elec       q    Type
REMARK                         _______ _______ _______ _____ _____    ______ ____
ROOT
ATOM      1  C   UNL     1     -34.878  23.007   4.675  0.00  0.00    +0.049 C 
ATOM      2  C   UNL     1     -35.492  22.681   6.038  0.00  0.00    +0.007 C 
ENDROOT
BRANCH   1  13
ATOM      3  O   UNL     1     -38.812  23.868   3.183  0.00  0.00    -0.341 OA
ATOM      4  O   UNL     1     -36.403  23.932   0.920  0.00  0.00    -0.327 OA
ATOM      5  O   UNL     1     -36.039  24.485   3.229  0.00  0.00    -0.334 OA
ATOM      6  O   UNL     1     -38.593  21.161   1.414  0.00  0.00    -0.291 OA
ATOM      7  C   UNL     1     -38.261  24.741   2.194  0.00  0.00    +0.198 C 
ATOM      8  C   UNL     1     -38.939  23.449   1.820  0.00  0.00    +0.206 C 
ATOM      9  C   UNL     1     -36.763  24.774   2.024  0.00  0.00    +0.215 C 
ATOM     10  C   UNL     1     -36.616  22.560   1.227  0.00  0.00    +0.179 C 
ATOM     11  C   UNL     1     -35.694  22.191   2.398  0.00  0.00    +0.062 C 
ATOM     12  C   UNL     1     -38.099  22.282   1.473  0.00  0.00    +0.207 C 
ATOM     13  C   UNL     1     -35.968  23.105   3.609  0.00  0.00    +0.124 C 
ATOM     14  C   UNL     1     -36.329  26.187   1.624  0.00  0.00    +0.064 C 
ATOM     15  C   UNL     1     -35.760  20.705   2.749  0.00  0.00    +0.005 C 
BRANCH   7  16
ATOM     16  C   UNL     1     -39.048  26.000   2.071  0.00  0.00    +0.172 C 
BRANCH  16  17
ATOM     17  O   UNL     1     -39.369  26.488   3.366  0.00  0.00    -0.379 OA
ATOM     18  H   UNL     1     -39.190  25.798   4.024  0.00  0.00    +0.211 HD
ENDBRANCH  16  17
ENDBRANCH   7  16
ENDBRANCH   1  13
BRANCH   1  19
ATOM     19  C   UNL     1     -34.113  24.309   4.755  0.00  0.00    -0.028 C 
ATOM     20  C   UNL     1     -34.502  25.488   5.288  0.00  0.00    -0.026 C 
ATOM     21  C   UNL     1     -35.840  25.718   5.941  0.00  0.00    +0.031 C 
BRANCH  20  22
ATOM     22  C   UNL     1     -33.570  26.619   5.235  0.00  0.00    -0.001 C 
ATOM     23  C   UNL     1     -33.038  27.170   4.129  0.00  0.00    +0.037 C 
BRANCH  23  27
ATOM     24  O   UNL     1     -30.432  30.736   3.976  0.00  0.00    -0.289 OA
ATOM     25  O   UNL     1     -34.806  29.180   3.167  0.00  0.00    -0.270 OA
ATOM     26  N   UNL     1     -33.716  31.259   2.961  0.00  0.00    -0.294 N 
ATOM     27  C   UNL     1     -32.115  28.292   4.109  0.00  0.00    +0.141 C 
ATOM     28  C   UNL     1     -32.485  29.518   3.714  0.00  0.00    +0.123 C 
ATOM     29  C   UNL     1     -31.610  30.708   3.663  0.00  0.00    +0.200 C 
ATOM     30  C   UNL     1     -33.831  29.903   3.257  0.00  0.00    +0.252 C 
ATOM     31  C   UNL     1     -32.412  31.879   3.165  0.00  0.00    +0.160 C 
ATOM     32  H   UNL     1     -34.483  31.778   2.628  0.00  0.00    +0.150 HD
BRANCH  27  33
ATOM     33  O   UNL     1     -30.826  28.020   4.524  0.00  0.00    -0.505 OA
ATOM     34  H   UNL     1     -30.517  27.135   4.546  0.00  0.00    +0.292 HD
ENDBRANCH  27  33
ENDBRANCH  23  27
ENDBRANCH  20  22
ENDBRANCH   1  19
TORSDOF 7
ENDMDL
MODEL 8
REMARK VINA RESULT:      -6.2      4.427      6.017
REMARK  Name = 54738532
REMARK  7 active torsions:
REMARK  status: ('A' for Active; 'I' for Inactive)
REMARK    1  A    between atoms: C_1  and  C_13
REMARK    2  A    between atoms: C_1  and  C_19
REMARK    3  A    between atoms: C_7  and  C_16
REMARK    4  A    between atoms: C_16  and  O_17
REMARK    5  A    between atoms: C_20  and  C_22
REMARK    6  A    between atoms: C_23  and  C_27
REMARK    7  A    between atoms: C_27  and  O_33
REMARK                            x       y       z     vdW  Elec       q    Type
REMARK                         _______ _______ _______ _____ _____    ______ ____
ROOT
ATOM      1  C   UNL     1     -34.497  22.906   0.637  0.00  0.00    +0.049 C 
ATOM      2  C   UNL     1     -35.711  23.057  -0.281  0.00  0.00    +0.007 C 
ENDROOT
BRANCH   1  13
ATOM      3  O   UNL     1     -34.091  24.315   4.674  0.00  0.00    -0.341 OA
ATOM      4  O   UNL     1     -37.178  23.589   3.740  0.00  0.00    -0.327 OA
ATOM      5  O   UNL     1     -35.501  24.371   2.208  0.00  0.00    -0.334 OA
ATOM      6  O   UNL     1     -35.114  21.402   5.657  0.00  0.00    -0.291 OA
ATOM      7  C   UNL     1     -35.386  24.917   4.608  0.00  0.00    +0.198 C 
ATOM      8  C   UNL     1     -35.102  23.746   5.512  0.00  0.00    +0.206 C 
ATOM      9  C   UNL     1     -36.248  24.629   3.406  0.00  0.00    +0.215 C 
ATOM     10  C   UNL     1     -36.516  22.342   3.911  0.00  0.00    +0.179 C 
ATOM     11  C   UNL     1     -35.874  21.963   2.569  0.00  0.00    +0.062 C 
ATOM     12  C   UNL     1     -35.542  22.399   5.087  0.00  0.00    +0.207 C 
ATOM     13  C   UNL     1     -34.910  23.071   2.099  0.00  0.00    +0.124 C 
ATOM     14  C   UNL     1     -37.103  25.860   3.089  0.00  0.00    +0.064 C 
ATOM     15  C   UNL     1     -35.219  20.582   2.602  0.00  0.00    +0.005 C 
BRANCH   7  16
ATOM     16  C   UNL     1     -35.392  26.278   5.215  0.00  0.00    +0.172 C 
BRANCH  16  17
ATOM     17  O   UNL     1     -34.247  26.998   4.779  0.00  0.00    -0.379 OA
ATOM     18  H   UNL     1     -33.817  26.512   4.057  0.00  0.00    +0.211 HD
ENDBRANCH  16  17
ENDBRANCH   7  16
ENDBRANCH   1  13
BRANCH   1  19
ATOM     19  C   UNL     1     -33.860  21.550   0.428  0.00  0.00    -0.028 C 
ATOM     20  C   UNL     1     -32.699  21.248  -0.191  0.00  0.00    -0.026 C 
ATOM     21  C   UNL     1     -31.778  22.270  -0.807  0.00  0.00    +0.031 C 
BRANCH  20  22
ATOM     22  C   UNL     1     -32.297  19.839  -0.271  0.00  0.00    -0.001 C 
ATOM     23  C   UNL     1     -31.634  19.139   0.666  0.00  0.00    +0.037 C 
BRANCH  23  27
ATOM     24  O   UNL     1     -30.210  14.974   0.270  0.00  0.00    -0.289 OA
ATOM     25  O   UNL     1     -28.904  19.490  -0.050  0.00  0.00    -0.270 OA
ATOM     26  N   UNL     1     -27.818  17.420  -0.348  0.00  0.00    -0.294 N 
ATOM     27  C   UNL     1     -31.248  17.743   0.557  0.00  0.00    +0.141 C 
ATOM     28  C   UNL     1     -30.004  17.366   0.228  0.00  0.00    +0.123 C 
ATOM     29  C   UNL     1     -29.531  15.972   0.096  0.00  0.00    +0.200 C 
ATOM     30  C   UNL     1     -28.881  18.274  -0.063  0.00  0.00    +0.252 C 
ATOM     31  C   UNL     1     -28.077  15.987  -0.287  0.00  0.00    +0.160 C 
ATOM     32  H   UNL     1     -26.928  17.770  -0.581  0.00  0.00    +0.150 HD
BRANCH  27  33
ATOM     33  O   UNL     1     -32.242  16.820   0.815  0.00  0.00    -0.505 OA
ATOM     34  H   UNL     1     -33.091  16.927   0.433  0.00  0.00    +0.292 HD
ENDBRANCH  27  33
ENDBRANCH  23  27
ENDBRANCH  20  22
ENDBRANCH   1  19
TORSDOF 7
ENDMDL
MODEL 9
REMARK VINA RESULT:      -6.1      4.461      7.921
REMARK  Name = 54738532
REMARK  7 active torsions:
REMARK  status: ('A' for Active; 'I' for Inactive)
REMARK    1  A    between atoms: C_1  and  C_13
REMARK    2  A    between atoms: C_1  and  C_19
REMARK    3  A    between atoms: C_7  and  C_16
REMARK    4  A    between atoms: C_16  and  O_17
REMARK    5  A    between atoms: C_20  and  C_22
REMARK    6  A    between atoms: C_23  and  C_27
REMARK    7  A    between atoms: C_27  and  O_33
REMARK                            x       y       z     vdW  Elec       q    Type
REMARK                         _______ _______ _______ _____ _____    ______ ____
ROOT
ATOM      1  C   UNL     1     -32.013  27.224   3.382  0.00  0.00    +0.049 C 
ATOM      2  C   UNL     1     -31.120  26.821   2.207  0.00  0.00    +0.007 C 
ENDROOT
BRANCH   1  13
ATOM      3  O   UNL     1     -31.203  31.324   2.390  0.00  0.00    -0.341 OA
ATOM      4  O   UNL     1     -33.192  30.871   4.991  0.00  0.00    -0.327 OA
ATOM      5  O   UNL     1     -33.078  29.330   3.152  0.00  0.00    -0.334 OA
ATOM      6  O   UNL     1     -29.708  31.586   5.254  0.00  0.00    -0.291 OA
ATOM      7  C   UNL     1     -32.497  31.707   2.859  0.00  0.00    +0.198 C 
ATOM      8  C   UNL     1     -31.240  32.144   3.563  0.00  0.00    +0.206 C 
ATOM      9  C   UNL     1     -33.332  30.678   3.577  0.00  0.00    +0.215 C 
ATOM     10  C   UNL     1     -31.885  30.524   5.433  0.00  0.00    +0.179 C 
ATOM     11  C   UNL     1     -31.678  29.028   5.157  0.00  0.00    +0.062 C 
ATOM     12  C   UNL     1     -30.837  31.439   4.799  0.00  0.00    +0.207 C 
ATOM     13  C   UNL     1     -31.885  28.721   3.660  0.00  0.00    +0.124 C 
ATOM     14  C   UNL     1     -34.813  30.922   3.272  0.00  0.00    +0.064 C 
ATOM     15  C   UNL     1     -30.339  28.516   5.688  0.00  0.00    +0.005 C 
BRANCH   7  16
ATOM     16  C   UNL     1     -33.151  32.678   1.937  0.00  0.00    +0.172 C 
BRANCH  16  17
ATOM     17  O   UNL     1     -33.040  32.211   0.599  0.00  0.00    -0.379 OA
ATOM     18  H   UNL     1     -32.908  32.966   0.005  0.00  0.00    +0.211 HD
ENDBRANCH  16  17
ENDBRANCH   7  16
ENDBRANCH   1  13
BRANCH   1  19
ATOM     19  C   UNL     1     -33.452  26.875   3.076  0.00  0.00    -0.028 C 
ATOM     20  C   UNL     1     -34.413  26.436   3.917  0.00  0.00    -0.026 C 
ATOM     21  C   UNL     1     -34.208  26.216   5.393  0.00  0.00    +0.031 C 
BRANCH  20  22
ATOM     22  C   UNL     1     -35.745  26.156   3.370  0.00  0.00    -0.001 C 
ATOM     23  C   UNL     1     -36.729  25.461   3.968  0.00  0.00    +0.037 C 
BRANCH  23  27
ATOM     24  O   UNL     1     -40.639  24.407   2.198  0.00  0.00    -0.289 OA
ATOM     25  O   UNL     1     -36.397  22.706   3.345  0.00  0.00    -0.270 OA
ATOM     26  N   UNL     1     -38.340  21.804   2.362  0.00  0.00    -0.294 N 
ATOM     27  C   UNL     1     -38.040  25.199   3.399  0.00  0.00    +0.141 C 
ATOM     28  C   UNL     1     -38.392  23.991   2.937  0.00  0.00    +0.123 C 
ATOM     29  C   UNL     1     -39.701  23.642   2.345  0.00  0.00    +0.200 C 
ATOM     30  C   UNL     1     -37.539  22.790   2.934  0.00  0.00    +0.252 C 
ATOM     31  C   UNL     1     -39.686  22.189   1.956  0.00  0.00    +0.160 C 
ATOM     32  H   UNL     1     -38.010  20.885   2.236  0.00  0.00    +0.150 HD
BRANCH  27  33
ATOM     33  O   UNL     1     -38.907  26.272   3.363  0.00  0.00    -0.505 OA
ATOM     34  H   UNL     1     -38.572  27.144   3.285  0.00  0.00    +0.292 HD
ENDBRANCH  27  33
ENDBRANCH  23  27
ENDBRANCH  20  22
ENDBRANCH   1  19
TORSDOF 7
ENDMDL
