MODEL 1
REMARK VINA RESULT:      -6.2      0.000      0.000
REMARK  Name = 192411
REMARK  10 active torsions:
REMARK  status: ('A' for Active; 'I' for Inactive)
REMARK    1  A    between atoms: C_2  and  O_19
REMARK    2  A    between atoms: C_3  and  N_8
REMARK    3  A    between atoms: C_4  and  O_23
REMARK    4  A    between atoms: C_5  and  C_27
REMARK    5  A    between atoms: C_6  and  S_12
REMARK    6  A    between atoms: S_12  and  C_14
REMARK    7  A    between atoms: O_19  and  C_21
REMARK    8  A    between atoms: O_23  and  C_25
REMARK    9  A    between atoms: C_27  and  O_28
REMARK   10  A    between atoms: O_28  and  C_30
REMARK                            x       y       z     vdW  Elec       q    Type
REMARK                         _______ _______ _______ _____ _____    ______ ____
ROOT
ATOM      1  O   UNL     1     -33.641  27.347   5.382  0.00  0.00    -0.338 OA
ATOM      2  C   UNL     1     -34.065  28.514   2.985  0.00  0.00    +0.232 C 
ATOM      3  C   UNL     1     -35.023  27.372   3.386  0.00  0.00    +0.154 C 
ATOM      4  C   UNL     1     -32.604  28.179   3.299  0.00  0.00    +0.241 C 
ATOM      5  C   UNL     1     -32.407  27.738   4.764  0.00  0.00    +0.203 C 
ATOM      6  C   UNL     1     -34.444  26.525   4.538  0.00  0.00    +0.190 C 
ENDROOT
BRANCH   3   8
ATOM      7  O   UNL     1     -37.465  27.363   1.817  0.00  0.00    -0.275 OA
ATOM      8  N   UNL     1     -35.334  26.533   2.249  0.00  0.00    -0.300 N 
ATOM      9  C   UNL     1     -36.534  26.604   1.564  0.00  0.00    +0.223 C 
ATOM     10  C   UNL     1     -36.587  25.639   0.410  0.00  0.00    +0.095 C 
ATOM     11  H   UNL     1     -34.661  25.879   1.949  0.00  0.00    +0.150 HD
ENDBRANCH   3   8
BRANCH   6  12
ATOM     12  S   UNL     1     -35.784  25.737   5.496  0.00  0.00    -0.064 S 
BRANCH  12  14
ATOM     13  N   UNL     1     -35.753  23.763   3.687  0.00  0.00    -0.238 NA
ATOM     14  C   UNL     1     -35.596  24.030   5.002  0.00  0.00    +0.109 C 
ATOM     15  C   UNL     1     -35.307  23.075   5.962  0.00  0.00    +0.026 C 
ATOM     16  C   UNL     1     -35.169  21.756   5.544  0.00  0.00    +0.004 C 
ATOM     17  C   UNL     1     -35.611  22.471   3.319  0.00  0.00    +0.099 C 
ATOM     18  C   UNL     1     -35.322  21.440   4.198  0.00  0.00    +0.021 C 
ENDBRANCH  12  14
ENDBRANCH   6  12
BRANCH   2  19
ATOM     19  O   UNL     1     -34.445  29.690   3.699  0.00  0.00    -0.447 OA
BRANCH  19  21
ATOM     20  O   UNL     1     -33.495  31.585   2.780  0.00  0.00    -0.250 OA
ATOM     21  C   UNL     1     -34.450  30.845   2.971  0.00  0.00    +0.318 C 
ATOM     22  C   UNL     1     -35.823  31.087   2.422  0.00  0.00    +0.121 C 
ENDBRANCH  19  21
ENDBRANCH   2  19
BRANCH   4  23
ATOM     23  O   UNL     1     -32.186  27.103   2.454  0.00  0.00    -0.446 OA
BRANCH  23  25
ATOM     24  O   UNL     1     -30.188  25.955   2.624  0.00  0.00    -0.250 OA
ATOM     25  C   UNL     1     -30.835  26.948   2.317  0.00  0.00    +0.318 C 
ATOM     26  C   UNL     1     -30.240  28.190   1.727  0.00  0.00    +0.121 C 
ENDBRANCH  23  25
ENDBRANCH   4  23
BRANCH   5  27
ATOM     27  C   UNL     1     -31.834  28.862   5.621  0.00  0.00    +0.242 C 
BRANCH  27  28
ATOM     28  O   UNL     1     -30.532  29.167   5.153  0.00  0.00    -0.446 OA
BRANCH  28  30
ATOM     29  O   UNL     1     -28.957  27.497   5.417  0.00  0.00    -0.250 OA
ATOM     30  C   UNL     1     -29.500  28.530   5.789  0.00  0.00    +0.318 C 
ATOM     31  C   UNL     1     -29.116  29.280   7.027  0.00  0.00    +0.121 C 
ENDBRANCH  28  30
ENDBRANCH  27  28
ENDBRANCH   5  27
TORSDOF 10
ENDMDL
MODEL 2
REMARK VINA RESULT:      -5.9      1.536      1.659
REMARK  Name = 192411
REMARK  10 active torsions:
REMARK  status: ('A' for Active; 'I' for Inactive)
REMARK    1  A    between atoms: C_2  and  O_19
REMARK    2  A    between atoms: C_3  and  N_8
REMARK    3  A    between atoms: C_4  and  O_23
REMARK    4  A    between atoms: C_5  and  C_27
REMARK    5  A    between atoms: C_6  and  S_12
REMARK    6  A    between atoms: S_12  and  C_14
REMARK    7  A    between atoms: O_19  and  C_21
REMARK    8  A    between atoms: O_23  and  C_25
REMARK    9  A    between atoms: C_27  and  O_28
REMARK   10  A    between atoms: O_28  and  C_30
REMARK                            x       y       z     vdW  Elec       q    Type
REMARK                         _______ _______ _______ _____ _____    ______ ____
ROOT
ATOM      1  O   UNL     1     -33.738  27.246   4.623  0.00  0.00    -0.338 OA
ATOM      2  C   UNL     1     -34.834  28.159   2.330  0.00  0.00    +0.232 C 
ATOM      3  C   UNL     1     -35.608  27.058   3.086  0.00  0.00    +0.154 C 
ATOM      4  C   UNL     1     -33.332  27.868   2.266  0.00  0.00    +0.241 C 
ATOM      5  C   UNL     1     -32.732  27.581   3.657  0.00  0.00    +0.203 C 
ATOM      6  C   UNL     1     -34.711  26.337   4.112  0.00  0.00    +0.190 C 
ENDROOT
BRANCH   3   8
ATOM      7  O   UNL     1     -38.229  27.173   1.843  0.00  0.00    -0.275 OA
ATOM      8  N   UNL     1     -36.186  26.104   2.163  0.00  0.00    -0.300 N 
ATOM      9  C   UNL     1     -37.451  26.248   1.622  0.00  0.00    +0.223 C 
ATOM     10  C   UNL     1     -37.795  25.130   0.675  0.00  0.00    +0.095 C 
ATOM     11  H   UNL     1     -35.655  25.315   1.909  0.00  0.00    +0.150 HD
ENDBRANCH   3   8
BRANCH   6  12
ATOM     12  S   UNL     1     -35.714  25.642   5.471  0.00  0.00    -0.064 S 
BRANCH  12  14
ATOM     13  N   UNL     1     -35.777  23.501   3.864  0.00  0.00    -0.238 NA
ATOM     14  C   UNL     1     -35.568  23.892   5.140  0.00  0.00    +0.109 C 
ATOM     15  C   UNL     1     -35.257  23.029   6.177  0.00  0.00    +0.026 C 
ATOM     16  C   UNL     1     -35.153  21.674   5.885  0.00  0.00    +0.004 C 
ATOM     17  C   UNL     1     -35.668  22.177   3.618  0.00  0.00    +0.099 C 
ATOM     18  C   UNL     1     -35.360  21.231   4.583  0.00  0.00    +0.021 C 
ENDBRANCH  12  14
ENDBRANCH   6  12
BRANCH   2  19
ATOM     19  O   UNL     1     -35.048  29.400   3.004  0.00  0.00    -0.447 OA
BRANCH  19  21
ATOM     20  O   UNL     1     -36.648  30.382   1.658  0.00  0.00    -0.250 OA
ATOM     21  C   UNL     1     -35.572  30.401   2.240  0.00  0.00    +0.318 C 
ATOM     22  C   UNL     1     -34.622  31.561   2.211  0.00  0.00    +0.121 C 
ENDBRANCH  19  21
ENDBRANCH   2  19
BRANCH   4  23
ATOM     23  O   UNL     1     -33.121  26.714   1.447  0.00  0.00    -0.446 OA
BRANCH  23  25
ATOM     24  O   UNL     1     -31.102  25.677   1.016  0.00  0.00    -0.250 OA
ATOM     25  C   UNL     1     -31.883  26.610   0.878  0.00  0.00    +0.318 C 
ATOM     26  C   UNL     1     -31.605  27.823   0.044  0.00  0.00    +0.121 C 
ENDBRANCH  23  25
ENDBRANCH   4  23
BRANCH   5  27
ATOM     27  C   UNL     1     -31.987  28.790   4.213  0.00  0.00    +0.242 C 
BRANCH  27  28
ATOM     28  O   UNL     1     -32.576  29.155   5.448  0.00  0.00    -0.446 OA
BRANCH  28  30
ATOM     29  O   UNL     1     -31.597  29.785   7.443  0.00  0.00    -0.250 OA
ATOM     30  C   UNL     1     -31.826  29.969   6.255  0.00  0.00    +0.318 C 
ATOM     31  C   UNL     1     -31.314  31.139   5.473  0.00  0.00    +0.121 C 
ENDBRANCH  28  30
ENDBRANCH  27  28
ENDBRANCH   5  27
TORSDOF 10
ENDMDL
MODEL 3
REMARK VINA RESULT:      -5.4      3.992      6.268
REMARK  Name = 192411
REMARK  10 active torsions:
REMARK  status: ('A' for Active; 'I' for Inactive)
REMARK    1  A    between atoms: C_2  and  O_19
REMARK    2  A    between atoms: C_3  and  N_8
REMARK    3  A    between atoms: C_4  and  O_23
REMARK    4  A    between atoms: C_5  and  C_27
REMARK    5  A    between atoms: C_6  and  S_12
REMARK    6  A    between atoms: S_12  and  C_14
REMARK    7  A    between atoms: O_19  and  C_21
REMARK    8  A    between atoms: O_23  and  C_25
REMARK    9  A    between atoms: C_27  and  O_28
REMARK   10  A    between atoms: O_28  and  C_30
REMARK                            x       y       z     vdW  Elec       q    Type
REMARK                         _______ _______ _______ _____ _____    ______ ____
ROOT
ATOM      1  O   UNL     1     -35.662  22.070   3.206  0.00  0.00    -0.338 OA
ATOM      2  C   UNL     1     -37.313  23.662   1.782  0.00  0.00    +0.232 C 
ATOM      3  C   UNL     1     -36.856  22.350   1.111  0.00  0.00    +0.154 C 
ATOM      4  C   UNL     1     -36.160  24.381   2.489  0.00  0.00    +0.241 C 
ATOM      5  C   UNL     1     -35.405  23.457   3.465  0.00  0.00    +0.203 C 
ATOM      6  C   UNL     1     -35.622  21.752   1.816  0.00  0.00    +0.190 C 
ENDROOT
BRANCH   3   8
ATOM      7  O   UNL     1     -38.721  22.104  -1.100  0.00  0.00    -0.275 OA
ATOM      8  N   UNL     1     -36.584  22.555  -0.296  0.00  0.00    -0.300 N 
ATOM      9  C   UNL     1     -37.545  22.412  -1.279  0.00  0.00    +0.223 C 
ATOM     10  C   UNL     1     -37.002  22.707  -2.652  0.00  0.00    +0.095 C 
ATOM     11  H   UNL     1     -35.671  22.806  -0.565  0.00  0.00    +0.150 HD
ENDBRANCH   3   8
BRANCH   6  12
ATOM     12  S   UNL     1     -35.553  19.943   1.575  0.00  0.00    -0.064 S 
BRANCH  12  14
ATOM     13  N   UNL     1     -33.317  20.755   0.345  0.00  0.00    -0.238 NA
ATOM     14  C   UNL     1     -33.858  19.736   1.047  0.00  0.00    +0.109 C 
ATOM     15  C   UNL     1     -33.186  18.569   1.370  0.00  0.00    +0.026 C 
ATOM     16  C   UNL     1     -31.869  18.440   0.943  0.00  0.00    +0.004 C 
ATOM     17  C   UNL     1     -32.036  20.593  -0.054  0.00  0.00    +0.099 C 
ATOM     18  C   UNL     1     -31.275  19.467   0.217  0.00  0.00    +0.021 C 
ENDBRANCH  12  14
ENDBRANCH   6  12
BRANCH   2  19
ATOM     19  O   UNL     1     -38.329  23.348   2.735  0.00  0.00    -0.447 OA
BRANCH  19  21
ATOM     20  O   UNL     1     -40.109  21.960   2.240  0.00  0.00    -0.250 OA
ATOM     21  C   UNL     1     -39.554  23.050   2.212  0.00  0.00    +0.318 C 
ATOM     22  C   UNL     1     -40.144  24.277   1.584  0.00  0.00    +0.121 C 
ENDBRANCH  19  21
ENDBRANCH   2  19
BRANCH   4  23
ATOM     23  O   UNL     1     -35.230  24.838   1.502  0.00  0.00    -0.446 OA
BRANCH  23  25
ATOM     24  O   UNL     1     -33.183  25.779   2.017  0.00  0.00    -0.250 OA
ATOM     25  C   UNL     1     -34.399  25.849   1.895  0.00  0.00    +0.318 C 
ATOM     26  C   UNL     1     -35.200  27.087   2.164  0.00  0.00    +0.121 C 
ENDBRANCH  23  25
ENDBRANCH   4  23
BRANCH   5  27
ATOM     27  C   UNL     1     -35.813  23.708   4.913  0.00  0.00    +0.242 C 
BRANCH  27  28
ATOM     28  O   UNL     1     -34.778  24.431   5.555  0.00  0.00    -0.446 OA
BRANCH  28  30
ATOM     29  O   UNL     1     -36.038  26.367   5.555  0.00  0.00    -0.250 OA
ATOM     30  C   UNL     1     -34.968  25.782   5.667  0.00  0.00    +0.318 C 
ATOM     31  C   UNL     1     -33.665  26.464   5.951  0.00  0.00    +0.121 C 
ENDBRANCH  28  30
ENDBRANCH  27  28
ENDBRANCH   5  27
TORSDOF 10
ENDMDL
MODEL 4
REMARK VINA RESULT:      -5.2      3.712      7.382
REMARK  Name = 192411
REMARK  10 active torsions:
REMARK  status: ('A' for Active; 'I' for Inactive)
REMARK    1  A    between atoms: C_2  and  O_19
REMARK    2  A    between atoms: C_3  and  N_8
REMARK    3  A    between atoms: C_4  and  O_23
REMARK    4  A    between atoms: C_5  and  C_27
REMARK    5  A    between atoms: C_6  and  S_12
REMARK    6  A    between atoms: S_12  and  C_14
REMARK    7  A    between atoms: O_19  and  C_21
REMARK    8  A    between atoms: O_23  and  C_25
REMARK    9  A    between atoms: C_27  and  O_28
REMARK   10  A    between atoms: O_28  and  C_30
REMARK                            x       y       z     vdW  Elec       q    Type
REMARK                         _______ _______ _______ _____ _____    ______ ____
ROOT
ATOM      1  O   UNL     1     -35.567  24.621   1.763  0.00  0.00    -0.338 OA
ATOM      2  C   UNL     1     -36.208  22.283   2.951  0.00  0.00    +0.232 C 
ATOM      3  C   UNL     1     -35.232  22.217   1.758  0.00  0.00    +0.154 C 
ATOM      4  C   UNL     1     -37.386  23.224   2.682  0.00  0.00    +0.241 C 
ATOM      5  C   UNL     1     -36.925  24.623   2.226  0.00  0.00    +0.203 C 
ATOM      6  C   UNL     1     -35.273  23.510   0.919  0.00  0.00    +0.190 C 
ENDROOT
BRANCH   3   8
ATOM      7  O   UNL     1     -34.097  19.555   1.992  0.00  0.00    -0.275 OA
ATOM      8  N   UNL     1     -35.510  21.066   0.925  0.00  0.00    -0.300 N 
ATOM      9  C   UNL     1     -34.914  19.833   1.117  0.00  0.00    +0.223 C 
ATOM     10  C   UNL     1     -35.398  18.807   0.128  0.00  0.00    +0.095 C 
ATOM     11  H   UNL     1     -36.153  21.165   0.185  0.00  0.00    +0.150 HD
ENDBRANCH   3   8
BRANCH   6  12
ATOM     12  S   UNL     1     -33.688  23.767   0.049  0.00  0.00    -0.064 S 
BRANCH  12  14
ATOM     13  N   UNL     1     -33.862  26.424  -0.233  0.00  0.00    -0.238 NA
ATOM     14  C   UNL     1     -33.311  25.448   0.521  0.00  0.00    +0.109 C 
ATOM     15  C   UNL     1     -32.489  25.678   1.612  0.00  0.00    +0.026 C 
ATOM     16  C   UNL     1     -32.215  26.998   1.951  0.00  0.00    +0.004 C 
ATOM     17  C   UNL     1     -33.573  27.694   0.126  0.00  0.00    +0.099 C 
ATOM     18  C   UNL     1     -32.764  28.032   1.199  0.00  0.00    +0.021 C 
ENDBRANCH  12  14
ENDBRANCH   6  12
BRANCH   2  19
ATOM     19  O   UNL     1     -35.487  22.742   4.095  0.00  0.00    -0.447 OA
BRANCH  19  21
ATOM     20  O   UNL     1     -35.045  20.630   4.921  0.00  0.00    -0.250 OA
ATOM     21  C   UNL     1     -35.294  21.817   5.080  0.00  0.00    +0.318 C 
ATOM     22  C   UNL     1     -35.434  22.474   6.420  0.00  0.00    +0.121 C 
ENDBRANCH  19  21
ENDBRANCH   2  19
BRANCH   4  23
ATOM     23  O   UNL     1     -38.195  22.664   1.644  0.00  0.00    -0.446 OA
BRANCH  23  25
ATOM     24  O   UNL     1     -40.037  21.400   2.231  0.00  0.00    -0.250 OA
ATOM     25  C   UNL     1     -39.511  22.470   1.957  0.00  0.00    +0.318 C 
ATOM     26  C   UNL     1     -40.239  23.779   1.918  0.00  0.00    +0.121 C 
ENDBRANCH  23  25
ENDBRANCH   4  23
BRANCH   5  27
ATOM     27  C   UNL     1     -36.993  25.640   3.360  0.00  0.00    +0.242 C 
BRANCH  27  28
ATOM     28  O   UNL     1     -35.673  26.033   3.693  0.00  0.00    -0.446 OA
BRANCH  28  30
ATOM     29  O   UNL     1     -36.158  25.968   5.951  0.00  0.00    -0.250 OA
ATOM     30  C   UNL     1     -35.357  26.011   5.026  0.00  0.00    +0.318 C 
ATOM     31  C   UNL     1     -33.871  26.047   5.204  0.00  0.00    +0.121 C 
ENDBRANCH  28  30
ENDBRANCH  27  28
ENDBRANCH   5  27
TORSDOF 10
ENDMDL
MODEL 5
REMARK VINA RESULT:      -5.2      3.791      7.155
REMARK  Name = 192411
REMARK  10 active torsions:
REMARK  status: ('A' for Active; 'I' for Inactive)
REMARK    1  A    between atoms: C_2  and  O_19
REMARK    2  A    between atoms: C_3  and  N_8
REMARK    3  A    between atoms: C_4  and  O_23
REMARK    4  A    between atoms: C_5  and  C_27
REMARK    5  A    between atoms: C_6  and  S_12
REMARK    6  A    between atoms: S_12  and  C_14
REMARK    7  A    between atoms: O_19  and  C_21
REMARK    8  A    between atoms: O_23  and  C_25
REMARK    9  A    between atoms: C_27  and  O_28
REMARK   10  A    between atoms: O_28  and  C_30
REMARK                            x       y       z     vdW  Elec       q    Type
REMARK                         _______ _______ _______ _____ _____    ______ ____
ROOT
ATOM      1  O   UNL     1     -35.994  22.506   1.362  0.00  0.00    -0.338 OA
ATOM      2  C   UNL     1     -35.678  25.083   2.101  0.00  0.00    +0.232 C 
ATOM      3  C   UNL     1     -34.585  24.476   1.197  0.00  0.00    +0.154 C 
ATOM      4  C   UNL     1     -36.096  24.128   3.223  0.00  0.00    +0.241 C 
ATOM      5  C   UNL     1     -36.485  22.734   2.690  0.00  0.00    +0.203 C 
ATOM      6  C   UNL     1     -34.644  22.935   1.192  0.00  0.00    +0.190 C 
ENDROOT
BRANCH   3   8
ATOM      7  O   UNL     1     -33.322  27.010   0.556  0.00  0.00    -0.275 OA
ATOM      8  N   UNL     1     -33.270  24.930   1.598  0.00  0.00    -0.300 N 
ATOM      9  C   UNL     1     -32.754  26.162   1.239  0.00  0.00    +0.223 C 
ATOM     10  C   UNL     1     -31.380  26.390   1.809  0.00  0.00    +0.095 C 
ATOM     11  H   UNL     1     -32.716  24.332   2.151  0.00  0.00    +0.150 HD
ENDBRANCH   3   8
BRANCH   6  12
ATOM     12  S   UNL     1     -33.950  22.267  -0.359  0.00  0.00    -0.064 S 
BRANCH  12  14
ATOM     13  N   UNL     1     -33.995  19.957   0.994  0.00  0.00    -0.238 NA
ATOM     14  C   UNL     1     -33.214  20.748   0.225  0.00  0.00    +0.109 C 
ATOM     15  C   UNL     1     -31.907  20.450  -0.121  0.00  0.00    +0.026 C 
ATOM     16  C   UNL     1     -31.365  19.261   0.352  0.00  0.00    +0.004 C 
ATOM     17  C   UNL     1     -33.433  18.810   1.435  0.00  0.00    +0.099 C 
ATOM     18  C   UNL     1     -32.136  18.419   1.146  0.00  0.00    +0.021 C 
ENDBRANCH  12  14
ENDBRANCH   6  12
BRANCH   2  19
ATOM     19  O   UNL     1     -36.814  25.386   1.290  0.00  0.00    -0.447 OA
BRANCH  19  21
ATOM     20  O   UNL     1     -37.073  27.613   1.848  0.00  0.00    -0.250 OA
ATOM     21  C   UNL     1     -37.524  26.491   1.661  0.00  0.00    +0.318 C 
ATOM     22  C   UNL     1     -38.971  26.132   1.810  0.00  0.00    +0.121 C 
ENDBRANCH  19  21
ENDBRANCH   2  19
BRANCH   4  23
ATOM     23  O   UNL     1     -34.995  23.966   4.123  0.00  0.00    -0.446 OA
BRANCH  23  25
ATOM     24  O   UNL     1     -33.501  25.607   4.766  0.00  0.00    -0.250 OA
ATOM     25  C   UNL     1     -34.611  25.091   4.797  0.00  0.00    +0.318 C 
ATOM     26  C   UNL     1     -35.761  25.619   5.599  0.00  0.00    +0.121 C 
ENDBRANCH  23  25
ENDBRANCH   4  23
BRANCH   5  27
ATOM     27  C   UNL     1     -37.999  22.555   2.627  0.00  0.00    +0.242 C 
BRANCH  27  28
ATOM     28  O   UNL     1     -38.367  22.298   1.283  0.00  0.00    -0.446 OA
BRANCH  28  30
ATOM     29  O   UNL     1     -40.284  21.148   1.867  0.00  0.00    -0.250 OA
ATOM     30  C   UNL     1     -39.356  21.370   1.098  0.00  0.00    +0.318 C 
ATOM     31  C   UNL     1     -39.150  20.647  -0.197  0.00  0.00    +0.121 C 
ENDBRANCH  28  30
ENDBRANCH  27  28
ENDBRANCH   5  27
TORSDOF 10
ENDMDL
MODEL 6
REMARK VINA RESULT:      -5.0      4.877      6.845
REMARK  Name = 192411
REMARK  10 active torsions:
REMARK  status: ('A' for Active; 'I' for Inactive)
REMARK    1  A    between atoms: C_2  and  O_19
REMARK    2  A    between atoms: C_3  and  N_8
REMARK    3  A    between atoms: C_4  and  O_23
REMARK    4  A    between atoms: C_5  and  C_27
REMARK    5  A    between atoms: C_6  and  S_12
REMARK    6  A    between atoms: S_12  and  C_14
REMARK    7  A    between atoms: O_19  and  C_21
REMARK    8  A    between atoms: O_23  and  C_25
REMARK    9  A    between atoms: C_27  and  O_28
REMARK   10  A    between atoms: O_28  and  C_30
REMARK                            x       y       z     vdW  Elec       q    Type
REMARK                         _______ _______ _______ _____ _____    ______ ____
ROOT
ATOM      1  O   UNL     1     -35.164  22.493   2.276  0.00  0.00    -0.338 OA
ATOM      2  C   UNL     1     -37.455  23.402   1.174  0.00  0.00    +0.232 C 
ATOM      3  C   UNL     1     -37.085  21.929   0.904  0.00  0.00    +0.154 C 
ATOM      4  C   UNL     1     -36.249  24.335   1.036  0.00  0.00    +0.241 C 
ATOM      5  C   UNL     1     -35.048  23.868   1.884  0.00  0.00    +0.203 C 
ATOM      6  C   UNL     1     -35.600  21.651   1.210  0.00  0.00    +0.190 C 
ENDROOT
BRANCH   3   8
ATOM      7  O   UNL     1     -39.206  20.168  -0.007  0.00  0.00    -0.275 OA
ATOM      8  N   UNL     1     -37.396  21.559  -0.461  0.00  0.00    -0.300 N 
ATOM      9  C   UNL     1     -38.434  20.707  -0.795  0.00  0.00    +0.223 C 
ATOM     10  C   UNL     1     -38.552  20.511  -2.282  0.00  0.00    +0.095 C 
ATOM     11  H   UNL     1     -36.843  21.930  -1.186  0.00  0.00    +0.150 HD
ENDBRANCH   3   8
BRANCH   6  12
ATOM     12  S   UNL     1     -35.346  19.893   1.637  0.00  0.00    -0.064 S 
BRANCH  12  14
ATOM     13  N   UNL     1     -33.137  20.633   0.317  0.00  0.00    -0.238 NA
ATOM     14  C   UNL     1     -33.671  19.645   1.068  0.00  0.00    +0.109 C 
ATOM     15  C   UNL     1     -33.005  18.479   1.407  0.00  0.00    +0.026 C 
ATOM     16  C   UNL     1     -31.704  18.317   0.946  0.00  0.00    +0.004 C 
ATOM     17  C   UNL     1     -31.870  20.440  -0.113  0.00  0.00    +0.099 C 
ATOM     18  C   UNL     1     -31.118  19.312   0.171  0.00  0.00    +0.021 C 
ENDBRANCH  12  14
ENDBRANCH   6  12
BRANCH   2  19
ATOM     19  O   UNL     1     -37.977  23.497   2.500  0.00  0.00    -0.447 OA
BRANCH  19  21
ATOM     20  O   UNL     1     -40.148  22.764   2.200  0.00  0.00    -0.250 OA
ATOM     21  C   UNL     1     -39.336  23.591   2.592  0.00  0.00    +0.318 C 
ATOM     22  C   UNL     1     -39.706  24.881   3.259  0.00  0.00    +0.121 C 
ENDBRANCH  19  21
ENDBRANCH   2  19
BRANCH   4  23
ATOM     23  O   UNL     1     -35.840  24.359  -0.334  0.00  0.00    -0.446 OA
BRANCH  23  25
ATOM     24  O   UNL     1     -35.542  26.649  -0.265  0.00  0.00    -0.250 OA
ATOM     25  C   UNL     1     -35.369  25.558  -0.791  0.00  0.00    +0.318 C 
ATOM     26  C   UNL     1     -34.592  25.348  -2.055  0.00  0.00    +0.121 C 
ENDBRANCH  23  25
ENDBRANCH   4  23
BRANCH   5  27
ATOM     27  C   UNL     1     -34.917  24.674   3.173  0.00  0.00    +0.242 C 
BRANCH  27  28
ATOM     28  O   UNL     1     -34.657  23.779   4.240  0.00  0.00    -0.446 OA
BRANCH  28  30
ATOM     29  O   UNL     1     -36.545  24.500   5.361  0.00  0.00    -0.250 OA
ATOM     30  C   UNL     1     -35.613  23.718   5.219  0.00  0.00    +0.318 C 
ATOM     31  C   UNL     1     -35.363  22.541   6.110  0.00  0.00    +0.121 C 
ENDBRANCH  28  30
ENDBRANCH  27  28
ENDBRANCH   5  27
TORSDOF 10
ENDMDL
MODEL 7
REMARK VINA RESULT:      -5.0      4.991      7.638
REMARK  Name = 192411
REMARK  10 active torsions:
REMARK  status: ('A' for Active; 'I' for Inactive)
REMARK    1  A    between atoms: C_2  and  O_19
REMARK    2  A    between atoms: C_3  and  N_8
REMARK    3  A    between atoms: C_4  and  O_23
REMARK    4  A    between atoms: C_5  and  C_27
REMARK    5  A    between atoms: C_6  and  S_12
REMARK    6  A    between atoms: S_12  and  C_14
REMARK    7  A    between atoms: O_19  and  C_21
REMARK    8  A    between atoms: O_23  and  C_25
REMARK    9  A    between atoms: C_27  and  O_28
REMARK   10  A    between atoms: O_28  and  C_30
REMARK                            x       y       z     vdW  Elec       q    Type
REMARK                         _______ _______ _______ _____ _____    ______ ____
ROOT
ATOM      1  O   UNL     1     -36.861  20.773   1.783  0.00  0.00    -0.338 OA
ATOM      2  C   UNL     1     -35.830  22.993   2.922  0.00  0.00    +0.232 C 
ATOM      3  C   UNL     1     -37.347  22.991   2.641  0.00  0.00    +0.154 C 
ATOM      4  C   UNL     1     -35.025  22.427   1.748  0.00  0.00    +0.241 C 
ATOM      5  C   UNL     1     -35.536  21.041   1.304  0.00  0.00    +0.203 C 
ATOM      6  C   UNL     1     -37.737  21.889   1.635  0.00  0.00    +0.190 C 
ENDROOT
BRANCH   3   8
ATOM      7  O   UNL     1     -39.512  24.612   3.697  0.00  0.00    -0.275 OA
ATOM      8  N   UNL     1     -37.789  24.286   2.167  0.00  0.00    -0.300 N 
ATOM      9  C   UNL     1     -38.836  24.983   2.740  0.00  0.00    +0.223 C 
ATOM     10  C   UNL     1     -39.070  26.310   2.070  0.00  0.00    +0.095 C 
ATOM     11  H   UNL     1     -37.321  24.688   1.399  0.00  0.00    +0.150 HD
ENDBRANCH   3   8
BRANCH   6  12
ATOM     12  S   UNL     1     -39.473  21.377   1.878  0.00  0.00    -0.064 S 
BRANCH  12  14
ATOM     13  N   UNL     1     -40.719  20.526  -0.334  0.00  0.00    -0.238 NA
ATOM     14  C   UNL     1     -40.126  21.600   0.230  0.00  0.00    +0.109 C 
ATOM     15  C   UNL     1     -39.998  22.833  -0.388  0.00  0.00    +0.026 C 
ATOM     16  C   UNL     1     -40.515  22.972  -1.671  0.00  0.00    +0.004 C 
ATOM     17  C   UNL     1     -41.210  20.699  -1.581  0.00  0.00    +0.099 C 
ATOM     18  C   UNL     1     -41.135  21.890  -2.286  0.00  0.00    +0.021 C 
ENDBRANCH  12  14
ENDBRANCH   6  12
BRANCH   2  19
ATOM     19  O   UNL     1     -35.588  22.203   4.087  0.00  0.00    -0.447 OA
BRANCH  19  21
ATOM     20  O   UNL     1     -36.098  24.000   5.447  0.00  0.00    -0.250 OA
ATOM     21  C   UNL     1     -35.662  22.869   5.275  0.00  0.00    +0.318 C 
ATOM     22  C   UNL     1     -35.123  22.002   6.372  0.00  0.00    +0.121 C 
ENDBRANCH  19  21
ENDBRANCH   2  19
BRANCH   4  23
ATOM     23  O   UNL     1     -35.142  23.319   0.637  0.00  0.00    -0.446 OA
BRANCH  23  25
ATOM     24  O   UNL     1     -32.949  23.926   0.237  0.00  0.00    -0.250 OA
ATOM     25  C   UNL     1     -34.115  24.207   0.480  0.00  0.00    +0.318 C 
ATOM     26  C   UNL     1     -34.624  25.606   0.650  0.00  0.00    +0.121 C 
ENDBRANCH  23  25
ENDBRANCH   4  23
BRANCH   5  27
ATOM     27  C   UNL     1     -34.651  19.916   1.830  0.00  0.00    +0.242 C 
BRANCH  27  28
ATOM     28  O   UNL     1     -33.947  19.347   0.740  0.00  0.00    -0.446 OA
BRANCH  28  30
ATOM     29  O   UNL     1     -32.408  17.924   1.711  0.00  0.00    -0.250 OA
ATOM     30  C   UNL     1     -32.685  18.890   1.012  0.00  0.00    +0.318 C 
ATOM     31  C   UNL     1     -31.667  19.747   0.324  0.00  0.00    +0.121 C 
ENDBRANCH  28  30
ENDBRANCH  27  28
ENDBRANCH   5  27
TORSDOF 10
ENDMDL
MODEL 8
REMARK VINA RESULT:      -4.9      4.196      8.320
REMARK  Name = 192411
REMARK  10 active torsions:
REMARK  status: ('A' for Active; 'I' for Inactive)
REMARK    1  A    between atoms: C_2  and  O_19
REMARK    2  A    between atoms: C_3  and  N_8
REMARK    3  A    between atoms: C_4  and  O_23
REMARK    4  A    between atoms: C_5  and  C_27
REMARK    5  A    between atoms: C_6  and  S_12
REMARK    6  A    between atoms: S_12  and  C_14
REMARK    7  A    between atoms: O_19  and  C_21
REMARK    8  A    between atoms: O_23  and  C_25
REMARK    9  A    between atoms: C_27  and  O_28
REMARK   10  A    between atoms: O_28  and  C_30
REMARK                            x       y       z     vdW  Elec       q    Type
REMARK                         _______ _______ _______ _____ _____    ______ ____
ROOT
ATOM      1  O   UNL     1     -38.668  26.757   2.150  0.00  0.00    -0.338 OA
ATOM      2  C   UNL     1     -37.409  24.567   3.102  0.00  0.00    +0.232 C 
ATOM      3  C   UNL     1     -36.580  25.521   2.216  0.00  0.00    +0.154 C 
ATOM      4  C   UNL     1     -38.809  24.319   2.531  0.00  0.00    +0.241 C 
ATOM      5  C   UNL     1     -39.557  25.633   2.227  0.00  0.00    +0.203 C 
ATOM      6  C   UNL     1     -37.484  26.473   1.407  0.00  0.00    +0.190 C 
ENDROOT
BRANCH   3   8
ATOM      7  O   UNL     1     -33.710  25.159   2.462  0.00  0.00    -0.275 OA
ATOM      8  N   UNL     1     -35.708  24.779   1.330  0.00  0.00    -0.300 N 
ATOM      9  C   UNL     1     -34.345  24.665   1.534  0.00  0.00    +0.223 C 
ATOM     10  C   UNL     1     -33.682  23.820   0.480  0.00  0.00    +0.095 C 
ATOM     11  H   UNL     1     -36.103  24.335   0.545  0.00  0.00    +0.150 HD
ENDBRANCH   3   8
BRANCH   6  12
ATOM     12  S   UNL     1     -36.596  28.017   1.001  0.00  0.00    -0.064 S 
BRANCH  12  14
ATOM     13  N   UNL     1     -38.176  30.046   0.257  0.00  0.00    -0.238 NA
ATOM     14  C   UNL     1     -37.770  28.806  -0.090  0.00  0.00    +0.109 C 
ATOM     15  C   UNL     1     -38.207  28.130  -1.217  0.00  0.00    +0.026 C 
ATOM     16  C   UNL     1     -39.122  28.772  -2.044  0.00  0.00    +0.004 C 
ATOM     17  C   UNL     1     -39.065  30.638  -0.571  0.00  0.00    +0.099 C 
ATOM     18  C   UNL     1     -39.564  30.051  -1.722  0.00  0.00    +0.021 C 
ENDBRANCH  12  14
ENDBRANCH   6  12
BRANCH   2  19
ATOM     19  O   UNL     1     -37.523  25.147   4.401  0.00  0.00    -0.447 OA
BRANCH  19  21
ATOM     20  O   UNL     1     -35.893  26.520   5.293  0.00  0.00    -0.250 OA
ATOM     21  C   UNL     1     -36.343  25.413   5.033  0.00  0.00    +0.318 C 
ATOM     22  C   UNL     1     -35.655  24.126   5.375  0.00  0.00    +0.121 C 
ENDBRANCH  19  21
ENDBRANCH   2  19
BRANCH   4  23
ATOM     23  O   UNL     1     -38.684  23.588   1.309  0.00  0.00    -0.446 OA
BRANCH  23  25
ATOM     24  O   UNL     1     -37.278  21.759   1.180  0.00  0.00    -0.250 OA
ATOM     25  C   UNL     1     -38.362  22.266   1.439  0.00  0.00    +0.318 C 
ATOM     26  C   UNL     1     -39.544  21.505   1.956  0.00  0.00    +0.121 C 
ENDBRANCH  23  25
ENDBRANCH   4  23
BRANCH   5  27
ATOM     27  C   UNL     1     -40.579  25.966   3.309  0.00  0.00    +0.242 C 
BRANCH  27  28
ATOM     28  O   UNL     1     -41.206  27.192   2.976  0.00  0.00    -0.446 OA
BRANCH  28  30
ATOM     29  O   UNL     1     -41.906  28.664   4.612  0.00  0.00    -0.250 OA
ATOM     30  C   UNL     1     -42.089  27.686   3.899  0.00  0.00    +0.318 C 
ATOM     31  C   UNL     1     -43.334  26.854   3.919  0.00  0.00    +0.121 C 
ENDBRANCH  28  30
ENDBRANCH  27  28
ENDBRANCH   5  27
TORSDOF 10
ENDMDL
MODEL 9
REMARK VINA RESULT:      -4.9      5.748      7.974
REMARK  Name = 192411
REMARK  10 active torsions:
REMARK  status: ('A' for Active; 'I' for Inactive)
REMARK    1  A    between atoms: C_2  and  O_19
REMARK    2  A    between atoms: C_3  and  N_8
REMARK    3  A    between atoms: C_4  and  O_23
REMARK    4  A    between atoms: C_5  and  C_27
REMARK    5  A    between atoms: C_6  and  S_12
REMARK    6  A    between atoms: S_12  and  C_14
REMARK    7  A    between atoms: O_19  and  C_21
REMARK    8  A    between atoms: O_23  and  C_25
REMARK    9  A    between atoms: C_27  and  O_28
REMARK   10  A    between atoms: O_28  and  C_30
REMARK                            x       y       z     vdW  Elec       q    Type
REMARK                         _______ _______ _______ _____ _____    ______ ____
ROOT
ATOM      1  O   UNL     1     -35.527  21.719   2.421  0.00  0.00    -0.338 OA
ATOM      2  C   UNL     1     -37.367  21.751   0.446  0.00  0.00    +0.232 C 
ATOM      3  C   UNL     1     -36.233  20.713   0.327  0.00  0.00    +0.154 C 
ATOM      4  C   UNL     1     -36.849  23.126   0.879  0.00  0.00    +0.241 C 
ATOM      5  C   UNL     1     -35.989  23.051   2.157  0.00  0.00    +0.203 C 
ATOM      6  C   UNL     1     -35.047  21.060   1.251  0.00  0.00    +0.190 C 
ENDROOT
BRANCH   3   8
ATOM      7  O   UNL     1     -35.940  18.273  -1.218  0.00  0.00    -0.275 OA
ATOM      8  N   UNL     1     -35.785  20.588  -1.044  0.00  0.00    -0.300 N 
ATOM      9  C   UNL     1     -35.678  19.374  -1.696  0.00  0.00    +0.223 C 
ATOM     10  C   UNL     1     -35.213  19.532  -3.119  0.00  0.00    +0.095 C 
ATOM     11  H   UNL     1     -35.544  21.407  -1.535  0.00  0.00    +0.150 HD
ENDBRANCH   3   8
BRANCH   6  12
ATOM     12  S   UNL     1     -34.116  19.554   1.699  0.00  0.00    -0.064 S 
BRANCH  12  14
ATOM     13  N   UNL     1     -32.555  20.899  -0.011  0.00  0.00    -0.238 NA
ATOM     14  C   UNL     1     -32.636  19.766   0.721  0.00  0.00    +0.109 C 
ATOM     15  C   UNL     1     -31.658  18.787   0.750  0.00  0.00    +0.026 C 
ATOM     16  C   UNL     1     -30.520  18.983  -0.025  0.00  0.00    +0.004 C 
ATOM     17  C   UNL     1     -31.435  21.054  -0.751  0.00  0.00    +0.099 C 
ATOM     18  C   UNL     1     -30.398  20.136  -0.792  0.00  0.00    +0.021 C 
ENDBRANCH  12  14
ENDBRANCH   6  12
BRANCH   2  19
ATOM     19  O   UNL     1     -38.311  21.277   1.408  0.00  0.00    -0.447 OA
BRANCH  19  21
ATOM     20  O   UNL     1     -40.078  22.504   2.249  0.00  0.00    -0.250 OA
ATOM     21  C   UNL     1     -39.545  21.858   1.357  0.00  0.00    +0.318 C 
ATOM     22  C   UNL     1     -40.173  21.589   0.024  0.00  0.00    +0.121 C 
ENDBRANCH  19  21
ENDBRANCH   2  19
BRANCH   4  23
ATOM     23  O   UNL     1     -36.038  23.663  -0.170  0.00  0.00    -0.446 OA
BRANCH  23  25
ATOM     24  O   UNL     1     -36.542  23.438  -2.414  0.00  0.00    -0.250 OA
ATOM     25  C   UNL     1     -36.695  23.978  -1.326  0.00  0.00    +0.318 C 
ATOM     26  C   UNL     1     -37.653  25.102  -1.073  0.00  0.00    +0.121 C 
ENDBRANCH  23  25
ENDBRANCH   4  23
BRANCH   5  27
ATOM     27  C   UNL     1     -36.770  23.489   3.391  0.00  0.00    +0.242 C 
BRANCH  27  28
ATOM     28  O   UNL     1     -36.430  22.633   4.467  0.00  0.00    -0.446 OA
BRANCH  28  30
ATOM     29  O   UNL     1     -35.431  24.383   5.597  0.00  0.00    -0.250 OA
ATOM     30  C   UNL     1     -35.675  23.190   5.465  0.00  0.00    +0.318 C 
ATOM     31  C   UNL     1     -35.178  22.125   6.392  0.00  0.00    +0.121 C 
ENDBRANCH  28  30
ENDBRANCH  27  28
ENDBRANCH   5  27
TORSDOF 10
ENDMDL
