MODEL 1
REMARK VINA RESULT:      -7.0      0.000      0.000
REMARK  Name = 6037480
REMARK  4 active torsions:
REMARK  status: ('A' for Active; 'I' for Inactive)
REMARK    1  A    between atoms: C_8  and  N_27
REMARK    2  A    between atoms: C_13  and  O_33
REMARK    3  A    between atoms: C_22  and  O_35
REMARK    4  A    between atoms: C_28  and  C_31
REMARK                            x       y       z     vdW  Elec       q    Type
REMARK                         _______ _______ _______ _____ _____    ______ ____
ROOT
ATOM      1  O   UNL     1     -38.301  22.527   2.534  0.00  0.00    -0.451 OA
ATOM      2  O   UNL     1     -39.305  23.886  -1.148  0.00  0.00    -0.295 OA
ATOM      3  O   UNL     1     -38.940  24.379   3.614  0.00  0.00    -0.250 OA
ATOM      4  C   UNL     1     -39.347  24.345   1.226  0.00  0.00    +0.161 C 
ATOM      5  C   UNL     1     -37.773  22.573   0.171  0.00  0.00    +0.098 C 
ATOM      6  C   UNL     1     -38.256  21.717   1.340  0.00  0.00    +0.178 C 
ATOM      7  C   UNL     1     -38.863  23.612  -0.032  0.00  0.00    +0.165 C 
ATOM      8  C   UNL     1     -38.933  25.856   1.141  0.00  0.00    +0.110 C 
ATOM      9  C   UNL     1     -38.834  23.769   2.550  0.00  0.00    +0.324 C 
ATOM     10  C   UNL     1     -37.399  20.477   1.646  0.00  0.00    +0.078 C 
ATOM     11  C   UNL     1     -40.881  24.188   1.295  0.00  0.00    +0.021 C 
ATOM     12  C   UNL     1     -37.529  21.781  -1.110  0.00  0.00    +0.012 C 
ATOM     13  C   UNL     1     -35.928  20.744   2.014  0.00  0.00    +0.136 C 
ATOM     14  C   UNL     1     -37.463  26.065   0.819  0.00  0.00    -0.010 C 
ATOM     15  C   UNL     1     -36.432  26.404   1.623  0.00  0.00    -0.025 C 
ATOM     16  C   UNL     1     -35.758  21.323   3.392  0.00  0.00    +0.002 C 
ATOM     17  C   UNL     1     -35.080  26.591   0.987  0.00  0.00    +0.031 C 
ATOM     18  C   UNL     1     -36.587  26.622   3.055  0.00  0.00    -0.007 C 
ATOM     19  C   UNL     1     -35.178  22.512   3.636  0.00  0.00    -0.007 C 
ATOM     20  C   UNL     1     -35.695  26.701   4.058  0.00  0.00    +0.003 C 
ATOM     21  C   UNL     1     -34.976  23.123   4.947  0.00  0.00    -0.026 C 
ATOM     22  C   UNL     1     -34.194  26.604   4.067  0.00  0.00    +0.137 C 
ATOM     23  C   UNL     1     -33.640  25.170   4.119  0.00  0.00    +0.059 C 
ATOM     24  C   UNL     1     -34.309  24.282   5.139  0.00  0.00    -0.028 C 
ATOM     25  C   UNL     1     -35.555  22.414   6.149  0.00  0.00    +0.031 C 
ENDROOT
BRANCH   8  27
ATOM     26  O   UNL     1     -41.181  27.706   1.547  0.00  0.00    -0.267 OA
ATOM     27  N   UNL     1     -39.685  26.582   0.135  0.00  0.00    -0.295 N 
ATOM     28  C   UNL     1     -40.723  27.424   0.450  0.00  0.00    +0.281 C 
ATOM     29  H   UNL     1     -39.442  26.464  -0.811  0.00  0.00    +0.150 HD
BRANCH  28  31
ATOM     30  O   UNL     1     -41.879  29.172  -0.584  0.00  0.00    -0.286 OA
ATOM     31  C   UNL     1     -41.324  28.096  -0.751  0.00  0.00    +0.226 C 
ATOM     32  C   UNL     1     -41.187  27.399  -2.072  0.00  0.00    +0.082 C 
ENDBRANCH  28  31
ENDBRANCH   8  27
BRANCH  13  33
ATOM     33  O   UNL     1     -35.252  19.481   1.986  0.00  0.00    -0.380 OA
ATOM     34  H   UNL     1     -35.468  19.018   1.163  0.00  0.00    +0.211 HD
ENDBRANCH  13  33
BRANCH  22  35
ATOM     35  O   UNL     1     -33.699  27.309   5.213  0.00  0.00    -0.380 OA
ATOM     36  H   UNL     1     -34.359  27.956   5.505  0.00  0.00    +0.211 HD
ENDBRANCH  22  35
TORSDOF 4
ENDMDL
MODEL 2
REMARK VINA RESULT:      -6.6      2.885      4.997
REMARK  Name = 6037480
REMARK  4 active torsions:
REMARK  status: ('A' for Active; 'I' for Inactive)
REMARK    1  A    between atoms: C_8  and  N_27
REMARK    2  A    between atoms: C_13  and  O_33
REMARK    3  A    between atoms: C_22  and  O_35
REMARK    4  A    between atoms: C_28  and  C_31
REMARK                            x       y       z     vdW  Elec       q    Type
REMARK                         _______ _______ _______ _____ _____    ______ ____
ROOT
ATOM      1  O   UNL     1     -36.748  23.012   2.847  0.00  0.00    -0.451 OA
ATOM      2  O   UNL     1     -38.492  26.637   2.365  0.00  0.00    -0.295 OA
ATOM      3  O   UNL     1     -34.735  23.826   3.382  0.00  0.00    -0.250 OA
ATOM      4  C   UNL     1     -36.487  25.463   3.036  0.00  0.00    +0.161 C 
ATOM      5  C   UNL     1     -38.356  24.348   1.622  0.00  0.00    +0.098 C 
ATOM      6  C   UNL     1     -38.160  23.199   2.609  0.00  0.00    +0.178 C 
ATOM      7  C   UNL     1     -37.856  25.582   2.354  0.00  0.00    +0.165 C 
ATOM      8  C   UNL     1     -35.458  26.399   2.308  0.00  0.00    +0.110 C 
ATOM      9  C   UNL     1     -35.909  24.045   3.086  0.00  0.00    +0.324 C 
ATOM     10  C   UNL     1     -38.745  21.845   2.167  0.00  0.00    +0.078 C 
ATOM     11  C   UNL     1     -36.665  25.870   4.513  0.00  0.00    +0.021 C 
ATOM     12  C   UNL     1     -39.801  24.529   1.170  0.00  0.00    +0.012 C 
ATOM     13  C   UNL     1     -38.184  21.260   0.858  0.00  0.00    +0.136 C 
ATOM     14  C   UNL     1     -35.430  26.211   0.800  0.00  0.00    -0.010 C 
ATOM     15  C   UNL     1     -34.542  25.559   0.018  0.00  0.00    -0.025 C 
ATOM     16  C   UNL     1     -36.786  20.722   1.001  0.00  0.00    +0.002 C 
ATOM     17  C   UNL     1     -34.761  25.597  -1.472  0.00  0.00    +0.031 C 
ATOM     18  C   UNL     1     -33.384  24.858   0.555  0.00  0.00    -0.007 C 
ATOM     19  C   UNL     1     -35.737  21.169   0.288  0.00  0.00    -0.007 C 
ATOM     20  C   UNL     1     -32.548  23.952   0.018  0.00  0.00    +0.003 C 
ATOM     21  C   UNL     1     -34.362  20.683   0.374  0.00  0.00    -0.026 C 
ATOM     22  C   UNL     1     -32.494  23.334  -1.353  0.00  0.00    +0.137 C 
ATOM     23  C   UNL     1     -33.418  22.119  -1.550  0.00  0.00    +0.059 C 
ATOM     24  C   UNL     1     -33.365  21.111  -0.430  0.00  0.00    -0.028 C 
ATOM     25  C   UNL     1     -34.048  19.648   1.428  0.00  0.00    +0.031 C 
ENDROOT
BRANCH   8  27
ATOM     26  O   UNL     1     -33.526  28.610   2.422  0.00  0.00    -0.267 OA
ATOM     27  N   UNL     1     -35.724  27.805   2.545  0.00  0.00    -0.295 N 
ATOM     28  C   UNL     1     -34.730  28.751   2.576  0.00  0.00    +0.281 C 
ATOM     29  H   UNL     1     -36.654  28.091   2.691  0.00  0.00    +0.150 HD
BRANCH  28  31
ATOM     30  O   UNL     1     -34.889  30.733   3.805  0.00  0.00    -0.286 OA
ATOM     31  C   UNL     1     -35.247  30.145   2.796  0.00  0.00    +0.226 C 
ATOM     32  C   UNL     1     -36.157  30.715   1.749  0.00  0.00    +0.082 C 
ENDBRANCH  28  31
ENDBRANCH   8  27
BRANCH  13  33
ATOM     33  O   UNL     1     -39.035  20.169   0.488  0.00  0.00    -0.380 OA
ATOM     34  H   UNL     1     -38.510  19.356   0.431  0.00  0.00    +0.211 HD
ENDBRANCH  13  33
BRANCH  22  35
ATOM     35  O   UNL     1     -31.149  22.910  -1.610  0.00  0.00    -0.380 OA
ATOM     36  H   UNL     1     -30.984  22.067  -1.161  0.00  0.00    +0.211 HD
ENDBRANCH  22  35
TORSDOF 4
ENDMDL
MODEL 3
REMARK VINA RESULT:      -6.3      2.859      5.796
REMARK  Name = 6037480
REMARK  4 active torsions:
REMARK  status: ('A' for Active; 'I' for Inactive)
REMARK    1  A    between atoms: C_8  and  N_27
REMARK    2  A    between atoms: C_13  and  O_33
REMARK    3  A    between atoms: C_22  and  O_35
REMARK    4  A    between atoms: C_28  and  C_31
REMARK                            x       y       z     vdW  Elec       q    Type
REMARK                         _______ _______ _______ _____ _____    ______ ____
ROOT
ATOM      1  O   UNL     1     -35.958  26.344   3.852  0.00  0.00    -0.451 OA
ATOM      2  O   UNL     1     -36.860  22.399   4.047  0.00  0.00    -0.295 OA
ATOM      3  O   UNL     1     -36.987  26.690   1.897  0.00  0.00    -0.250 OA
ATOM      4  C   UNL     1     -37.179  24.458   2.820  0.00  0.00    +0.161 C 
ATOM      5  C   UNL     1     -35.247  24.127   4.520  0.00  0.00    +0.098 C 
ATOM      6  C   UNL     1     -35.678  25.512   4.998  0.00  0.00    +0.178 C 
ATOM      7  C   UNL     1     -36.474  23.549   3.835  0.00  0.00    +0.165 C 
ATOM      8  C   UNL     1     -37.018  23.856   1.380  0.00  0.00    +0.110 C 
ATOM      9  C   UNL     1     -36.691  25.911   2.802  0.00  0.00    +0.324 C 
ATOM     10  C   UNL     1     -34.653  26.253   5.876  0.00  0.00    +0.078 C 
ATOM     11  C   UNL     1     -38.665  24.546   3.227  0.00  0.00    +0.021 C 
ATOM     12  C   UNL     1     -34.766  23.212   5.641  0.00  0.00    +0.012 C 
ATOM     13  C   UNL     1     -33.285  26.534   5.230  0.00  0.00    +0.136 C 
ATOM     14  C   UNL     1     -35.582  23.511   1.024  0.00  0.00    -0.010 C 
ATOM     15  C   UNL     1     -34.693  24.166   0.245  0.00  0.00    -0.025 C 
ATOM     16  C   UNL     1     -33.331  27.623   4.194  0.00  0.00    +0.002 C 
ATOM     17  C   UNL     1     -33.342  23.533   0.039  0.00  0.00    +0.031 C 
ATOM     18  C   UNL     1     -35.004  25.426  -0.417  0.00  0.00    -0.007 C 
ATOM     19  C   UNL     1     -32.981  27.445   2.907  0.00  0.00    -0.007 C 
ATOM     20  C   UNL     1     -34.226  26.356  -0.998  0.00  0.00    +0.003 C 
ATOM     21  C   UNL     1     -32.996  28.462   1.858  0.00  0.00    -0.026 C 
ATOM     22  C   UNL     1     -32.735  26.430  -1.192  0.00  0.00    +0.137 C 
ATOM     23  C   UNL     1     -31.955  26.994   0.008  0.00  0.00    +0.059 C 
ATOM     24  C   UNL     1     -32.551  28.247   0.602  0.00  0.00    -0.028 C 
ATOM     25  C   UNL     1     -33.547  29.824   2.208  0.00  0.00    +0.031 C 
ENDROOT
BRANCH   8  27
ATOM     26  O   UNL     1     -39.317  23.432  -0.400  0.00  0.00    -0.267 OA
ATOM     27  N   UNL     1     -37.793  22.644   1.196  0.00  0.00    -0.295 N 
ATOM     28  C   UNL     1     -38.854  22.568   0.328  0.00  0.00    +0.281 C 
ATOM     29  H   UNL     1     -37.548  21.844   1.716  0.00  0.00    +0.150 HD
BRANCH  28  31
ATOM     30  O   UNL     1     -40.557  21.045   0.824  0.00  0.00    -0.286 OA
ATOM     31  C   UNL     1     -39.477  21.201   0.275  0.00  0.00    +0.226 C 
ATOM     32  C   UNL     1     -38.728  20.131  -0.462  0.00  0.00    +0.082 C 
ENDBRANCH  28  31
ENDBRANCH   8  27
BRANCH  13  33
ATOM     33  O   UNL     1     -32.407  26.966   6.277  0.00  0.00    -0.380 OA
ATOM     34  H   UNL     1     -31.494  26.739   6.046  0.00  0.00    +0.211 HD
ENDBRANCH  13  33
BRANCH  22  35
ATOM     35  O   UNL     1     -32.464  27.264  -2.326  0.00  0.00    -0.380 OA
ATOM     36  H   UNL     1     -33.298  27.507  -2.757  0.00  0.00    +0.211 HD
ENDBRANCH  22  35
TORSDOF 4
ENDMDL
MODEL 4
REMARK VINA RESULT:      -6.3      3.325      6.887
REMARK  Name = 6037480
REMARK  4 active torsions:
REMARK  status: ('A' for Active; 'I' for Inactive)
REMARK    1  A    between atoms: C_8  and  N_27
REMARK    2  A    between atoms: C_13  and  O_33
REMARK    3  A    between atoms: C_22  and  O_35
REMARK    4  A    between atoms: C_28  and  C_31
REMARK                            x       y       z     vdW  Elec       q    Type
REMARK                         _______ _______ _______ _____ _____    ______ ____
ROOT
ATOM      1  O   UNL     1     -37.933  20.379   0.289  0.00  0.00    -0.451 OA
ATOM      2  O   UNL     1     -36.826  24.276   0.356  0.00  0.00    -0.295 OA
ATOM      3  O   UNL     1     -36.928  19.851   2.216  0.00  0.00    -0.250 OA
ATOM      4  C   UNL     1     -36.826  22.183   1.567  0.00  0.00    +0.161 C 
ATOM      5  C   UNL     1     -37.252  22.321  -0.989  0.00  0.00    +0.098 C 
ATOM      6  C   UNL     1     -38.395  21.362  -0.663  0.00  0.00    +0.178 C 
ATOM      7  C   UNL     1     -36.972  23.054   0.313  0.00  0.00    +0.165 C 
ATOM      8  C   UNL     1     -35.345  22.254   2.082  0.00  0.00    +0.110 C 
ATOM      9  C   UNL     1     -37.211  20.711   1.383  0.00  0.00    +0.324 C 
ATOM     10  C   UNL     1     -38.984  20.606  -1.867  0.00  0.00    +0.078 C 
ATOM     11  C   UNL     1     -37.812  22.720   2.625  0.00  0.00    +0.021 C 
ATOM     12  C   UNL     1     -37.577  23.303  -2.109  0.00  0.00    +0.012 C 
ATOM     13  C   UNL     1     -38.007  19.708  -2.648  0.00  0.00    +0.136 C 
ATOM     14  C   UNL     1     -34.313  21.978   1.000  0.00  0.00    -0.010 C 
ATOM     15  C   UNL     1     -33.585  20.868   0.750  0.00  0.00    -0.025 C 
ATOM     16  C   UNL     1     -37.643  18.448  -1.911  0.00  0.00    +0.002 C 
ATOM     17  C   UNL     1     -32.590  20.923  -0.379  0.00  0.00    +0.031 C 
ATOM     18  C   UNL     1     -33.704  19.652   1.543  0.00  0.00    -0.007 C 
ATOM     19  C   UNL     1     -36.383  18.120  -1.571  0.00  0.00    -0.007 C 
ATOM     20  C   UNL     1     -33.296  18.389   1.325  0.00  0.00    +0.003 C 
ATOM     21  C   UNL     1     -35.965  16.911  -0.865  0.00  0.00    -0.026 C 
ATOM     22  C   UNL     1     -32.548  17.767   0.178  0.00  0.00    +0.137 C 
ATOM     23  C   UNL     1     -33.425  17.344  -1.013  0.00  0.00    +0.059 C 
ATOM     24  C   UNL     1     -34.675  16.592  -0.627  0.00  0.00    -0.028 C 
ATOM     25  C   UNL     1     -37.045  15.976  -0.375  0.00  0.00    +0.031 C 
ENDROOT
BRANCH   8  27
ATOM     26  O   UNL     1     -34.914  22.935   4.907  0.00  0.00    -0.267 OA
ATOM     27  N   UNL     1     -35.016  23.548   2.647  0.00  0.00    -0.295 N 
ATOM     28  C   UNL     1     -34.838  23.744   3.995  0.00  0.00    +0.281 C 
ATOM     29  H   UNL     1     -34.918  24.317   2.041  0.00  0.00    +0.150 HD
BRANCH  28  31
ATOM     30  O   UNL     1     -33.312  25.510   4.128  0.00  0.00    -0.286 OA
ATOM     31  C   UNL     1     -34.463  25.156   4.342  0.00  0.00    +0.226 C 
ATOM     32  C   UNL     1     -35.535  26.032   4.917  0.00  0.00    +0.082 C 
ENDBRANCH  28  31
ENDBRANCH   8  27
BRANCH  13  33
ATOM     33  O   UNL     1     -38.665  19.328  -3.862  0.00  0.00    -0.380 OA
ATOM     34  H   UNL     1     -39.039  20.115  -4.286  0.00  0.00    +0.211 HD
ENDBRANCH  13  33
BRANCH  22  35
ATOM     35  O   UNL     1     -31.866  16.600   0.658  0.00  0.00    -0.380 OA
ATOM     36  H   UNL     1     -31.573  16.749   1.571  0.00  0.00    +0.211 HD
ENDBRANCH  22  35
TORSDOF 4
ENDMDL
MODEL 5
REMARK VINA RESULT:      -6.3      2.384      5.978
REMARK  Name = 6037480
REMARK  4 active torsions:
REMARK  status: ('A' for Active; 'I' for Inactive)
REMARK    1  A    between atoms: C_8  and  N_27
REMARK    2  A    between atoms: C_13  and  O_33
REMARK    3  A    between atoms: C_22  and  O_35
REMARK    4  A    between atoms: C_28  and  C_31
REMARK                            x       y       z     vdW  Elec       q    Type
REMARK                         _______ _______ _______ _____ _____    ______ ____
ROOT
ATOM      1  O   UNL     1     -35.436  23.358   1.040  0.00  0.00    -0.451 OA
ATOM      2  O   UNL     1     -34.552  25.626   4.278  0.00  0.00    -0.295 OA
ATOM      3  O   UNL     1     -35.795  25.091  -0.328  0.00  0.00    -0.250 OA
ATOM      4  C   UNL     1     -35.059  25.639   1.914  0.00  0.00    +0.161 C 
ATOM      5  C   UNL     1     -35.576  23.609   3.445  0.00  0.00    +0.098 C 
ATOM      6  C   UNL     1     -34.961  22.819   2.293  0.00  0.00    +0.178 C 
ATOM      7  C   UNL     1     -35.001  25.009   3.312  0.00  0.00    +0.165 C 
ATOM      8  C   UNL     1     -36.047  26.859   1.932  0.00  0.00    +0.110 C 
ATOM      9  C   UNL     1     -35.477  24.686   0.790  0.00  0.00    +0.324 C 
ATOM     10  C   UNL     1     -35.259  21.309   2.297  0.00  0.00    +0.078 C 
ATOM     11  C   UNL     1     -33.628  26.084   1.544  0.00  0.00    +0.021 C 
ATOM     12  C   UNL     1     -35.275  23.024   4.821  0.00  0.00    +0.012 C 
ATOM     13  C   UNL     1     -36.745  20.912   2.218  0.00  0.00    +0.136 C 
ATOM     14  C   UNL     1     -37.404  26.531   2.531  0.00  0.00    -0.010 C 
ATOM     15  C   UNL     1     -38.590  26.293   1.930  0.00  0.00    -0.025 C 
ATOM     16  C   UNL     1     -37.344  21.127   0.854  0.00  0.00    +0.002 C 
ATOM     17  C   UNL     1     -39.786  26.046   2.811  0.00  0.00    +0.031 C 
ATOM     18  C   UNL     1     -38.756  26.299   0.482  0.00  0.00    -0.007 C 
ATOM     19  C   UNL     1     -38.395  21.932   0.620  0.00  0.00    -0.007 C 
ATOM     20  C   UNL     1     -39.738  25.845  -0.316  0.00  0.00    +0.003 C 
ATOM     21  C   UNL     1     -39.026  22.175  -0.675  0.00  0.00    -0.026 C 
ATOM     22  C   UNL     1     -41.045  25.170  -0.003  0.00  0.00    +0.137 C 
ATOM     23  C   UNL     1     -40.953  23.649   0.205  0.00  0.00    +0.059 C 
ATOM     24  C   UNL     1     -40.135  22.928  -0.838  0.00  0.00    -0.028 C 
ATOM     25  C   UNL     1     -38.392  21.548  -1.894  0.00  0.00    +0.031 C 
ENDROOT
BRANCH   8  27
ATOM     26  O   UNL     1     -35.279  29.508   0.917  0.00  0.00    -0.267 OA
ATOM     27  N   UNL     1     -35.524  27.985   2.682  0.00  0.00    -0.295 N 
ATOM     28  C   UNL     1     -35.199  29.181   2.092  0.00  0.00    +0.281 C 
ATOM     29  H   UNL     1     -35.397  27.886   3.653  0.00  0.00    +0.150 HD
BRANCH  28  31
ATOM     30  O   UNL     1     -35.556  30.911   3.623  0.00  0.00    -0.286 OA
ATOM     31  C   UNL     1     -34.718  30.212   3.073  0.00  0.00    +0.226 C 
ATOM     32  C   UNL     1     -33.240  30.299   3.312  0.00  0.00    +0.082 C 
ENDBRANCH  28  31
ENDBRANCH   8  27
BRANCH  13  33
ATOM     33  O   UNL     1     -36.821  19.512   2.511  0.00  0.00    -0.380 OA
ATOM     34  H   UNL     1     -37.598  19.132   2.073  0.00  0.00    +0.211 HD
ENDBRANCH  13  33
BRANCH  22  35
ATOM     35  O   UNL     1     -41.954  25.413  -1.085  0.00  0.00    -0.380 OA
ATOM     36  H   UNL     1     -42.190  24.571  -1.505  0.00  0.00    +0.211 HD
ENDBRANCH  22  35
TORSDOF 4
ENDMDL
MODEL 6
REMARK VINA RESULT:      -6.3      2.527      5.558
REMARK  Name = 6037480
REMARK  4 active torsions:
REMARK  status: ('A' for Active; 'I' for Inactive)
REMARK    1  A    between atoms: C_8  and  N_27
REMARK    2  A    between atoms: C_13  and  O_33
REMARK    3  A    between atoms: C_22  and  O_35
REMARK    4  A    between atoms: C_28  and  C_31
REMARK                            x       y       z     vdW  Elec       q    Type
REMARK                         _______ _______ _______ _____ _____    ______ ____
ROOT
ATOM      1  O   UNL     1     -34.620  23.980   2.612  0.00  0.00    -0.451 OA
ATOM      2  O   UNL     1     -35.202  27.682   4.153  0.00  0.00    -0.295 OA
ATOM      3  O   UNL     1     -34.958  24.592   0.487  0.00  0.00    -0.250 OA
ATOM      4  C   UNL     1     -35.018  26.372   2.129  0.00  0.00    +0.161 C 
ATOM      5  C   UNL     1     -35.479  25.305   4.449  0.00  0.00    +0.098 C 
ATOM      6  C   UNL     1     -34.407  24.315   4.000  0.00  0.00    +0.178 C 
ATOM      7  C   UNL     1     -35.215  26.563   3.638  0.00  0.00    +0.165 C 
ATOM      8  C   UNL     1     -36.217  27.032   1.359  0.00  0.00    +0.110 C 
ATOM      9  C   UNL     1     -34.884  24.916   1.672  0.00  0.00    +0.324 C 
ATOM     10  C   UNL     1     -34.352  22.999   4.796  0.00  0.00    +0.078 C 
ATOM     11  C   UNL     1     -33.677  27.032   1.747  0.00  0.00    +0.021 C 
ATOM     12  C   UNL     1     -35.451  25.604   5.944  0.00  0.00    +0.012 C 
ATOM     13  C   UNL     1     -35.630  22.140   4.774  0.00  0.00    +0.136 C 
ATOM     14  C   UNL     1     -37.579  26.601   1.876  0.00  0.00    -0.010 C 
ATOM     15  C   UNL     1     -38.467  25.718   1.369  0.00  0.00    -0.025 C 
ATOM     16  C   UNL     1     -35.857  21.449   3.457  0.00  0.00    +0.002 C 
ATOM     17  C   UNL     1     -39.775  25.545   2.094  0.00  0.00    +0.031 C 
ATOM     18  C   UNL     1     -38.218  24.963   0.148  0.00  0.00    -0.007 C 
ATOM     19  C   UNL     1     -36.952  21.630   2.698  0.00  0.00    -0.007 C 
ATOM     20  C   UNL     1     -38.812  23.879  -0.380  0.00  0.00    +0.003 C 
ATOM     21  C   UNL     1     -37.234  20.984   1.418  0.00  0.00    -0.026 C 
ATOM     22  C   UNL     1     -39.972  23.046   0.096  0.00  0.00    +0.137 C 
ATOM     23  C   UNL     1     -39.606  21.951   1.113  0.00  0.00    +0.059 C 
ATOM     24  C   UNL     1     -38.391  21.139   0.741  0.00  0.00    -0.028 C 
ATOM     25  C   UNL     1     -36.161  20.100   0.827  0.00  0.00    +0.031 C 
ENDROOT
BRANCH   8  27
ATOM     26  O   UNL     1     -37.307  28.952  -0.580  0.00  0.00    -0.267 OA
ATOM     27  N   UNL     1     -36.187  28.480   1.425  0.00  0.00    -0.295 N 
ATOM     28  C   UNL     1     -36.734  29.277   0.449  0.00  0.00    +0.281 C 
ATOM     29  H   UNL     1     -35.757  28.909   2.199  0.00  0.00    +0.150 HD
BRANCH  28  31
ATOM     30  O   UNL     1     -36.948  31.533  -0.122  0.00  0.00    -0.286 OA
ATOM     31  C   UNL     1     -36.622  30.744   0.752  0.00  0.00    +0.226 C 
ATOM     32  C   UNL     1     -36.128  31.130   2.114  0.00  0.00    +0.082 C 
ENDBRANCH  28  31
ENDBRANCH   8  27
BRANCH  13  33
ATOM     33  O   UNL     1     -35.473  21.128   5.776  0.00  0.00    -0.380 OA
ATOM     34  H   UNL     1     -34.579  21.179   6.148  0.00  0.00    +0.211 HD
ENDBRANCH  13  33
BRANCH  22  35
ATOM     35  O   UNL     1     -40.573  22.410  -1.040  0.00  0.00    -0.380 OA
ATOM     36  H   UNL     1     -41.432  22.820  -1.224  0.00  0.00    +0.211 HD
ENDBRANCH  22  35
TORSDOF 4
ENDMDL
MODEL 7
REMARK VINA RESULT:      -6.2      4.100      7.861
REMARK  Name = 6037480
REMARK  4 active torsions:
REMARK  status: ('A' for Active; 'I' for Inactive)
REMARK    1  A    between atoms: C_8  and  N_27
REMARK    2  A    between atoms: C_13  and  O_33
REMARK    3  A    between atoms: C_22  and  O_35
REMARK    4  A    between atoms: C_28  and  C_31
REMARK                            x       y       z     vdW  Elec       q    Type
REMARK                         _______ _______ _______ _____ _____    ______ ____
ROOT
ATOM      1  O   UNL     1     -37.044  19.493  -1.706  0.00  0.00    -0.451 OA
ATOM      2  O   UNL     1     -36.748  23.173  -0.037  0.00  0.00    -0.295 OA
ATOM      3  O   UNL     1     -36.866  18.381   0.226  0.00  0.00    -0.250 OA
ATOM      4  C   UNL     1     -36.899  20.798   0.389  0.00  0.00    +0.161 C 
ATOM      5  C   UNL     1     -36.232  21.765  -1.924  0.00  0.00    +0.098 C 
ATOM      6  C   UNL     1     -37.224  20.724  -2.439  0.00  0.00    +0.178 C 
ATOM      7  C   UNL     1     -36.652  22.031  -0.489  0.00  0.00    +0.165 C 
ATOM      8  C   UNL     1     -35.807  20.729   1.513  0.00  0.00    +0.110 C 
ATOM      9  C   UNL     1     -36.915  19.461  -0.361  0.00  0.00    +0.324 C 
ATOM     10  C   UNL     1     -37.116  20.397  -3.939  0.00  0.00    +0.078 C 
ATOM     11  C   UNL     1     -38.314  20.930   0.991  0.00  0.00    +0.021 C 
ATOM     12  C   UNL     1     -36.218  23.055  -2.737  0.00  0.00    +0.012 C 
ATOM     13  C   UNL     1     -35.764  19.833  -4.413  0.00  0.00    +0.136 C 
ATOM     14  C   UNL     1     -34.387  20.853   0.987  0.00  0.00    -0.010 C 
ATOM     15  C   UNL     1     -33.443  19.907   0.787  0.00  0.00    -0.025 C 
ATOM     16  C   UNL     1     -35.534  18.409  -3.986  0.00  0.00    +0.002 C 
ATOM     17  C   UNL     1     -32.092  20.357   0.298  0.00  0.00    +0.031 C 
ATOM     18  C   UNL     1     -33.675  18.494   1.056  0.00  0.00    -0.007 C 
ATOM     19  C   UNL     1     -34.497  18.017  -3.224  0.00  0.00    -0.007 C 
ATOM     20  C   UNL     1     -33.005  17.385   0.696  0.00  0.00    +0.003 C 
ATOM     21  C   UNL     1     -34.215  16.653  -2.783  0.00  0.00    -0.026 C 
ATOM     22  C   UNL     1     -31.750  17.196  -0.113  0.00  0.00    +0.137 C 
ATOM     23  C   UNL     1     -31.962  17.171  -1.636  0.00  0.00    +0.059 C 
ATOM     24  C   UNL     1     -33.110  16.304  -2.090  0.00  0.00    -0.028 C 
ATOM     25  C   UNL     1     -35.224  15.582  -3.124  0.00  0.00    +0.031 C 
ENDROOT
BRANCH   8  27
ATOM     26  O   UNL     1     -35.124  20.623   4.370  0.00  0.00    -0.267 OA
ATOM     27  N   UNL     1     -35.971  21.771   2.510  0.00  0.00    -0.295 N 
ATOM     28  C   UNL     1     -35.612  21.601   3.824  0.00  0.00    +0.281 C 
ATOM     29  H   UNL     1     -36.356  22.633   2.232  0.00  0.00    +0.150 HD
BRANCH  28  31
ATOM     30  O   UNL     1     -36.586  23.688   4.223  0.00  0.00    -0.286 OA
ATOM     31  C   UNL     1     -35.835  22.829   4.661  0.00  0.00    +0.226 C 
ATOM     32  C   UNL     1     -35.126  22.902   5.980  0.00  0.00    +0.082 C 
ENDBRANCH  28  31
ENDBRANCH   8  27
BRANCH  13  33
ATOM     33  O   UNL     1     -35.777  19.861  -5.846  0.00  0.00    -0.380 OA
ATOM     34  H   UNL     1     -36.589  20.292  -6.152  0.00  0.00    +0.211 HD
ENDBRANCH  13  33
BRANCH  22  35
ATOM     35  O   UNL     1     -31.145  15.954   0.268  0.00  0.00    -0.380 OA
ATOM     36  H   UNL     1     -30.348  15.805  -0.264  0.00  0.00    +0.211 HD
ENDBRANCH  22  35
TORSDOF 4
ENDMDL
MODEL 8
REMARK VINA RESULT:      -6.2      2.639      6.306
REMARK  Name = 6037480
REMARK  4 active torsions:
REMARK  status: ('A' for Active; 'I' for Inactive)
REMARK    1  A    between atoms: C_8  and  N_27
REMARK    2  A    between atoms: C_13  and  O_33
REMARK    3  A    between atoms: C_22  and  O_35
REMARK    4  A    between atoms: C_28  and  C_31
REMARK                            x       y       z     vdW  Elec       q    Type
REMARK                         _______ _______ _______ _____ _____    ______ ____
ROOT
ATOM      1  O   UNL     1     -39.150  22.368   0.257  0.00  0.00    -0.451 OA
ATOM      2  O   UNL     1     -37.556  25.985   1.148  0.00  0.00    -0.295 OA
ATOM      3  O   UNL     1     -38.540  21.400   2.179  0.00  0.00    -0.250 OA
ATOM      4  C   UNL     1     -38.027  23.758   1.965  0.00  0.00    +0.161 C 
ATOM      5  C   UNL     1     -38.023  24.350  -0.561  0.00  0.00    +0.098 C 
ATOM      6  C   UNL     1     -39.320  23.545  -0.563  0.00  0.00    +0.178 C 
ATOM      7  C   UNL     1     -37.856  24.822   0.873  0.00  0.00    +0.165 C 
ATOM      8  C   UNL     1     -36.649  23.515   2.677  0.00  0.00    +0.110 C 
ATOM      9  C   UNL     1     -38.571  22.411   1.478  0.00  0.00    +0.324 C 
ATOM     10  C   UNL     1     -39.808  23.084  -1.948  0.00  0.00    +0.078 C 
ATOM     11  C   UNL     1     -39.087  24.277   2.959  0.00  0.00    +0.021 C 
ATOM     12  C   UNL     1     -38.032  25.530  -1.527  0.00  0.00    +0.012 C 
ATOM     13  C   UNL     1     -38.849  22.173  -2.736  0.00  0.00    +0.136 C 
ATOM     14  C   UNL     1     -35.506  23.249   1.711  0.00  0.00    -0.010 C 
ATOM     15  C   UNL     1     -34.903  22.089   1.371  0.00  0.00    -0.025 C 
ATOM     16  C   UNL     1     -38.776  20.774  -2.188  0.00  0.00    +0.002 C 
ATOM     17  C   UNL     1     -33.744  22.158   0.411  0.00  0.00    +0.031 C 
ATOM     18  C   UNL     1     -35.307  20.800   1.917  0.00  0.00    -0.007 C 
ATOM     19  C   UNL     1     -37.642  20.203  -1.746  0.00  0.00    -0.007 C 
ATOM     20  C   UNL     1     -35.041  19.537   1.539  0.00  0.00    +0.003 C 
ATOM     21  C   UNL     1     -37.505  18.850  -1.212  0.00  0.00    -0.026 C 
ATOM     22  C   UNL     1     -34.212  18.987   0.411  0.00  0.00    +0.137 C 
ATOM     23  C   UNL     1     -34.939  18.895  -0.941  0.00  0.00    +0.059 C 
ATOM     24  C   UNL     1     -36.323  18.299  -0.862  0.00  0.00    -0.028 C 
ATOM     25  C   UNL     1     -38.764  18.033  -1.040  0.00  0.00    +0.031 C 
ENDROOT
BRANCH   8  27
ATOM     26  O   UNL     1     -35.945  23.510   5.530  0.00  0.00    -0.267 OA
ATOM     27  N   UNL     1     -36.244  24.640   3.498  0.00  0.00    -0.295 N 
ATOM     28  C   UNL     1     -35.938  24.512   4.830  0.00  0.00    +0.281 C 
ATOM     29  H   UNL     1     -36.187  25.531   3.083  0.00  0.00    +0.150 HD
BRANCH  28  31
ATOM     30  O   UNL     1     -36.333  26.694   5.567  0.00  0.00    -0.286 OA
ATOM     31  C   UNL     1     -35.504  25.803   5.464  0.00  0.00    +0.226 C 
ATOM     32  C   UNL     1     -34.083  25.896   5.934  0.00  0.00    +0.082 C 
ENDBRANCH  28  31
ENDBRANCH   8  27
BRANCH  13  33
ATOM     33  O   UNL     1     -39.352  22.091  -4.074  0.00  0.00    -0.380 OA
ATOM     34  H   UNL     1     -40.313  21.963  -4.050  0.00  0.00    +0.211 HD
ENDBRANCH  13  33
BRANCH  22  35
ATOM     35  O   UNL     1     -33.775  17.668   0.767  0.00  0.00    -0.380 OA
ATOM     36  H   UNL     1     -33.677  17.609   1.730  0.00  0.00    +0.211 HD
ENDBRANCH  22  35
TORSDOF 4
ENDMDL
MODEL 9
REMARK VINA RESULT:      -6.1      2.722      6.126
REMARK  Name = 6037480
REMARK  4 active torsions:
REMARK  status: ('A' for Active; 'I' for Inactive)
REMARK    1  A    between atoms: C_8  and  N_27
REMARK    2  A    between atoms: C_13  and  O_33
REMARK    3  A    between atoms: C_22  and  O_35
REMARK    4  A    between atoms: C_28  and  C_31
REMARK                            x       y       z     vdW  Elec       q    Type
REMARK                         _______ _______ _______ _____ _____    ______ ____
ROOT
ATOM      1  O   UNL     1     -37.366  21.888   2.592  0.00  0.00    -0.451 OA
ATOM      2  O   UNL     1     -37.603  25.873   3.282  0.00  0.00    -0.295 OA
ATOM      3  O   UNL     1     -35.171  21.743   2.998  0.00  0.00    -0.250 OA
ATOM      4  C   UNL     1     -36.174  23.923   3.333  0.00  0.00    +0.161 C 
ATOM      5  C   UNL     1     -38.393  23.997   1.991  0.00  0.00    +0.098 C 
ATOM      6  C   UNL     1     -38.608  22.625   2.625  0.00  0.00    +0.178 C 
ATOM      7  C   UNL     1     -37.423  24.711   2.917  0.00  0.00    +0.165 C 
ATOM      8  C   UNL     1     -34.901  24.597   2.708  0.00  0.00    +0.110 C 
ATOM      9  C   UNL     1     -36.184  22.440   2.946  0.00  0.00    +0.324 C 
ATOM     10  C   UNL     1     -39.688  21.753   1.959  0.00  0.00    +0.078 C 
ATOM     11  C   UNL     1     -36.111  23.929   4.875  0.00  0.00    +0.021 C 
ATOM     12  C   UNL     1     -39.678  24.802   1.821  0.00  0.00    +0.012 C 
ATOM     13  C   UNL     1     -39.458  21.404   0.478  0.00  0.00    +0.136 C 
ATOM     14  C   UNL     1     -35.019  24.847   1.214  0.00  0.00    -0.010 C 
ATOM     15  C   UNL     1     -34.490  24.173   0.171  0.00  0.00    -0.025 C 
ATOM     16  C   UNL     1     -38.370  20.387   0.270  0.00  0.00    +0.002 C 
ATOM     17  C   UNL     1     -34.748  24.708  -1.213  0.00  0.00    +0.031 C 
ATOM     18  C   UNL     1     -33.665  22.983   0.337  0.00  0.00    -0.007 C 
ATOM     19  C   UNL     1     -37.266  20.614  -0.463  0.00  0.00    -0.007 C 
ATOM     20  C   UNL     1     -33.269  22.032  -0.526  0.00  0.00    +0.003 C 
ATOM     21  C   UNL     1     -36.180  19.667  -0.708  0.00  0.00    -0.026 C 
ATOM     22  C   UNL     1     -33.523  21.852  -1.998  0.00  0.00    +0.137 C 
ATOM     23  C   UNL     1     -34.850  21.156  -2.344  0.00  0.00    +0.059 C 
ATOM     24  C   UNL     1     -35.136  19.921  -1.525  0.00  0.00    -0.028 C 
ATOM     25  C   UNL     1     -36.238  18.334  -0.000  0.00  0.00    +0.031 C 
ENDROOT
BRANCH   8  27
ATOM     26  O   UNL     1     -32.272  25.875   3.004  0.00  0.00    -0.267 OA
ATOM     27  N   UNL     1     -34.594  25.875   3.320  0.00  0.00    -0.295 N 
ATOM     28  C   UNL     1     -33.316  26.370   3.399  0.00  0.00    +0.281 C 
ATOM     29  H   UNL     1     -35.332  26.409   3.694  0.00  0.00    +0.150 HD
BRANCH  28  31
ATOM     30  O   UNL     1     -32.938  27.791   5.217  0.00  0.00    -0.286 OA
ATOM     31  C   UNL     1     -33.247  27.730   4.036  0.00  0.00    +0.226 C 
ATOM     32  C   UNL     1     -33.553  28.913   3.168  0.00  0.00    +0.082 C 
ENDBRANCH  28  31
ENDBRANCH   8  27
BRANCH  13  33
ATOM     33  O   UNL     1     -40.680  20.842  -0.015  0.00  0.00    -0.380 OA
ATOM     34  H   UNL     1     -41.416  21.437   0.194  0.00  0.00    +0.211 HD
ENDBRANCH  13  33
BRANCH  22  35
ATOM     35  O   UNL     1     -32.457  21.068  -2.552  0.00  0.00    -0.380 OA
ATOM     36  H   UNL     1     -32.828  20.327  -3.055  0.00  0.00    +0.211 HD
ENDBRANCH  22  35
TORSDOF 4
ENDMDL
