MODEL 1
REMARK VINA RESULT:      -6.1      0.000      0.000
REMARK  Name = 5320823
REMARK  7 active torsions:
REMARK  status: ('A' for Active; 'I' for Inactive)
REMARK    1  A    between atoms: C_4  and  C_12
REMARK    2  A    between atoms: C_6  and  O_22
REMARK    3  A    between atoms: C_8  and  O_24
REMARK    4  A    between atoms: C_10  and  O_26
REMARK    5  A    between atoms: C_11  and  O_28
REMARK    6  A    between atoms: C_15  and  O_20
REMARK    7  A    between atoms: C_17  and  O_18
REMARK                            x       y       z     vdW  Elec       q    Type
REMARK                         _______ _______ _______ _____ _____    ______ ____
ROOT
ATOM      1  O   UNL     1     -35.180  22.716   2.728  0.00  0.00    -0.450 OA
ATOM      2  O   UNL     1     -39.209  22.841   2.138  0.00  0.00    -0.283 OA
ATOM      3  C   UNL     1     -37.187  21.658   1.867  0.00  0.00    +0.113 A 
ATOM      4  C   UNL     1     -35.940  23.789   3.163  0.00  0.00    +0.182 A 
ATOM      5  C   UNL     1     -35.813  21.677   2.097  0.00  0.00    +0.155 A 
ATOM      6  C   UNL     1     -37.272  23.898   2.996  0.00  0.00    +0.212 A 
ATOM      7  C   UNL     1     -37.999  22.798   2.317  0.00  0.00    +0.238 A 
ATOM      8  C   UNL     1     -37.779  20.571   1.219  0.00  0.00    +0.177 C 
ATOM      9  C   UNL     1     -35.021  20.608   1.678  0.00  0.00    +0.078 C 
ATOM     10  C   UNL     1     -36.984  19.503   0.801  0.00  0.00    +0.202 C 
ATOM     11  C   UNL     1     -35.608  19.521   1.030  0.00  0.00    +0.174 C 
ENDROOT
BRANCH   4  12
ATOM     12  C   UNL     1     -35.137  24.834   3.822  0.00  0.00    +0.041 C 
ATOM     13  C   UNL     1     -34.447  25.772   3.052  0.00  0.00    +0.043 C 
ATOM     14  C   UNL     1     -35.065  24.887   5.214  0.00  0.00    +0.006 C 
ATOM     15  C   UNL     1     -33.687  26.762   3.675  0.00  0.00    +0.168 C 
ATOM     16  C   UNL     1     -34.305  25.877   5.837  0.00  0.00    +0.040 C 
ATOM     17  C   UNL     1     -33.615  26.814   5.068  0.00  0.00    +0.172 C 
BRANCH  17  18
ATOM     18  O   UNL     1     -32.876  27.775   5.688  0.00  0.00    -0.468 OA
ATOM     19  C   UNL     1     -32.400  27.482   7.000  0.00  0.00    +0.253 C 
ENDBRANCH  17  18
BRANCH  15  20
ATOM     20  O   UNL     1     -33.017  27.672   2.914  0.00  0.00    -0.503 OA
ATOM     21  H   UNL     1     -32.107  27.831   3.068  0.00  0.00    +0.292 HD
ENDBRANCH  15  20
ENDBRANCH   4  12
BRANCH   6  22
ATOM     22  O   UNL     1     -37.995  24.994   3.413  0.00  0.00    -0.465 OA
ATOM     23  C   UNL     1     -38.074  25.964   2.385  0.00  0.00    +0.253 C 
ENDBRANCH   6  22
BRANCH   8  24
ATOM     24  O   UNL     1     -39.119  20.516   0.975  0.00  0.00    -0.503 OA
ATOM     25  H   UNL     1     -39.505  19.724   0.656  0.00  0.00    +0.292 HD
ENDBRANCH   8  24
BRANCH  10  26
ATOM     26  O   UNL     1     -37.550  18.437   0.166  0.00  0.00    -0.501 OA
ATOM     27  H   UNL     1     -38.397  18.131   0.427  0.00  0.00    +0.292 HD
ENDBRANCH  10  26
BRANCH  11  28
ATOM     28  O   UNL     1     -34.825  18.483   0.625  0.00  0.00    -0.503 OA
ATOM     29  H   UNL     1     -34.015  18.307   1.064  0.00  0.00    +0.292 HD
ENDBRANCH  11  28
TORSDOF 7
ENDMDL
MODEL 2
REMARK VINA RESULT:      -6.1      2.604      6.492
REMARK  Name = 5320823
REMARK  7 active torsions:
REMARK  status: ('A' for Active; 'I' for Inactive)
REMARK    1  A    between atoms: C_4  and  C_12
REMARK    2  A    between atoms: C_6  and  O_22
REMARK    3  A    between atoms: C_8  and  O_24
REMARK    4  A    between atoms: C_10  and  O_26
REMARK    5  A    between atoms: C_11  and  O_28
REMARK    6  A    between atoms: C_15  and  O_20
REMARK    7  A    between atoms: C_17  and  O_18
REMARK                            x       y       z     vdW  Elec       q    Type
REMARK                         _______ _______ _______ _____ _____    ______ ____
ROOT
ATOM      1  O   UNL     1     -35.272  22.350   2.098  0.00  0.00    -0.450 OA
ATOM      2  O   UNL     1     -38.908  20.927   0.933  0.00  0.00    -0.283 OA
ATOM      3  C   UNL     1     -37.690  22.552   2.132  0.00  0.00    +0.113 A 
ATOM      4  C   UNL     1     -35.383  21.232   1.288  0.00  0.00    +0.182 A 
ATOM      5  C   UNL     1     -36.418  22.987   2.497  0.00  0.00    +0.155 A 
ATOM      6  C   UNL     1     -36.551  20.705   0.871  0.00  0.00    +0.212 A 
ATOM      7  C   UNL     1     -37.817  21.359   1.281  0.00  0.00    +0.238 A 
ATOM      8  C   UNL     1     -38.824  23.242   2.570  0.00  0.00    +0.177 C 
ATOM      9  C   UNL     1     -36.272  24.115   3.306  0.00  0.00    +0.078 C 
ATOM     10  C   UNL     1     -38.674  24.369   3.377  0.00  0.00    +0.202 C 
ATOM     11  C   UNL     1     -37.401  24.805   3.745  0.00  0.00    +0.174 C 
ENDROOT
BRANCH   4  12
ATOM     12  C   UNL     1     -34.079  20.645   0.934  0.00  0.00    +0.041 C 
ATOM     13  C   UNL     1     -33.702  19.410   1.464  0.00  0.00    +0.043 C 
ATOM     14  C   UNL     1     -33.220  21.323   0.069  0.00  0.00    +0.006 C 
ATOM     15  C   UNL     1     -32.467  18.855   1.128  0.00  0.00    +0.168 C 
ATOM     16  C   UNL     1     -31.985  20.768  -0.267  0.00  0.00    +0.040 C 
ATOM     17  C   UNL     1     -31.608  19.534   0.263  0.00  0.00    +0.172 C 
BRANCH  17  18
ATOM     18  O   UNL     1     -30.400  19.001  -0.071  0.00  0.00    -0.468 OA
ATOM     19  C   UNL     1     -29.446  19.882  -0.662  0.00  0.00    +0.253 C 
ENDBRANCH  17  18
BRANCH  15  20
ATOM     20  O   UNL     1     -32.110  17.649   1.652  0.00  0.00    -0.503 OA
ATOM     21  H   UNL     1     -31.595  17.613   2.434  0.00  0.00    +0.292 HD
ENDBRANCH  15  20
ENDBRANCH   4  12
BRANCH   6  22
ATOM     22  O   UNL     1     -36.629  19.572   0.092  0.00  0.00    -0.465 OA
ATOM     23  C   UNL     1     -36.641  19.907  -1.283  0.00  0.00    +0.253 C 
ENDBRANCH   6  22
BRANCH   8  24
ATOM     24  O   UNL     1     -40.085  22.847   2.233  0.00  0.00    -0.503 OA
ATOM     25  H   UNL     1     -40.781  23.474   2.208  0.00  0.00    +0.292 HD
ENDBRANCH   8  24
BRANCH  10  26
ATOM     26  O   UNL     1     -39.774  25.050   3.811  0.00  0.00    -0.501 OA
ATOM     27  H   UNL     1     -40.009  25.033   4.718  0.00  0.00    +0.292 HD
ENDBRANCH  10  26
BRANCH  11  28
ATOM     28  O   UNL     1     -37.246  25.905   4.533  0.00  0.00    -0.503 OA
ATOM     29  H   UNL     1     -37.216  26.759   4.147  0.00  0.00    +0.292 HD
ENDBRANCH  11  28
TORSDOF 7
ENDMDL
MODEL 3
REMARK VINA RESULT:      -6.0      3.749      6.033
REMARK  Name = 5320823
REMARK  7 active torsions:
REMARK  status: ('A' for Active; 'I' for Inactive)
REMARK    1  A    between atoms: C_4  and  C_12
REMARK    2  A    between atoms: C_6  and  O_22
REMARK    3  A    between atoms: C_8  and  O_24
REMARK    4  A    between atoms: C_10  and  O_26
REMARK    5  A    between atoms: C_11  and  O_28
REMARK    6  A    between atoms: C_15  and  O_20
REMARK    7  A    between atoms: C_17  and  O_18
REMARK                            x       y       z     vdW  Elec       q    Type
REMARK                         _______ _______ _______ _____ _____    ______ ____
ROOT
ATOM      1  O   UNL     1     -32.988  26.765   5.186  0.00  0.00    -0.450 OA
ATOM      2  O   UNL     1     -35.370  28.505   2.376  0.00  0.00    -0.283 OA
ATOM      3  C   UNL     1     -35.042  26.730   3.893  0.00  0.00    +0.113 A 
ATOM      4  C   UNL     1     -32.626  27.950   4.567  0.00  0.00    +0.182 A 
ATOM      5  C   UNL     1     -34.182  26.184   4.844  0.00  0.00    +0.155 A 
ATOM      6  C   UNL     1     -33.361  28.575   3.627  0.00  0.00    +0.212 A 
ATOM      7  C   UNL     1     -34.659  27.982   3.223  0.00  0.00    +0.238 A 
ATOM      8  C   UNL     1     -36.246  26.093   3.583  0.00  0.00    +0.177 C 
ATOM      9  C   UNL     1     -34.522  24.996   5.491  0.00  0.00    +0.078 C 
ATOM     10  C   UNL     1     -36.584  24.905   4.233  0.00  0.00    +0.202 C 
ATOM     11  C   UNL     1     -35.723  24.358   5.185  0.00  0.00    +0.174 C 
ENDROOT
BRANCH   4  12
ATOM     12  C   UNL     1     -31.324  28.464   5.025  0.00  0.00    +0.041 C 
ATOM     13  C   UNL     1     -30.184  28.275   4.241  0.00  0.00    +0.043 C 
ATOM     14  C   UNL     1     -31.228  29.140   6.241  0.00  0.00    +0.006 C 
ATOM     15  C   UNL     1     -28.951  28.762   4.675  0.00  0.00    +0.168 C 
ATOM     16  C   UNL     1     -29.995  29.627   6.675  0.00  0.00    +0.040 C 
ATOM     17  C   UNL     1     -28.856  29.438   5.892  0.00  0.00    +0.172 C 
BRANCH  17  18
ATOM     18  O   UNL     1     -27.658  29.918   6.326  0.00  0.00    -0.468 OA
ATOM     19  C   UNL     1     -27.458  29.982   7.737  0.00  0.00    +0.253 C 
ENDBRANCH  17  18
BRANCH  15  20
ATOM     20  O   UNL     1     -27.846  28.572   3.902  0.00  0.00    -0.503 OA
ATOM     21  H   UNL     1     -27.381  29.310   3.560  0.00  0.00    +0.292 HD
ENDBRANCH  15  20
ENDBRANCH   4  12
BRANCH   6  22
ATOM     22  O   UNL     1     -32.958  29.737   3.006  0.00  0.00    -0.465 OA
ATOM     23  C   UNL     1     -33.462  30.871   3.686  0.00  0.00    +0.253 C 
ENDBRANCH   6  22
BRANCH   8  24
ATOM     24  O   UNL     1     -37.114  26.596   2.659  0.00  0.00    -0.503 OA
ATOM     25  H   UNL     1     -37.437  26.046   1.973  0.00  0.00    +0.292 HD
ENDBRANCH   8  24
BRANCH  10  26
ATOM     26  O   UNL     1     -37.757  24.275   3.938  0.00  0.00    -0.501 OA
ATOM     27  H   UNL     1     -37.805  23.339   3.960  0.00  0.00    +0.292 HD
ENDBRANCH  10  26
BRANCH  11  28
ATOM     28  O   UNL     1     -36.045  23.198   5.823  0.00  0.00    -0.503 OA
ATOM     29  H   UNL     1     -35.609  22.400   5.594  0.00  0.00    +0.292 HD
ENDBRANCH  11  28
TORSDOF 7
ENDMDL
MODEL 4
REMARK VINA RESULT:      -5.9      2.507      4.560
REMARK  Name = 5320823
REMARK  7 active torsions:
REMARK  status: ('A' for Active; 'I' for Inactive)
REMARK    1  A    between atoms: C_4  and  C_12
REMARK    2  A    between atoms: C_6  and  O_22
REMARK    3  A    between atoms: C_8  and  O_24
REMARK    4  A    between atoms: C_10  and  O_26
REMARK    5  A    between atoms: C_11  and  O_28
REMARK    6  A    between atoms: C_15  and  O_20
REMARK    7  A    between atoms: C_17  and  O_18
REMARK                            x       y       z     vdW  Elec       q    Type
REMARK                         _______ _______ _______ _____ _____    ______ ____
ROOT
ATOM      1  O   UNL     1     -33.991  19.831   1.915  0.00  0.00    -0.450 OA
ATOM      2  O   UNL     1     -36.916  18.538  -0.610  0.00  0.00    -0.283 OA
ATOM      3  C   UNL     1     -34.729  18.254   0.224  0.00  0.00    +0.113 A 
ATOM      4  C   UNL     1     -35.225  20.459   1.858  0.00  0.00    +0.182 A 
ATOM      5  C   UNL     1     -33.770  18.746   1.107  0.00  0.00    +0.155 A 
ATOM      6  C   UNL     1     -36.232  20.088   1.045  0.00  0.00    +0.212 A 
ATOM      7  C   UNL     1     -36.037  18.922   0.150  0.00  0.00    +0.238 A 
ATOM      8  C   UNL     1     -34.446  17.144  -0.577  0.00  0.00    +0.177 C 
ATOM      9  C   UNL     1     -32.520  18.132   1.193  0.00  0.00    +0.078 C 
ATOM     10  C   UNL     1     -33.196  16.532  -0.487  0.00  0.00    +0.202 C 
ATOM     11  C   UNL     1     -32.235  17.025   0.396  0.00  0.00    +0.174 C 
ENDROOT
BRANCH   4  12
ATOM     12  C   UNL     1     -35.330  21.607   2.775  0.00  0.00    +0.041 C 
ATOM     13  C   UNL     1     -35.651  21.402   4.117  0.00  0.00    +0.043 C 
ATOM     14  C   UNL     1     -35.107  22.901   2.302  0.00  0.00    +0.006 C 
ATOM     15  C   UNL     1     -35.749  22.490   4.985  0.00  0.00    +0.168 C 
ATOM     16  C   UNL     1     -35.205  23.989   3.170  0.00  0.00    +0.040 C 
ATOM     17  C   UNL     1     -35.527  23.784   4.511  0.00  0.00    +0.172 C 
BRANCH  17  18
ATOM     18  O   UNL     1     -35.620  24.853   5.349  0.00  0.00    -0.468 OA
ATOM     19  C   UNL     1     -34.429  25.607   5.573  0.00  0.00    +0.253 C 
ENDBRANCH  17  18
BRANCH  15  20
ATOM     20  O   UNL     1     -36.065  22.278   6.294  0.00  0.00    -0.503 OA
ATOM     21  H   UNL     1     -36.799  22.716   6.675  0.00  0.00    +0.292 HD
ENDBRANCH  15  20
ENDBRANCH   4  12
BRANCH   6  22
ATOM     22  O   UNL     1     -37.438  20.754   0.988  0.00  0.00    -0.465 OA
ATOM     23  C   UNL     1     -37.478  21.628  -0.124  0.00  0.00    +0.253 C 
ENDBRANCH   6  22
BRANCH   8  24
ATOM     24  O   UNL     1     -35.358  16.633  -1.452  0.00  0.00    -0.503 OA
ATOM     25  H   UNL     1     -35.132  15.899  -1.988  0.00  0.00    +0.292 HD
ENDBRANCH   8  24
BRANCH  10  26
ATOM     26  O   UNL     1     -32.909  15.448  -1.265  0.00  0.00    -0.501 OA
ATOM     27  H   UNL     1     -32.603  15.568  -2.142  0.00  0.00    +0.292 HD
ENDBRANCH  10  26
BRANCH  11  28
ATOM     28  O   UNL     1     -31.012  16.432   0.488  0.00  0.00    -0.503 OA
ATOM     29  H   UNL     1     -30.941  15.497   0.474  0.00  0.00    +0.292 HD
ENDBRANCH  11  28
TORSDOF 7
ENDMDL
MODEL 5
REMARK VINA RESULT:      -5.9      2.788      4.930
REMARK  Name = 5320823
REMARK  7 active torsions:
REMARK  status: ('A' for Active; 'I' for Inactive)
REMARK    1  A    between atoms: C_4  and  C_12
REMARK    2  A    between atoms: C_6  and  O_22
REMARK    3  A    between atoms: C_8  and  O_24
REMARK    4  A    between atoms: C_10  and  O_26
REMARK    5  A    between atoms: C_11  and  O_28
REMARK    6  A    between atoms: C_15  and  O_20
REMARK    7  A    between atoms: C_17  and  O_18
REMARK                            x       y       z     vdW  Elec       q    Type
REMARK                         _______ _______ _______ _____ _____    ______ ____
ROOT
ATOM      1  O   UNL     1     -33.502  25.908   4.878  0.00  0.00    -0.450 OA
ATOM      2  O   UNL     1     -35.713  26.840   1.585  0.00  0.00    -0.283 OA
ATOM      3  C   UNL     1     -35.297  25.332   3.350  0.00  0.00    +0.113 A 
ATOM      4  C   UNL     1     -33.274  27.072   4.161  0.00  0.00    +0.182 A 
ATOM      5  C   UNL     1     -34.504  25.069   4.465  0.00  0.00    +0.155 A 
ATOM      6  C   UNL     1     -33.961  27.437   3.063  0.00  0.00    +0.212 A 
ATOM      7  C   UNL     1     -35.053  26.559   2.577  0.00  0.00    +0.238 A 
ATOM      8  C   UNL     1     -36.305  24.439   2.975  0.00  0.00    +0.177 C 
ATOM      9  C   UNL     1     -34.714  23.910   5.213  0.00  0.00    +0.078 C 
ATOM     10  C   UNL     1     -36.512  23.282   3.725  0.00  0.00    +0.202 C 
ATOM     11  C   UNL     1     -35.719  23.017   4.842  0.00  0.00    +0.174 C 
ENDROOT
BRANCH   4  12
ATOM     12  C   UNL     1     -32.171  27.879   4.710  0.00  0.00    +0.041 C 
ATOM     13  C   UNL     1     -32.222  28.322   6.033  0.00  0.00    +0.043 C 
ATOM     14  C   UNL     1     -31.075  28.202   3.910  0.00  0.00    +0.006 C 
ATOM     15  C   UNL     1     -31.177  29.087   6.553  0.00  0.00    +0.168 C 
ATOM     16  C   UNL     1     -30.030  28.966   4.430  0.00  0.00    +0.040 C 
ATOM     17  C   UNL     1     -30.082  29.409   5.751  0.00  0.00    +0.172 C 
BRANCH  17  18
ATOM     18  O   UNL     1     -29.056  30.155   6.248  0.00  0.00    -0.468 OA
ATOM     19  C   UNL     1     -28.512  31.160   5.393  0.00  0.00    +0.253 C 
ENDBRANCH  17  18
BRANCH  15  20
ATOM     20  O   UNL     1     -31.238  29.514   7.845  0.00  0.00    -0.503 OA
ATOM     21  H   UNL     1     -30.468  29.500   8.379  0.00  0.00    +0.292 HD
ENDBRANCH  15  20
ENDBRANCH   4  12
BRANCH   6  22
ATOM     22  O   UNL     1     -33.689  28.586   2.352  0.00  0.00    -0.465 OA
ATOM     23  C   UNL     1     -34.505  29.655   2.793  0.00  0.00    +0.253 C 
ENDBRANCH   6  22
BRANCH   8  24
ATOM     24  O   UNL     1     -37.100  24.661   1.890  0.00  0.00    -0.503 OA
ATOM     25  H   UNL     1     -36.788  25.185   1.180  0.00  0.00    +0.292 HD
ENDBRANCH   8  24
BRANCH  10  26
ATOM     26  O   UNL     1     -37.493  22.403   3.368  0.00  0.00    -0.501 OA
ATOM     27  H   UNL     1     -38.054  22.035   4.022  0.00  0.00    +0.292 HD
ENDBRANCH  10  26
BRANCH  11  28
ATOM     28  O   UNL     1     -35.915  21.889   5.579  0.00  0.00    -0.503 OA
ATOM     29  H   UNL     1     -36.681  21.805   6.113  0.00  0.00    +0.292 HD
ENDBRANCH  11  28
TORSDOF 7
ENDMDL
MODEL 6
REMARK VINA RESULT:      -5.8      1.900      7.566
REMARK  Name = 5320823
REMARK  7 active torsions:
REMARK  status: ('A' for Active; 'I' for Inactive)
REMARK    1  A    between atoms: C_4  and  C_12
REMARK    2  A    between atoms: C_6  and  O_22
REMARK    3  A    between atoms: C_8  and  O_24
REMARK    4  A    between atoms: C_10  and  O_26
REMARK    5  A    between atoms: C_11  and  O_28
REMARK    6  A    between atoms: C_15  and  O_20
REMARK    7  A    between atoms: C_17  and  O_18
REMARK                            x       y       z     vdW  Elec       q    Type
REMARK                         _______ _______ _______ _____ _____    ______ ____
ROOT
ATOM      1  O   UNL     1     -35.944  25.473   2.371  0.00  0.00    -0.450 OA
ATOM      2  O   UNL     1     -34.369  25.399   6.128  0.00  0.00    -0.283 OA
ATOM      3  C   UNL     1     -34.401  26.406   3.996  0.00  0.00    +0.113 A 
ATOM      4  C   UNL     1     -36.373  24.554   3.315  0.00  0.00    +0.182 A 
ATOM      5  C   UNL     1     -34.978  26.378   2.728  0.00  0.00    +0.155 A 
ATOM      6  C   UNL     1     -35.892  24.471   4.570  0.00  0.00    +0.212 A 
ATOM      7  C   UNL     1     -34.843  25.427   5.000  0.00  0.00    +0.238 A 
ATOM      8  C   UNL     1     -33.419  27.351   4.303  0.00  0.00    +0.177 C 
ATOM      9  C   UNL     1     -34.573  27.294   1.757  0.00  0.00    +0.078 C 
ATOM     10  C   UNL     1     -33.017  28.267   3.331  0.00  0.00    +0.202 C 
ATOM     11  C   UNL     1     -33.593  28.239   2.060  0.00  0.00    +0.174 C 
ENDROOT
BRANCH   4  12
ATOM     12  C   UNL     1     -37.410  23.643   2.802  0.00  0.00    +0.041 C 
ATOM     13  C   UNL     1     -37.060  22.367   2.357  0.00  0.00    +0.043 C 
ATOM     14  C   UNL     1     -38.742  24.055   2.759  0.00  0.00    +0.006 C 
ATOM     15  C   UNL     1     -38.043  21.504   1.872  0.00  0.00    +0.168 C 
ATOM     16  C   UNL     1     -39.725  23.192   2.274  0.00  0.00    +0.040 C 
ATOM     17  C   UNL     1     -39.375  21.917   1.830  0.00  0.00    +0.172 C 
BRANCH  17  18
ATOM     18  O   UNL     1     -40.343  21.083   1.357  0.00  0.00    -0.468 OA
ATOM     19  C   UNL     1     -40.726  21.243  -0.008  0.00  0.00    +0.253 C 
ENDBRANCH  17  18
BRANCH  15  20
ATOM     20  O   UNL     1     -37.690  20.261   1.440  0.00  0.00    -0.503 OA
ATOM     21  H   UNL     1     -37.032  19.776   1.898  0.00  0.00    +0.292 HD
ENDBRANCH  15  20
ENDBRANCH   4  12
BRANCH   6  22
ATOM     22  O   UNL     1     -36.317  23.523   5.477  0.00  0.00    -0.465 OA
ATOM     23  C   UNL     1     -35.376  22.470   5.581  0.00  0.00    +0.253 C 
ENDBRANCH   6  22
BRANCH   8  24
ATOM     24  O   UNL     1     -32.831  27.410   5.532  0.00  0.00    -0.503 OA
ATOM     25  H   UNL     1     -33.346  27.284   6.304  0.00  0.00    +0.292 HD
ENDBRANCH   8  24
BRANCH  10  26
ATOM     26  O   UNL     1     -32.059  29.194   3.619  0.00  0.00    -0.501 OA
ATOM     27  H   UNL     1     -32.238  30.106   3.503  0.00  0.00    +0.292 HD
ENDBRANCH  10  26
BRANCH  11  28
ATOM     28  O   UNL     1     -33.206  29.129   1.105  0.00  0.00    -0.503 OA
ATOM     29  H   UNL     1     -32.308  29.392   1.044  0.00  0.00    +0.292 HD
ENDBRANCH  11  28
TORSDOF 7
ENDMDL
MODEL 7
REMARK VINA RESULT:      -5.8      1.885      7.085
REMARK  Name = 5320823
REMARK  7 active torsions:
REMARK  status: ('A' for Active; 'I' for Inactive)
REMARK    1  A    between atoms: C_4  and  C_12
REMARK    2  A    between atoms: C_6  and  O_22
REMARK    3  A    between atoms: C_8  and  O_24
REMARK    4  A    between atoms: C_10  and  O_26
REMARK    5  A    between atoms: C_11  and  O_28
REMARK    6  A    between atoms: C_15  and  O_20
REMARK    7  A    between atoms: C_17  and  O_18
REMARK                            x       y       z     vdW  Elec       q    Type
REMARK                         _______ _______ _______ _____ _____    ______ ____
ROOT
ATOM      1  O   UNL     1     -34.634  22.597   2.296  0.00  0.00    -0.450 OA
ATOM      2  O   UNL     1     -38.670  22.796   2.822  0.00  0.00    -0.283 OA
ATOM      3  C   UNL     1     -36.549  23.722   3.275  0.00  0.00    +0.113 A 
ATOM      4  C   UNL     1     -35.485  21.676   1.707  0.00  0.00    +0.182 A 
ATOM      5  C   UNL     1     -35.178  23.598   3.059  0.00  0.00    +0.155 A 
ATOM      6  C   UNL     1     -36.825  21.679   1.844  0.00  0.00    +0.212 A 
ATOM      7  C   UNL     1     -37.458  22.741   2.663  0.00  0.00    +0.238 A 
ATOM      8  C   UNL     1     -37.048  24.763   4.063  0.00  0.00    +0.177 C 
ATOM      9  C   UNL     1     -34.296  24.514   3.631  0.00  0.00    +0.078 C 
ATOM     10  C   UNL     1     -36.162  25.678   4.633  0.00  0.00    +0.202 C 
ATOM     11  C   UNL     1     -34.790  25.554   4.418  0.00  0.00    +0.174 C 
ENDROOT
BRANCH   4  12
ATOM     12  C   UNL     1     -34.772  20.657   0.918  0.00  0.00    +0.041 C 
ATOM     13  C   UNL     1     -34.047  19.654   1.565  0.00  0.00    +0.043 C 
ATOM     14  C   UNL     1     -34.820  20.692  -0.476  0.00  0.00    +0.006 C 
ATOM     15  C   UNL     1     -33.372  18.689   0.817  0.00  0.00    +0.168 C 
ATOM     16  C   UNL     1     -34.146  19.727  -1.224  0.00  0.00    +0.040 C 
ATOM     17  C   UNL     1     -33.421  18.726  -0.577  0.00  0.00    +0.172 C 
BRANCH  17  18
ATOM     18  O   UNL     1     -32.766  17.789  -1.317  0.00  0.00    -0.468 OA
ATOM     19  C   UNL     1     -33.540  16.697  -1.813  0.00  0.00    +0.253 C 
ENDBRANCH  17  18
BRANCH  15  20
ATOM     20  O   UNL     1     -32.667  17.716   1.459  0.00  0.00    -0.503 OA
ATOM     21  H   UNL     1     -32.599  17.727   2.393  0.00  0.00    +0.292 HD
ENDBRANCH  15  20
ENDBRANCH   4  12
BRANCH   6  22
ATOM     22  O   UNL     1     -37.642  20.728   1.271  0.00  0.00    -0.465 OA
ATOM     23  C   UNL     1     -38.291  21.248   0.126  0.00  0.00    +0.253 C 
ENDBRANCH   6  22
BRANCH   8  24
ATOM     24  O   UNL     1     -38.381  24.918   4.298  0.00  0.00    -0.503 OA
ATOM     25  H   UNL     1     -38.813  24.373   4.927  0.00  0.00    +0.292 HD
ENDBRANCH   8  24
BRANCH  10  26
ATOM     26  O   UNL     1     -36.637  26.698   5.405  0.00  0.00    -0.501 OA
ATOM     27  H   UNL     1     -37.513  27.008   5.285  0.00  0.00    +0.292 HD
ENDBRANCH  10  26
BRANCH  11  28
ATOM     28  O   UNL     1     -33.919  26.444   4.972  0.00  0.00    -0.503 OA
ATOM     29  H   UNL     1     -34.198  26.997   5.676  0.00  0.00    +0.292 HD
ENDBRANCH  11  28
TORSDOF 7
ENDMDL
MODEL 8
REMARK VINA RESULT:      -5.7      3.261      6.812
REMARK  Name = 5320823
REMARK  7 active torsions:
REMARK  status: ('A' for Active; 'I' for Inactive)
REMARK    1  A    between atoms: C_4  and  C_12
REMARK    2  A    between atoms: C_6  and  O_22
REMARK    3  A    between atoms: C_8  and  O_24
REMARK    4  A    between atoms: C_10  and  O_26
REMARK    5  A    between atoms: C_11  and  O_28
REMARK    6  A    between atoms: C_15  and  O_20
REMARK    7  A    between atoms: C_17  and  O_18
REMARK                            x       y       z     vdW  Elec       q    Type
REMARK                         _______ _______ _______ _____ _____    ______ ____
ROOT
ATOM      1  O   UNL     1     -34.531  20.808   1.726  0.00  0.00    -0.450 OA
ATOM      2  O   UNL     1     -37.746  19.061  -0.065  0.00  0.00    -0.283 OA
ATOM      3  C   UNL     1     -36.931  20.742   1.374  0.00  0.00    +0.113 A 
ATOM      4  C   UNL     1     -34.382  19.731   0.867  0.00  0.00    +0.182 A 
ATOM      5  C   UNL     1     -35.792  21.293   1.958  0.00  0.00    +0.155 A 
ATOM      6  C   UNL     1     -35.399  19.104   0.248  0.00  0.00    +0.212 A 
ATOM      7  C   UNL     1     -36.782  19.591   0.471  0.00  0.00    +0.238 A 
ATOM      8  C   UNL     1     -38.193  21.277   1.648  0.00  0.00    +0.177 C 
ATOM      9  C   UNL     1     -35.908  22.383   2.820  0.00  0.00    +0.078 C 
ATOM     10  C   UNL     1     -38.305  22.368   2.511  0.00  0.00    +0.202 C 
ATOM     11  C   UNL     1     -37.165  22.919   3.096  0.00  0.00    +0.174 C 
ENDROOT
BRANCH   4  12
ATOM     12  C   UNL     1     -32.979  19.312   0.708  0.00  0.00    +0.041 C 
ATOM     13  C   UNL     1     -32.088  20.114  -0.008  0.00  0.00    +0.043 C 
ATOM     14  C   UNL     1     -32.539  18.114   1.272  0.00  0.00    +0.006 C 
ATOM     15  C   UNL     1     -30.759  19.717  -0.158  0.00  0.00    +0.168 C 
ATOM     16  C   UNL     1     -31.210  17.717   1.122  0.00  0.00    +0.040 C 
ATOM     17  C   UNL     1     -30.320  18.518   0.406  0.00  0.00    +0.172 C 
BRANCH  17  18
ATOM     18  O   UNL     1     -29.025  18.121   0.265  0.00  0.00    -0.468 OA
ATOM     19  C   UNL     1     -28.325  17.760   1.455  0.00  0.00    +0.253 C 
ENDBRANCH  17  18
BRANCH  15  20
ATOM     20  O   UNL     1     -29.899  20.507  -0.860  0.00  0.00    -0.503 OA
ATOM     21  H   UNL     1     -29.115  20.141  -1.220  0.00  0.00    +0.292 HD
ENDBRANCH  15  20
ENDBRANCH   4  12
BRANCH   6  22
ATOM     22  O   UNL     1     -35.221  18.013  -0.575  0.00  0.00    -0.465 OA
ATOM     23  C   UNL     1     -35.069  18.420  -1.922  0.00  0.00    +0.253 C 
ENDBRANCH   6  22
BRANCH   8  24
ATOM     24  O   UNL     1     -39.330  20.765   1.098  0.00  0.00    -0.503 OA
ATOM     25  H   UNL     1     -39.846  21.289   0.516  0.00  0.00    +0.292 HD
ENDBRANCH   8  24
BRANCH  10  26
ATOM     26  O   UNL     1     -39.531  22.898   2.786  0.00  0.00    -0.501 OA
ATOM     27  H   UNL     1     -40.306  22.481   2.463  0.00  0.00    +0.292 HD
ENDBRANCH  10  26
BRANCH  11  28
ATOM     28  O   UNL     1     -37.266  23.984   3.939  0.00  0.00    -0.503 OA
ATOM     29  H   UNL     1     -37.873  24.675   3.753  0.00  0.00    +0.292 HD
ENDBRANCH  11  28
TORSDOF 7
ENDMDL
MODEL 9
REMARK VINA RESULT:      -5.6      2.327      8.138
REMARK  Name = 5320823
REMARK  7 active torsions:
REMARK  status: ('A' for Active; 'I' for Inactive)
REMARK    1  A    between atoms: C_4  and  C_12
REMARK    2  A    between atoms: C_6  and  O_22
REMARK    3  A    between atoms: C_8  and  O_24
REMARK    4  A    between atoms: C_10  and  O_26
REMARK    5  A    between atoms: C_11  and  O_28
REMARK    6  A    between atoms: C_15  and  O_20
REMARK    7  A    between atoms: C_17  and  O_18
REMARK                            x       y       z     vdW  Elec       q    Type
REMARK                         _______ _______ _______ _____ _____    ______ ____
ROOT
ATOM      1  O   UNL     1     -33.425  26.291   4.774  0.00  0.00    -0.450 OA
ATOM      2  O   UNL     1     -34.139  29.171   1.981  0.00  0.00    -0.283 OA
ATOM      3  C   UNL     1     -33.126  28.581   4.028  0.00  0.00    +0.113 A 
ATOM      4  C   UNL     1     -34.164  26.022   3.633  0.00  0.00    +0.182 A 
ATOM      5  C   UNL     1     -32.919  27.553   4.946  0.00  0.00    +0.155 A 
ATOM      6  C   UNL     1     -34.442  26.927   2.675  0.00  0.00    +0.212 A 
ATOM      7  C   UNL     1     -33.920  28.307   2.820  0.00  0.00    +0.238 A 
ATOM      8  C   UNL     1     -32.588  29.850   4.256  0.00  0.00    +0.177 C 
ATOM      9  C   UNL     1     -32.173  27.789   6.100  0.00  0.00    +0.078 C 
ATOM     10  C   UNL     1     -31.840  30.082   5.411  0.00  0.00    +0.202 C 
ATOM     11  C   UNL     1     -31.634  29.054   6.332  0.00  0.00    +0.174 C 
ENDROOT
BRANCH   4  12
ATOM     12  C   UNL     1     -34.646  24.632   3.574  0.00  0.00    +0.041 C 
ATOM     13  C   UNL     1     -35.128  24.011   4.728  0.00  0.00    +0.043 C 
ATOM     14  C   UNL     1     -34.622  23.934   2.366  0.00  0.00    +0.006 C 
ATOM     15  C   UNL     1     -35.586  22.694   4.671  0.00  0.00    +0.168 C 
ATOM     16  C   UNL     1     -35.079  22.618   2.310  0.00  0.00    +0.040 C 
ATOM     17  C   UNL     1     -35.561  21.997   3.462  0.00  0.00    +0.172 C 
BRANCH  17  18
ATOM     18  O   UNL     1     -36.004  20.711   3.395  0.00  0.00    -0.468 OA
ATOM     19  C   UNL     1     -36.263  20.182   2.096  0.00  0.00    +0.253 C 
ENDBRANCH  17  18
BRANCH  15  20
ATOM     20  O   UNL     1     -36.054  22.098   5.803  0.00  0.00    -0.503 OA
ATOM     21  H   UNL     1     -36.976  21.995   5.931  0.00  0.00    +0.292 HD
ENDBRANCH  15  20
ENDBRANCH   4  12
BRANCH   6  22
ATOM     22  O   UNL     1     -35.209  26.637   1.567  0.00  0.00    -0.465 OA
ATOM     23  C   UNL     1     -36.556  27.017   1.774  0.00  0.00    +0.253 C 
ENDBRANCH   6  22
BRANCH   8  24
ATOM     24  O   UNL     1     -32.768  30.880   3.382  0.00  0.00    -0.503 OA
ATOM     25  H   UNL     1     -33.606  31.018   2.987  0.00  0.00    +0.292 HD
ENDBRANCH   8  24
BRANCH  10  26
ATOM     26  O   UNL     1     -31.310  31.317   5.645  0.00  0.00    -0.501 OA
ATOM     27  H   UNL     1     -31.337  31.684   6.507  0.00  0.00    +0.292 HD
ENDBRANCH  10  26
BRANCH  11  28
ATOM     28  O   UNL     1     -30.906  29.273   7.462  0.00  0.00    -0.503 OA
ATOM     29  H   UNL     1     -30.694  28.558   8.030  0.00  0.00    +0.292 HD
ENDBRANCH  11  28
TORSDOF 7
ENDMDL
