MODEL 1
REMARK VINA RESULT:      -6.5      0.000      0.000
REMARK  Name = 5170124
REMARK  1 active torsions:
REMARK  status: ('A' for Active; 'I' for Inactive)
REMARK    1  A    between atoms: C_13  and  N_17
REMARK                            x       y       z     vdW  Elec       q    Type
REMARK                         _______ _______ _______ _____ _____    ______ ____
ROOT
ATOM      1  O   UNL     1     -38.071  24.288   2.659  0.00  0.00    -0.265 OA
ATOM      2  O   UNL     1     -34.031  27.790   4.405  0.00  0.00    -0.237 OA
ATOM      3  O   UNL     1     -37.745  26.462   2.028  0.00  0.00    -0.077 OA
ATOM      4  O   UNL     1     -32.624  26.800   5.917  0.00  0.00    -0.044 OA
ATOM      5  N   UNL     1     -37.340  25.514   2.735  0.00  0.00    +0.063 NA
ATOM      6  N   UNL     1     -33.629  26.641   5.190  0.00  0.00    -0.017 N 
ATOM      7  N   UNL     1     -35.169  27.428   3.660  0.00  0.00    -0.050 NA
ATOM      8  N   UNL     1     -37.461  23.365   3.517  0.00  0.00    -0.061 NA
ATOM      9  C   UNL     1     -36.375  25.286   3.587  0.00  0.00    +0.216 C 
ATOM     10  C   UNL     1     -35.380  26.177   4.005  0.00  0.00    +0.147 C 
ATOM     11  C   UNL     1     -34.472  25.634   4.941  0.00  0.00    +0.145 C 
ATOM     12  C   UNL     1     -36.407  23.971   4.099  0.00  0.00    +0.135 C 
ATOM     13  C   UNL     1     -35.467  23.466   5.045  0.00  0.00    +0.230 C 
ATOM     14  C   UNL     1     -34.444  24.341   5.491  0.00  0.00    +0.033 C 
ENDROOT
BRANCH  13  17
ATOM     15  O   UNL     1     -35.149  21.197   4.779  0.00  0.00    -0.130 OA
ATOM     16  O   UNL     1     -36.066  21.913   6.641  0.00  0.00    -0.130 OA
ATOM     17  N   UNL     1     -35.565  22.132   5.510  0.00  0.00    +0.042 N 
ENDBRANCH  13  17
TORSDOF 1
ENDMDL
MODEL 2
REMARK VINA RESULT:      -5.8      1.238      4.170
REMARK  Name = 5170124
REMARK  1 active torsions:
REMARK  status: ('A' for Active; 'I' for Inactive)
REMARK    1  A    between atoms: C_13  and  N_17
REMARK                            x       y       z     vdW  Elec       q    Type
REMARK                         _______ _______ _______ _____ _____    ______ ____
ROOT
ATOM      1  O   UNL     1     -35.536  28.220   2.484  0.00  0.00    -0.265 OA
ATOM      2  O   UNL     1     -37.087  23.041   4.034  0.00  0.00    -0.237 OA
ATOM      3  O   UNL     1     -37.193  26.932   1.574  0.00  0.00    -0.077 OA
ATOM      4  O   UNL     1     -35.836  22.253   5.784  0.00  0.00    -0.044 OA
ATOM      5  N   UNL     1     -36.296  27.009   2.440  0.00  0.00    +0.063 NA
ATOM      6  N   UNL     1     -36.029  23.214   5.008  0.00  0.00    -0.017 N 
ATOM      7  N   UNL     1     -37.155  24.211   3.256  0.00  0.00    -0.050 NA
ATOM      8  N   UNL     1     -34.594  28.105   3.513  0.00  0.00    -0.061 NA
ATOM      9  C   UNL     1     -35.803  26.262   3.393  0.00  0.00    +0.216 C 
ATOM     10  C   UNL     1     -36.208  24.973   3.759  0.00  0.00    +0.147 C 
ATOM     11  C   UNL     1     -35.479  24.420   4.836  0.00  0.00    +0.145 C 
ATOM     12  C   UNL     1     -34.749  26.894   4.086  0.00  0.00    +0.135 C 
ATOM     13  C   UNL     1     -34.040  26.296   5.168  0.00  0.00    +0.230 C 
ATOM     14  C   UNL     1     -34.424  24.991   5.568  0.00  0.00    +0.033 C 
ENDROOT
BRANCH  13  17
ATOM     15  O   UNL     1     -32.024  27.415   5.132  0.00  0.00    -0.130 OA
ATOM     16  O   UNL     1     -33.057  27.186   7.055  0.00  0.00    -0.130 OA
ATOM     17  N   UNL     1     -32.994  26.998   5.815  0.00  0.00    +0.042 N 
ENDBRANCH  13  17
TORSDOF 1
ENDMDL
MODEL 3
REMARK VINA RESULT:      -5.8      1.700      5.463
REMARK  Name = 5170124
REMARK  1 active torsions:
REMARK  status: ('A' for Active; 'I' for Inactive)
REMARK    1  A    between atoms: C_13  and  N_17
REMARK                            x       y       z     vdW  Elec       q    Type
REMARK                         _______ _______ _______ _____ _____    ______ ____
ROOT
ATOM      1  O   UNL     1     -33.258  28.132   4.799  0.00  0.00    -0.265 OA
ATOM      2  O   UNL     1     -36.226  23.366   5.130  0.00  0.00    -0.237 OA
ATOM      3  O   UNL     1     -33.132  26.524   6.420  0.00  0.00    -0.077 OA
ATOM      4  O   UNL     1     -37.687  23.136   3.383  0.00  0.00    -0.044 OA
ATOM      5  N   UNL     1     -33.682  26.887   5.358  0.00  0.00    +0.063 NA
ATOM      6  N   UNL     1     -36.810  23.861   3.901  0.00  0.00    -0.017 N 
ATOM      7  N   UNL     1     -35.271  24.305   5.564  0.00  0.00    -0.050 NA
ATOM      8  N   UNL     1     -33.987  28.352   3.624  0.00  0.00    -0.061 NA
ATOM      9  C   UNL     1     -34.597  26.438   4.540  0.00  0.00    +0.216 C 
ATOM     10  C   UNL     1     -35.323  25.245   4.646  0.00  0.00    +0.147 C 
ATOM     11  C   UNL     1     -36.247  25.034   3.598  0.00  0.00    +0.145 C 
ATOM     12  C   UNL     1     -34.822  27.308   3.452  0.00  0.00    +0.135 C 
ATOM     13  C   UNL     1     -35.769  27.053   2.417  0.00  0.00    +0.230 C 
ATOM     14  C   UNL     1     -36.522  25.853   2.490  0.00  0.00    +0.033 C 
ENDROOT
BRANCH  13  17
ATOM     15  O   UNL     1     -36.797  28.885   1.465  0.00  0.00    -0.130 OA
ATOM     16  O   UNL     1     -35.220  27.864   0.328  0.00  0.00    -0.130 OA
ATOM     17  N   UNL     1     -35.935  27.976   1.355  0.00  0.00    +0.042 N 
ENDBRANCH  13  17
TORSDOF 1
ENDMDL
MODEL 4
REMARK VINA RESULT:      -5.8      3.542      5.930
REMARK  Name = 5170124
REMARK  1 active torsions:
REMARK  status: ('A' for Active; 'I' for Inactive)
REMARK    1  A    between atoms: C_13  and  N_17
REMARK                            x       y       z     vdW  Elec       q    Type
REMARK                         _______ _______ _______ _____ _____    ______ ____
ROOT
ATOM      1  O   UNL     1     -37.797  24.518   4.106  0.00  0.00    -0.265 OA
ATOM      2  O   UNL     1     -41.024  21.857   0.346  0.00  0.00    -0.237 OA
ATOM      3  O   UNL     1     -39.927  25.057   3.471  0.00  0.00    -0.077 OA
ATOM      4  O   UNL     1     -39.963  20.050  -0.577  0.00  0.00    -0.044 OA
ATOM      5  N   UNL     1     -38.966  24.273   3.320  0.00  0.00    +0.063 NA
ATOM      6  N   UNL     1     -39.865  20.996   0.234  0.00  0.00    -0.017 N 
ATOM      7  N   UNL     1     -40.732  22.855   1.294  0.00  0.00    -0.050 NA
ATOM      8  N   UNL     1     -36.848  23.538   3.792  0.00  0.00    -0.061 NA
ATOM      9  C   UNL     1     -38.683  23.213   2.608  0.00  0.00    +0.216 C 
ATOM     10  C   UNL     1     -39.507  22.570   1.677  0.00  0.00    +0.147 C 
ATOM     11  C   UNL     1     -38.917  21.441   1.065  0.00  0.00    +0.145 C 
ATOM     12  C   UNL     1     -37.386  22.721   2.863  0.00  0.00    +0.135 C 
ATOM     13  C   UNL     1     -36.832  21.577   2.219  0.00  0.00    +0.230 C 
ATOM     14  C   UNL     1     -37.637  20.898   1.270  0.00  0.00    +0.033 C 
ENDROOT
BRANCH  13  17
ATOM     15  O   UNL     1     -34.592  21.361   1.711  0.00  0.00    -0.130 OA
ATOM     16  O   UNL     1     -35.313  20.551   3.620  0.00  0.00    -0.130 OA
ATOM     17  N   UNL     1     -35.520  21.144   2.531  0.00  0.00    +0.042 N 
ENDBRANCH  13  17
TORSDOF 1
ENDMDL
MODEL 5
REMARK VINA RESULT:      -5.6      1.382      4.274
REMARK  Name = 5170124
REMARK  1 active torsions:
REMARK  status: ('A' for Active; 'I' for Inactive)
REMARK    1  A    between atoms: C_13  and  N_17
REMARK                            x       y       z     vdW  Elec       q    Type
REMARK                         _______ _______ _______ _____ _____    ______ ____
ROOT
ATOM      1  O   UNL     1     -36.335  27.889   1.962  0.00  0.00    -0.265 OA
ATOM      2  O   UNL     1     -36.673  22.986   4.696  0.00  0.00    -0.237 OA
ATOM      3  O   UNL     1     -38.006  26.333   1.827  0.00  0.00    -0.077 OA
ATOM      4  O   UNL     1     -34.870  22.633   6.062  0.00  0.00    -0.044 OA
ATOM      5  N   UNL     1     -36.910  26.638   2.345  0.00  0.00    +0.063 NA
ATOM      6  N   UNL     1     -35.407  23.416   5.249  0.00  0.00    -0.017 N 
ATOM      7  N   UNL     1     -37.120  23.983   3.808  0.00  0.00    -0.050 NA
ATOM      8  N   UNL     1     -35.123  28.039   2.647  0.00  0.00    -0.061 NA
ATOM      9  C   UNL     1     -36.065  26.119   3.197  0.00  0.00    +0.216 C 
ATOM     10  C   UNL     1     -36.173  24.894   3.865  0.00  0.00    +0.147 C 
ATOM     11  C   UNL     1     -35.093  24.608   4.730  0.00  0.00    +0.145 C 
ATOM     12  C   UNL     1     -34.944  26.947   3.417  0.00  0.00    +0.135 C 
ATOM     13  C   UNL     1     -33.875  26.616   4.301  0.00  0.00    +0.230 C 
ATOM     14  C   UNL     1     -33.951  25.382   4.996  0.00  0.00    +0.033 C 
ENDROOT
BRANCH  13  17
ATOM     15  O   UNL     1     -32.898  28.469   5.265  0.00  0.00    -0.130 OA
ATOM     16  O   UNL     1     -31.726  27.303   3.820  0.00  0.00    -0.130 OA
ATOM     17  N   UNL     1     -32.783  27.502   4.469  0.00  0.00    +0.042 N 
ENDBRANCH  13  17
TORSDOF 1
ENDMDL
MODEL 6
REMARK VINA RESULT:      -5.5      3.188      5.880
REMARK  Name = 5170124
REMARK  1 active torsions:
REMARK  status: ('A' for Active; 'I' for Inactive)
REMARK    1  A    between atoms: C_13  and  N_17
REMARK                            x       y       z     vdW  Elec       q    Type
REMARK                         _______ _______ _______ _____ _____    ______ ____
ROOT
ATOM      1  O   UNL     1     -37.621  24.555   4.507  0.00  0.00    -0.265 OA
ATOM      2  O   UNL     1     -35.073  19.928   2.575  0.00  0.00    -0.237 OA
ATOM      3  O   UNL     1     -35.864  23.436   5.451  0.00  0.00    -0.077 OA
ATOM      4  O   UNL     1     -35.999  19.186   0.617  0.00  0.00    -0.044 OA
ATOM      5  N   UNL     1     -36.675  23.483   4.502  0.00  0.00    +0.063 NA
ATOM      6  N   UNL     1     -36.047  20.058   1.512  0.00  0.00    -0.017 N 
ATOM      7  N   UNL     1     -35.279  20.984   3.482  0.00  0.00    -0.050 NA
ATOM      8  N   UNL     1     -38.429  24.427   3.371  0.00  0.00    -0.061 NA
ATOM      9  C   UNL     1     -36.941  22.797   3.421  0.00  0.00    +0.216 C 
ATOM     10  C   UNL     1     -36.289  21.646   2.962  0.00  0.00    +0.147 C 
ATOM     11  C   UNL     1     -36.808  21.130   1.754  0.00  0.00    +0.145 C 
ATOM     12  C   UNL     1     -38.017  23.340   2.688  0.00  0.00    +0.135 C 
ATOM     13  C   UNL     1     -38.508  22.783   1.471  0.00  0.00    +0.230 C 
ATOM     14  C   UNL     1     -37.871  21.617   0.974  0.00  0.00    +0.033 C 
ENDROOT
BRANCH  13  17
ATOM     15  O   UNL     1     -40.761  22.988   1.025  0.00  0.00    -0.130 OA
ATOM     16  O   UNL     1     -39.363  24.311  -0.030  0.00  0.00    -0.130 OA
ATOM     17  N   UNL     1     -39.592  23.388   0.792  0.00  0.00    +0.042 N 
ENDBRANCH  13  17
TORSDOF 1
ENDMDL
MODEL 7
REMARK VINA RESULT:      -5.5      1.336      3.955
REMARK  Name = 5170124
REMARK  1 active torsions:
REMARK  status: ('A' for Active; 'I' for Inactive)
REMARK    1  A    between atoms: C_13  and  N_17
REMARK                            x       y       z     vdW  Elec       q    Type
REMARK                         _______ _______ _______ _____ _____    ______ ____
ROOT
ATOM      1  O   UNL     1     -37.437  23.174   3.728  0.00  0.00    -0.265 OA
ATOM      2  O   UNL     1     -33.222  26.351   5.669  0.00  0.00    -0.237 OA
ATOM      3  O   UNL     1     -36.038  22.712   5.477  0.00  0.00    -0.077 OA
ATOM      4  O   UNL     1     -32.990  28.296   4.483  0.00  0.00    -0.044 OA
ATOM      5  N   UNL     1     -36.342  23.524   4.577  0.00  0.00    +0.063 NA
ATOM      6  N   UNL     1     -33.641  27.235   4.602  0.00  0.00    -0.017 N 
ATOM      7  N   UNL     1     -34.058  25.219   5.647  0.00  0.00    -0.050 NA
ATOM      8  N   UNL     1     -37.613  24.205   2.797  0.00  0.00    -0.061 NA
ATOM      9  C   UNL     1     -35.931  24.687   4.143  0.00  0.00    +0.216 C 
ATOM     10  C   UNL     1     -34.876  25.458   4.646  0.00  0.00    +0.147 C 
ATOM     11  C   UNL     1     -34.673  26.678   3.961  0.00  0.00    +0.145 C 
ATOM     12  C   UNL     1     -36.684  25.151   3.044  0.00  0.00    +0.135 C 
ATOM     13  C   UNL     1     -36.442  26.391   2.383  0.00  0.00    +0.230 C 
ATOM     14  C   UNL     1     -35.382  27.200   2.866  0.00  0.00    +0.033 C 
ENDROOT
BRANCH  13  17
ATOM     15  O   UNL     1     -38.328  27.388   1.506  0.00  0.00    -0.130 OA
ATOM     16  O   UNL     1     -36.859  26.529   0.119  0.00  0.00    -0.130 OA
ATOM     17  N   UNL     1     -37.245  26.787   1.287  0.00  0.00    +0.042 N 
ENDBRANCH  13  17
TORSDOF 1
ENDMDL
MODEL 8
REMARK VINA RESULT:      -5.5      1.210      3.836
REMARK  Name = 5170124
REMARK  1 active torsions:
REMARK  status: ('A' for Active; 'I' for Inactive)
REMARK    1  A    between atoms: C_13  and  N_17
REMARK                            x       y       z     vdW  Elec       q    Type
REMARK                         _______ _______ _______ _____ _____    ______ ____
ROOT
ATOM      1  O   UNL     1     -33.356  26.280   4.996  0.00  0.00    -0.265 OA
ATOM      2  O   UNL     1     -37.719  27.344   1.610  0.00  0.00    -0.237 OA
ATOM      3  O   UNL     1     -33.815  28.227   3.887  0.00  0.00    -0.077 OA
ATOM      4  O   UNL     1     -39.114  25.540   1.406  0.00  0.00    -0.044 OA
ATOM      5  N   UNL     1     -34.179  27.055   4.121  0.00  0.00    +0.063 NA
ATOM      6  N   UNL     1     -38.068  25.978   1.934  0.00  0.00    -0.017 N 
ATOM      7  N   UNL     1     -36.526  27.658   2.286  0.00  0.00    -0.050 NA
ATOM      8  N   UNL     1     -33.933  25.011   5.126  0.00  0.00    -0.061 NA
ATOM      9  C   UNL     1     -35.161  26.260   3.782  0.00  0.00    +0.216 C 
ATOM     10  C   UNL     1     -36.237  26.551   2.935  0.00  0.00    +0.147 C 
ATOM     11  C   UNL     1     -37.143  25.481   2.761  0.00  0.00    +0.145 C 
ATOM     12  C   UNL     1     -35.054  24.986   4.377  0.00  0.00    +0.135 C 
ATOM     13  C   UNL     1     -35.995  23.934   4.171  0.00  0.00    +0.230 C 
ATOM     14  C   UNL     1     -37.099  24.192   3.320  0.00  0.00    +0.033 C 
ENDROOT
BRANCH  13  17
ATOM     15  O   UNL     1     -36.065  22.578   6.036  0.00  0.00    -0.130 OA
ATOM     16  O   UNL     1     -35.419  21.701   4.130  0.00  0.00    -0.130 OA
ATOM     17  N   UNL     1     -35.819  22.681   4.807  0.00  0.00    +0.042 N 
ENDBRANCH  13  17
TORSDOF 1
ENDMDL
MODEL 9
REMARK VINA RESULT:      -5.4      3.330      5.517
REMARK  Name = 5170124
REMARK  1 active torsions:
REMARK  status: ('A' for Active; 'I' for Inactive)
REMARK    1  A    between atoms: C_13  and  N_17
REMARK                            x       y       z     vdW  Elec       q    Type
REMARK                         _______ _______ _______ _____ _____    ______ ____
ROOT
ATOM      1  O   UNL     1     -40.106  22.809   2.239  0.00  0.00    -0.265 OA
ATOM      2  O   UNL     1     -36.105  19.186   0.662  0.00  0.00    -0.237 OA
ATOM      3  O   UNL     1     -40.340  20.980   0.885  0.00  0.00    -0.077 OA
ATOM      4  O   UNL     1     -34.060  19.719   1.545  0.00  0.00    -0.044 OA
ATOM      5  N   UNL     1     -39.556  21.673   1.569  0.00  0.00    +0.063 NA
ATOM      6  N   UNL     1     -35.267  20.041   1.476  0.00  0.00    -0.017 N 
ATOM      7  N   UNL     1     -37.415  19.699   0.701  0.00  0.00    -0.050 NA
ATOM      8  N   UNL     1     -39.074  23.443   2.942  0.00  0.00    -0.061 NA
ATOM      9  C   UNL     1     -38.286  21.673   1.882  0.00  0.00    +0.216 C 
ATOM     10  C   UNL     1     -37.309  20.757   1.475  0.00  0.00    +0.147 C 
ATOM     11  C   UNL     1     -36.018  21.023   1.983  0.00  0.00    +0.145 C 
ATOM     12  C   UNL     1     -37.939  22.747   2.729  0.00  0.00    +0.135 C 
ATOM     13  C   UNL     1     -36.619  22.977   3.217  0.00  0.00    +0.230 C 
ATOM     14  C   UNL     1     -35.603  22.068   2.826  0.00  0.00    +0.033 C 
ENDROOT
BRANCH  13  17
ATOM     15  O   UNL     1     -36.312  23.896   5.310  0.00  0.00    -0.130 OA
ATOM     16  O   UNL     1     -36.159  25.211   3.558  0.00  0.00    -0.130 OA
ATOM     17  N   UNL     1     -36.351  24.078   4.066  0.00  0.00    +0.042 N 
ENDBRANCH  13  17
TORSDOF 1
ENDMDL
