MODEL 1
REMARK VINA RESULT:      -7.1      0.000      0.000
REMARK  Name = 57351087
REMARK  10 active torsions:
REMARK  status: ('A' for Active; 'I' for Inactive)
REMARK    1  A    between atoms: C_1  and  O_7
REMARK    2  A    between atoms: C_1  and  C_14
REMARK    3  A    between atoms: C_2  and  O_17
REMARK    4  A    between atoms: C_5  and  O_9
REMARK    5  A    between atoms: C_6  and  O_11
REMARK    6  A    between atoms: C_14  and  O_15
REMARK    7  A    between atoms: O_17  and  C_19
REMARK    8  A    between atoms: C_19  and  C_20
REMARK    9  A    between atoms: C_21  and  C_22
REMARK   10  A    between atoms: C_27  and  O_28
REMARK                            x       y       z     vdW  Elec       q    Type
REMARK                         _______ _______ _______ _____ _____    ______ ____
ROOT
ATOM      1  C   UNL     1     -36.864  24.413   3.673  0.00  0.00    +0.183 C 
ATOM      2  C   UNL     1     -35.619  22.206   3.691  0.00  0.00    +0.201 C 
ATOM      3  C   UNL     1     -36.952  22.907   3.414  0.00  0.00    +0.084 C 
ATOM      4  C   UNL     1     -36.307  24.729   5.069  0.00  0.00    +0.070 C 
ATOM      5  C   UNL     1     -35.114  22.486   5.111  0.00  0.00    +0.177 C 
ATOM      6  C   UNL     1     -34.996  23.988   5.376  0.00  0.00    +0.144 C 
ENDROOT
BRANCH   1   7
ATOM      7  O   UNL     1     -36.055  25.007   2.663  0.00  0.00    -0.376 OA
ATOM      8  H   UNL     1     -36.468  24.870   1.796  0.00  0.00    +0.211 HD
ENDBRANCH   1   7
BRANCH   5   9
ATOM      9  O   UNL     1     -36.017  21.933   6.069  0.00  0.00    -0.379 OA
ATOM     10  H   UNL     1     -36.803  21.591   5.614  0.00  0.00    +0.211 HD
ENDBRANCH   5   9
BRANCH   6  11
ATOM     11  O   UNL     1     -33.936  24.513   4.583  0.00  0.00    -0.382 OA
ATOM     12  H   UNL     1     -33.456  25.188   5.089  0.00  0.00    +0.210 HD
ENDBRANCH   6  11
BRANCH   1  14
ATOM     13  O   UNL     1     -39.269  24.430   3.408  0.00  0.00    -0.248 OA
ATOM     14  C   UNL     1     -38.214  25.043   3.493  0.00  0.00    +0.338 C 
BRANCH  14  15
ATOM     15  O   UNL     1     -38.109  26.393   3.434  0.00  0.00    -0.479 OA
ATOM     16  H   UNL     1     -38.736  26.931   3.875  0.00  0.00    +0.295 HD
ENDBRANCH  14  15
ENDBRANCH   1  14
BRANCH   2  17
ATOM     17  O   UNL     1     -35.773  20.799   3.522  0.00  0.00    -0.446 OA
BRANCH  17  19
ATOM     18  O   UNL     1     -36.857  20.008   1.641  0.00  0.00    -0.245 OA
ATOM     19  C   UNL     1     -35.850  20.366   2.233  0.00  0.00    +0.341 C 
BRANCH  19  20
ATOM     20  C   UNL     1     -34.486  20.404   1.661  0.00  0.00    +0.082 C 
ATOM     21  C   UNL     1     -33.825  19.258   1.449  0.00  0.00    +0.007 C 
BRANCH  21  22
ATOM     22  C   UNL     1     -32.463  19.166   0.896  0.00  0.00    +0.000 C 
ATOM     23  C   UNL     1     -31.964  20.195   0.097  0.00  0.00    +0.003 C 
ATOM     24  C   UNL     1     -31.671  18.050   1.170  0.00  0.00    +0.003 C 
ATOM     25  C   UNL     1     -30.675  20.108  -0.429  0.00  0.00    +0.037 C 
ATOM     26  C   UNL     1     -30.382  17.963   0.645  0.00  0.00    +0.037 C 
ATOM     27  C   UNL     1     -29.884  18.992  -0.155  0.00  0.00    +0.134 C 
BRANCH  27  28
ATOM     28  O   UNL     1     -28.626  18.907  -0.668  0.00  0.00    -0.506 OA
ATOM     29  H   UNL     1     -27.896  18.779  -0.096  0.00  0.00    +0.292 HD
ENDBRANCH  27  28
ENDBRANCH  21  22
ENDBRANCH  19  20
ENDBRANCH  17  19
ENDBRANCH   2  17
TORSDOF 10
ENDMDL
MODEL 2
REMARK VINA RESULT:      -6.6      3.689      6.867
REMARK  Name = 57351087
REMARK  10 active torsions:
REMARK  status: ('A' for Active; 'I' for Inactive)
REMARK    1  A    between atoms: C_1  and  O_7
REMARK    2  A    between atoms: C_1  and  C_14
REMARK    3  A    between atoms: C_2  and  O_17
REMARK    4  A    between atoms: C_5  and  O_9
REMARK    5  A    between atoms: C_6  and  O_11
REMARK    6  A    between atoms: C_14  and  O_15
REMARK    7  A    between atoms: O_17  and  C_19
REMARK    8  A    between atoms: C_19  and  C_20
REMARK    9  A    between atoms: C_21  and  C_22
REMARK   10  A    between atoms: C_27  and  O_28
REMARK                            x       y       z     vdW  Elec       q    Type
REMARK                         _______ _______ _______ _____ _____    ______ ____
ROOT
ATOM      1  C   UNL     1     -38.587  21.941   1.586  0.00  0.00    +0.183 C 
ATOM      2  C   UNL     1     -37.018  22.591   3.466  0.00  0.00    +0.201 C 
ATOM      3  C   UNL     1     -38.120  23.064   2.515  0.00  0.00    +0.084 C 
ATOM      4  C   UNL     1     -37.416  21.274   0.850  0.00  0.00    +0.070 C 
ATOM      5  C   UNL     1     -35.832  21.985   2.706  0.00  0.00    +0.177 C 
ATOM      6  C   UNL     1     -36.280  20.843   1.792  0.00  0.00    +0.144 C 
ENDROOT
BRANCH   1   7
ATOM      7  O   UNL     1     -39.311  20.983   2.351  0.00  0.00    -0.376 OA
ATOM      8  H   UNL     1     -39.225  21.192   3.295  0.00  0.00    +0.211 HD
ENDBRANCH   1   7
BRANCH   5   9
ATOM      9  O   UNL     1     -35.207  22.983   1.899  0.00  0.00    -0.379 OA
ATOM     10  H   UNL     1     -35.854  23.672   1.676  0.00  0.00    +0.211 HD
ENDBRANCH   5   9
BRANCH   6  11
ATOM     11  O   UNL     1     -36.698  19.745   2.598  0.00  0.00    -0.382 OA
ATOM     12  H   UNL     1     -37.399  19.256   2.140  0.00  0.00    +0.210 HD
ENDBRANCH   6  11
BRANCH   1  14
ATOM     13  O   UNL     1     -39.419  23.450  -0.113  0.00  0.00    -0.248 OA
ATOM     14  C   UNL     1     -39.588  22.473   0.603  0.00  0.00    +0.338 C 
BRANCH  14  15
ATOM     15  O   UNL     1     -40.717  21.723   0.616  0.00  0.00    -0.479 OA
ATOM     16  H   UNL     1     -41.473  22.007   0.141  0.00  0.00    +0.295 HD
ENDBRANCH  14  15
ENDBRANCH   1  14
BRANCH   2  17
ATOM     17  O   UNL     1     -36.555  23.689   4.248  0.00  0.00    -0.446 OA
BRANCH  17  19
ATOM     18  O   UNL     1     -35.977  22.485   6.134  0.00  0.00    -0.245 OA
ATOM     19  C   UNL     1     -35.768  23.364   5.311  0.00  0.00    +0.341 C 
BRANCH  19  20
ATOM     20  C   UNL     1     -34.597  24.268   5.300  0.00  0.00    +0.082 C 
ATOM     21  C   UNL     1     -34.768  25.575   5.541  0.00  0.00    +0.007 C 
BRANCH  21  22
ATOM     22  C   UNL     1     -33.686  26.574   5.548  0.00  0.00    +0.000 C 
ATOM     23  C   UNL     1     -33.273  27.164   4.353  0.00  0.00    +0.003 C 
ATOM     24  C   UNL     1     -33.071  26.930   6.749  0.00  0.00    +0.003 C 
ATOM     25  C   UNL     1     -32.247  28.109   4.359  0.00  0.00    +0.037 C 
ATOM     26  C   UNL     1     -32.045  27.875   6.755  0.00  0.00    +0.037 C 
ATOM     27  C   UNL     1     -31.633  28.465   5.559  0.00  0.00    +0.134 C 
BRANCH  27  28
ATOM     28  O   UNL     1     -30.632  29.386   5.565  0.00  0.00    -0.506 OA
ATOM     29  H   UNL     1     -30.818  30.281   5.362  0.00  0.00    +0.292 HD
ENDBRANCH  27  28
ENDBRANCH  21  22
ENDBRANCH  19  20
ENDBRANCH  17  19
ENDBRANCH   2  17
TORSDOF 10
ENDMDL
MODEL 3
REMARK VINA RESULT:      -6.5      1.470      2.375
REMARK  Name = 57351087
REMARK  10 active torsions:
REMARK  status: ('A' for Active; 'I' for Inactive)
REMARK    1  A    between atoms: C_1  and  O_7
REMARK    2  A    between atoms: C_1  and  C_14
REMARK    3  A    between atoms: C_2  and  O_17
REMARK    4  A    between atoms: C_5  and  O_9
REMARK    5  A    between atoms: C_6  and  O_11
REMARK    6  A    between atoms: C_14  and  O_15
REMARK    7  A    between atoms: O_17  and  C_19
REMARK    8  A    between atoms: C_19  and  C_20
REMARK    9  A    between atoms: C_21  and  C_22
REMARK   10  A    between atoms: C_27  and  O_28
REMARK                            x       y       z     vdW  Elec       q    Type
REMARK                         _______ _______ _______ _____ _____    ______ ____
ROOT
ATOM      1  C   UNL     1     -34.918  24.937   4.516  0.00  0.00    +0.183 C 
ATOM      2  C   UNL     1     -35.146  23.057   2.832  0.00  0.00    +0.201 C 
ATOM      3  C   UNL     1     -35.242  24.567   3.066  0.00  0.00    +0.084 C 
ATOM      4  C   UNL     1     -35.752  24.128   5.520  0.00  0.00    +0.070 C 
ATOM      5  C   UNL     1     -36.035  22.274   3.806  0.00  0.00    +0.177 C 
ATOM      6  C   UNL     1     -35.705  22.614   5.260  0.00  0.00    +0.144 C 
ENDROOT
BRANCH   1   7
ATOM      7  O   UNL     1     -33.526  24.736   4.741  0.00  0.00    -0.376 OA
ATOM      8  H   UNL     1     -33.095  24.492   3.907  0.00  0.00    +0.211 HD
ENDBRANCH   1   7
BRANCH   5   9
ATOM      9  O   UNL     1     -37.409  22.588   3.575  0.00  0.00    -0.379 OA
ATOM     10  H   UNL     1     -37.520  23.551   3.547  0.00  0.00    +0.211 HD
ENDBRANCH   5   9
BRANCH   6  11
ATOM     11  O   UNL     1     -34.413  22.101   5.572  0.00  0.00    -0.382 OA
ATOM     12  H   UNL     1     -34.002  22.652   6.255  0.00  0.00    +0.210 HD
ENDBRANCH   6  11
BRANCH   1  14
ATOM     13  O   UNL     1     -34.293  27.275   4.498  0.00  0.00    -0.248 OA
ATOM     14  C   UNL     1     -35.125  26.408   4.726  0.00  0.00    +0.338 C 
BRANCH  14  15
ATOM     15  O   UNL     1     -36.368  26.652   5.209  0.00  0.00    -0.479 OA
ATOM     16  H   UNL     1     -36.594  27.511   5.506  0.00  0.00    +0.295 HD
ENDBRANCH  14  15
ENDBRANCH   1  14
BRANCH   2  17
ATOM     17  O   UNL     1     -35.541  22.752   1.497  0.00  0.00    -0.446 OA
BRANCH  17  19
ATOM     18  O   UNL     1     -36.467  20.661   1.170  0.00  0.00    -0.245 OA
ATOM     19  C   UNL     1     -35.519  21.431   1.164  0.00  0.00    +0.341 C 
BRANCH  19  20
ATOM     20  C   UNL     1     -34.132  21.083   0.788  0.00  0.00    +0.082 C 
ATOM     21  C   UNL     1     -33.677  19.842   1.013  0.00  0.00    +0.007 C 
BRANCH  21  22
ATOM     22  C   UNL     1     -32.316  19.378   0.693  0.00  0.00    +0.000 C 
ATOM     23  C   UNL     1     -31.867  18.149   1.175  0.00  0.00    +0.003 C 
ATOM     24  C   UNL     1     -31.475  20.168  -0.093  0.00  0.00    +0.003 C 
ATOM     25  C   UNL     1     -30.577  17.710   0.874  0.00  0.00    +0.037 C 
ATOM     26  C   UNL     1     -30.186  19.729  -0.394  0.00  0.00    +0.037 C 
ATOM     27  C   UNL     1     -29.738  18.499   0.089  0.00  0.00    +0.134 C 
BRANCH  27  28
ATOM     28  O   UNL     1     -28.479  18.071  -0.205  0.00  0.00    -0.506 OA
ATOM     29  H   UNL     1     -27.799  18.145   0.434  0.00  0.00    +0.292 HD
ENDBRANCH  27  28
ENDBRANCH  21  22
ENDBRANCH  19  20
ENDBRANCH  17  19
ENDBRANCH   2  17
TORSDOF 10
ENDMDL
MODEL 4
REMARK VINA RESULT:      -6.5      1.900      3.281
REMARK  Name = 57351087
REMARK  10 active torsions:
REMARK  status: ('A' for Active; 'I' for Inactive)
REMARK    1  A    between atoms: C_1  and  O_7
REMARK    2  A    between atoms: C_1  and  C_14
REMARK    3  A    between atoms: C_2  and  O_17
REMARK    4  A    between atoms: C_5  and  O_9
REMARK    5  A    between atoms: C_6  and  O_11
REMARK    6  A    between atoms: C_14  and  O_15
REMARK    7  A    between atoms: O_17  and  C_19
REMARK    8  A    between atoms: C_19  and  C_20
REMARK    9  A    between atoms: C_21  and  C_22
REMARK   10  A    between atoms: C_27  and  O_28
REMARK                            x       y       z     vdW  Elec       q    Type
REMARK                         _______ _______ _______ _____ _____    ______ ____
ROOT
ATOM      1  C   UNL     1     -35.641  23.670   4.709  0.00  0.00    +0.183 C 
ATOM      2  C   UNL     1     -34.974  24.875   2.582  0.00  0.00    +0.201 C 
ATOM      3  C   UNL     1     -35.004  23.536   3.323  0.00  0.00    +0.084 C 
ATOM      4  C   UNL     1     -34.995  24.790   5.537  0.00  0.00    +0.070 C 
ATOM      5  C   UNL     1     -34.269  25.962   3.402  0.00  0.00    +0.177 C 
ATOM      6  C   UNL     1     -34.911  26.126   4.781  0.00  0.00    +0.144 C 
ENDROOT
BRANCH   1   7
ATOM      7  O   UNL     1     -37.037  23.902   4.553  0.00  0.00    -0.376 OA
ATOM      8  H   UNL     1     -37.221  24.160   3.636  0.00  0.00    +0.211 HD
ENDBRANCH   1   7
BRANCH   5   9
ATOM      9  O   UNL     1     -32.895  25.622   3.588  0.00  0.00    -0.379 OA
ATOM     10  H   UNL     1     -32.363  26.031   2.887  0.00  0.00    +0.211 HD
ENDBRANCH   5   9
BRANCH   6  11
ATOM     11  O   UNL     1     -36.212  26.683   4.620  0.00  0.00    -0.382 OA
ATOM     12  H   UNL     1     -36.292  27.484   5.161  0.00  0.00    +0.210 HD
ENDBRANCH   6  11
BRANCH   1  14
ATOM     13  O   UNL     1     -35.455  22.240   6.652  0.00  0.00    -0.248 OA
ATOM     14  C   UNL     1     -35.555  22.362   5.440  0.00  0.00    +0.338 C 
BRANCH  14  15
ATOM     15  O   UNL     1     -35.602  21.324   4.570  0.00  0.00    -0.479 OA
ATOM     16  H   UNL     1     -35.616  21.486   3.647  0.00  0.00    +0.295 HD
ENDBRANCH  14  15
ENDBRANCH   1  14
BRANCH   2  17
ATOM     17  O   UNL     1     -34.295  24.720   1.338  0.00  0.00    -0.446 OA
BRANCH  17  19
ATOM     18  O   UNL     1     -35.821  23.690  -0.057  0.00  0.00    -0.245 OA
ATOM     19  C   UNL     1     -34.755  23.718   0.538  0.00  0.00    +0.341 C 
BRANCH  19  20
ATOM     20  C   UNL     1     -33.728  22.654   0.512  0.00  0.00    +0.082 C 
ATOM     21  C   UNL     1     -34.091  21.379   0.709  0.00  0.00    +0.007 C 
BRANCH  21  22
ATOM     22  C   UNL     1     -33.163  20.235   0.716  0.00  0.00    +0.000 C 
ATOM     23  C   UNL     1     -31.933  20.331   0.066  0.00  0.00    +0.003 C 
ATOM     24  C   UNL     1     -33.515  19.054   1.371  0.00  0.00    +0.003 C 
ATOM     25  C   UNL     1     -31.054  19.248   0.071  0.00  0.00    +0.037 C 
ATOM     26  C   UNL     1     -32.636  17.970   1.376  0.00  0.00    +0.037 C 
ATOM     27  C   UNL     1     -31.406  18.068   0.725  0.00  0.00    +0.134 C 
BRANCH  27  28
ATOM     28  O   UNL     1     -30.549  17.010   0.729  0.00  0.00    -0.506 OA
ATOM     29  H   UNL     1     -29.647  17.140   0.945  0.00  0.00    +0.292 HD
ENDBRANCH  27  28
ENDBRANCH  21  22
ENDBRANCH  19  20
ENDBRANCH  17  19
ENDBRANCH   2  17
TORSDOF 10
ENDMDL
MODEL 5
REMARK VINA RESULT:      -6.3      4.482      6.624
REMARK  Name = 57351087
REMARK  10 active torsions:
REMARK  status: ('A' for Active; 'I' for Inactive)
REMARK    1  A    between atoms: C_1  and  O_7
REMARK    2  A    between atoms: C_1  and  C_14
REMARK    3  A    between atoms: C_2  and  O_17
REMARK    4  A    between atoms: C_5  and  O_9
REMARK    5  A    between atoms: C_6  and  O_11
REMARK    6  A    between atoms: C_14  and  O_15
REMARK    7  A    between atoms: O_17  and  C_19
REMARK    8  A    between atoms: C_19  and  C_20
REMARK    9  A    between atoms: C_21  and  C_22
REMARK   10  A    between atoms: C_27  and  O_28
REMARK                            x       y       z     vdW  Elec       q    Type
REMARK                         _______ _______ _______ _____ _____    ______ ____
ROOT
ATOM      1  C   UNL     1     -38.674  24.840   2.562  0.00  0.00    +0.183 C 
ATOM      2  C   UNL     1     -37.195  22.948   3.369  0.00  0.00    +0.201 C 
ATOM      3  C   UNL     1     -37.288  24.449   3.082  0.00  0.00    +0.084 C 
ATOM      4  C   UNL     1     -39.107  23.980   1.365  0.00  0.00    +0.070 C 
ATOM      5  C   UNL     1     -37.571  22.110   2.141  0.00  0.00    +0.177 C 
ATOM      6  C   UNL     1     -38.965  22.472   1.625  0.00  0.00    +0.144 C 
ENDROOT
BRANCH   1   7
ATOM      7  O   UNL     1     -39.613  24.729   3.626  0.00  0.00    -0.376 OA
ATOM      8  H   UNL     1     -40.147  23.928   3.503  0.00  0.00    +0.211 HD
ENDBRANCH   1   7
BRANCH   5   9
ATOM      9  O   UNL     1     -36.633  22.335   1.088  0.00  0.00    -0.379 OA
ATOM     10  H   UNL     1     -36.233  21.492   0.826  0.00  0.00    +0.211 HD
ENDBRANCH   5   9
BRANCH   6  11
ATOM     11  O   UNL     1     -39.934  22.043   2.576  0.00  0.00    -0.382 OA
ATOM     12  H   UNL     1     -39.533  22.015   3.458  0.00  0.00    +0.210 HD
ENDBRANCH   6  11
BRANCH   1  14
ATOM     13  O   UNL     1     -39.585  26.853   1.576  0.00  0.00    -0.248 OA
ATOM     14  C   UNL     1     -38.690  26.295   2.195  0.00  0.00    +0.338 C 
BRANCH  14  15
ATOM     15  O   UNL     1     -37.570  26.914   2.642  0.00  0.00    -0.479 OA
ATOM     16  H   UNL     1     -37.504  27.847   2.602  0.00  0.00    +0.295 HD
ENDBRANCH  14  15
ENDBRANCH   1  14
BRANCH   2  17
ATOM     17  O   UNL     1     -35.866  22.617   3.765  0.00  0.00    -0.446 OA
BRANCH  17  19
ATOM     18  O   UNL     1     -36.024  22.444   6.064  0.00  0.00    -0.245 OA
ATOM     19  C   UNL     1     -35.541  22.927   5.051  0.00  0.00    +0.341 C 
BRANCH  19  20
ATOM     20  C   UNL     1     -34.488  23.965   5.013  0.00  0.00    +0.082 C 
ATOM     21  C   UNL     1     -34.748  25.189   5.493  0.00  0.00    +0.007 C 
BRANCH  21  22
ATOM     22  C   UNL     1     -33.787  26.307   5.503  0.00  0.00    +0.000 C 
ATOM     23  C   UNL     1     -33.477  26.970   4.316  0.00  0.00    +0.003 C 
ATOM     24  C   UNL     1     -33.186  26.701   6.699  0.00  0.00    +0.003 C 
ATOM     25  C   UNL     1     -32.567  28.027   4.324  0.00  0.00    +0.037 C 
ATOM     26  C   UNL     1     -32.275  27.757   6.708  0.00  0.00    +0.037 C 
ATOM     27  C   UNL     1     -31.966  28.420   5.519  0.00  0.00    +0.134 C 
BRANCH  27  28
ATOM     28  O   UNL     1     -31.077  29.451   5.528  0.00  0.00    -0.506 OA
ATOM     29  H   UNL     1     -30.180  29.293   5.742  0.00  0.00    +0.292 HD
ENDBRANCH  27  28
ENDBRANCH  21  22
ENDBRANCH  19  20
ENDBRANCH  17  19
ENDBRANCH   2  17
TORSDOF 10
ENDMDL
MODEL 6
REMARK VINA RESULT:      -6.3      1.563      2.356
REMARK  Name = 57351087
REMARK  10 active torsions:
REMARK  status: ('A' for Active; 'I' for Inactive)
REMARK    1  A    between atoms: C_1  and  O_7
REMARK    2  A    between atoms: C_1  and  C_14
REMARK    3  A    between atoms: C_2  and  O_17
REMARK    4  A    between atoms: C_5  and  O_9
REMARK    5  A    between atoms: C_6  and  O_11
REMARK    6  A    between atoms: C_14  and  O_15
REMARK    7  A    between atoms: O_17  and  C_19
REMARK    8  A    between atoms: C_19  and  C_20
REMARK    9  A    between atoms: C_21  and  C_22
REMARK   10  A    between atoms: C_27  and  O_28
REMARK                            x       y       z     vdW  Elec       q    Type
REMARK                         _______ _______ _______ _____ _____    ______ ____
ROOT
ATOM      1  C   UNL     1     -34.629  25.397   4.225  0.00  0.00    +0.183 C 
ATOM      2  C   UNL     1     -35.241  23.250   3.027  0.00  0.00    +0.201 C 
ATOM      3  C   UNL     1     -35.026  24.760   2.891  0.00  0.00    +0.084 C 
ATOM      4  C   UNL     1     -35.608  25.037   5.352  0.00  0.00    +0.070 C 
ATOM      5  C   UNL     1     -36.268  22.918   4.115  0.00  0.00    +0.177 C 
ATOM      6  C   UNL     1     -35.872  23.527   5.462  0.00  0.00    +0.144 C 
ENDROOT
BRANCH   1   7
ATOM      7  O   UNL     1     -33.307  24.984   4.556  0.00  0.00    -0.376 OA
ATOM      8  H   UNL     1     -32.676  25.669   4.284  0.00  0.00    +0.211 HD
ENDBRANCH   1   7
BRANCH   5   9
ATOM      9  O   UNL     1     -37.550  23.434   3.753  0.00  0.00    -0.379 OA
ATOM     10  H   UNL     1     -37.941  22.873   3.064  0.00  0.00    +0.211 HD
ENDBRANCH   5   9
BRANCH   6  11
ATOM     11  O   UNL     1     -34.711  22.858   5.946  0.00  0.00    -0.382 OA
ATOM     12  H   UNL     1     -34.018  22.881   5.268  0.00  0.00    +0.210 HD
ENDBRANCH   6  11
BRANCH   1  14
ATOM     13  O   UNL     1     -33.609  27.576   4.483  0.00  0.00    -0.248 OA
ATOM     14  C   UNL     1     -34.531  26.886   4.071  0.00  0.00    +0.338 C 
BRANCH  14  15
ATOM     15  O   UNL     1     -35.611  27.371   3.411  0.00  0.00    -0.479 OA
ATOM     16  H   UNL     1     -35.728  27.180   2.501  0.00  0.00    +0.295 HD
ENDBRANCH  14  15
ENDBRANCH   1  14
BRANCH   2  17
ATOM     17  O   UNL     1     -35.693  22.716   1.785  0.00  0.00    -0.446 OA
BRANCH  17  19
ATOM     18  O   UNL     1     -37.205  20.969   1.811  0.00  0.00    -0.245 OA
ATOM     19  C   UNL     1     -36.064  21.406   1.808  0.00  0.00    +0.341 C 
BRANCH  19  20
ATOM     20  C   UNL     1     -34.832  20.587   1.829  0.00  0.00    +0.082 C 
ATOM     21  C   UNL     1     -34.035  20.563   0.752  0.00  0.00    +0.007 C 
BRANCH  21  22
ATOM     22  C   UNL     1     -32.791  19.781   0.648  0.00  0.00    +0.000 C 
ATOM     23  C   UNL     1     -31.714  20.279  -0.085  0.00  0.00    +0.003 C 
ATOM     24  C   UNL     1     -32.689  18.542   1.282  0.00  0.00    +0.003 C 
ATOM     25  C   UNL     1     -30.536  19.539  -0.185  0.00  0.00    +0.037 C 
ATOM     26  C   UNL     1     -31.511  17.802   1.182  0.00  0.00    +0.037 C 
ATOM     27  C   UNL     1     -30.434  18.301   0.448  0.00  0.00    +0.134 C 
BRANCH  27  28
ATOM     28  O   UNL     1     -29.285  17.578   0.351  0.00  0.00    -0.506 OA
ATOM     29  H   UNL     1     -29.320  16.673   0.113  0.00  0.00    +0.292 HD
ENDBRANCH  27  28
ENDBRANCH  21  22
ENDBRANCH  19  20
ENDBRANCH  17  19
ENDBRANCH   2  17
TORSDOF 10
ENDMDL
MODEL 7
REMARK VINA RESULT:      -6.2      1.352      3.093
REMARK  Name = 57351087
REMARK  10 active torsions:
REMARK  status: ('A' for Active; 'I' for Inactive)
REMARK    1  A    between atoms: C_1  and  O_7
REMARK    2  A    between atoms: C_1  and  C_14
REMARK    3  A    between atoms: C_2  and  O_17
REMARK    4  A    between atoms: C_5  and  O_9
REMARK    5  A    between atoms: C_6  and  O_11
REMARK    6  A    between atoms: C_14  and  O_15
REMARK    7  A    between atoms: O_17  and  C_19
REMARK    8  A    between atoms: C_19  and  C_20
REMARK    9  A    between atoms: C_21  and  C_22
REMARK   10  A    between atoms: C_27  and  O_28
REMARK                            x       y       z     vdW  Elec       q    Type
REMARK                         _______ _______ _______ _____ _____    ______ ____
ROOT
ATOM      1  C   UNL     1     -35.640  24.883   4.540  0.00  0.00    +0.183 C 
ATOM      2  C   UNL     1     -36.435  23.309   2.720  0.00  0.00    +0.201 C 
ATOM      3  C   UNL     1     -35.223  23.881   3.460  0.00  0.00    +0.084 C 
ATOM      4  C   UNL     1     -36.567  25.975   3.988  0.00  0.00    +0.070 C 
ATOM      5  C   UNL     1     -37.312  24.416   2.125  0.00  0.00    +0.177 C 
ATOM      6  C   UNL     1     -37.759  25.412   3.197  0.00  0.00    +0.144 C 
ENDROOT
BRANCH   1   7
ATOM      7  O   UNL     1     -36.272  24.177   5.602  0.00  0.00    -0.376 OA
ATOM      8  H   UNL     1     -35.685  24.163   6.375  0.00  0.00    +0.211 HD
ENDBRANCH   1   7
BRANCH   5   9
ATOM      9  O   UNL     1     -36.585  25.133   1.126  0.00  0.00    -0.379 OA
ATOM     10  H   UNL     1     -35.634  25.050   1.297  0.00  0.00    +0.211 HD
ENDBRANCH   5   9
BRANCH   6  11
ATOM     11  O   UNL     1     -38.671  24.762   4.078  0.00  0.00    -0.382 OA
ATOM     12  H   UNL     1     -38.274  24.689   4.960  0.00  0.00    +0.210 HD
ENDBRANCH   6  11
BRANCH   1  14
ATOM     13  O   UNL     1     -34.432  26.258   6.123  0.00  0.00    -0.248 OA
ATOM     14  C   UNL     1     -34.422  25.496   5.166  0.00  0.00    +0.338 C 
BRANCH  14  15
ATOM     15  O   UNL     1     -33.299  25.091   4.525  0.00  0.00    -0.479 OA
ATOM     16  H   UNL     1     -33.007  24.205   4.607  0.00  0.00    +0.295 HD
ENDBRANCH  14  15
ENDBRANCH   1  14
BRANCH   2  17
ATOM     17  O   UNL     1     -35.995  22.451   1.670  0.00  0.00    -0.446 OA
BRANCH  17  19
ATOM     18  O   UNL     1     -37.553  20.753   1.835  0.00  0.00    -0.245 OA
ATOM     19  C   UNL     1     -36.401  21.154   1.760  0.00  0.00    +0.341 C 
BRANCH  19  20
ATOM     20  C   UNL     1     -35.193  20.300   1.750  0.00  0.00    +0.082 C 
ATOM     21  C   UNL     1     -34.218  20.544   0.864  0.00  0.00    +0.007 C 
BRANCH  21  22
ATOM     22  C   UNL     1     -32.975  19.761   0.750  0.00  0.00    +0.000 C 
ATOM     23  C   UNL     1     -32.882  18.508   1.357  0.00  0.00    +0.003 C 
ATOM     24  C   UNL     1     -31.890  20.272   0.036  0.00  0.00    +0.003 C 
ATOM     25  C   UNL     1     -31.705  17.767   1.250  0.00  0.00    +0.037 C 
ATOM     26  C   UNL     1     -30.714  19.530  -0.071  0.00  0.00    +0.037 C 
ATOM     27  C   UNL     1     -30.622  18.278   0.537  0.00  0.00    +0.134 C 
BRANCH  27  28
ATOM     28  O   UNL     1     -29.473  17.555   0.433  0.00  0.00    -0.506 OA
ATOM     29  H   UNL     1     -29.111  17.141   1.191  0.00  0.00    +0.292 HD
ENDBRANCH  27  28
ENDBRANCH  21  22
ENDBRANCH  19  20
ENDBRANCH  17  19
ENDBRANCH   2  17
TORSDOF 10
ENDMDL
MODEL 8
REMARK VINA RESULT:      -6.0      1.315      1.592
REMARK  Name = 57351087
REMARK  10 active torsions:
REMARK  status: ('A' for Active; 'I' for Inactive)
REMARK    1  A    between atoms: C_1  and  O_7
REMARK    2  A    between atoms: C_1  and  C_14
REMARK    3  A    between atoms: C_2  and  O_17
REMARK    4  A    between atoms: C_5  and  O_9
REMARK    5  A    between atoms: C_6  and  O_11
REMARK    6  A    between atoms: C_14  and  O_15
REMARK    7  A    between atoms: O_17  and  C_19
REMARK    8  A    between atoms: C_19  and  C_20
REMARK    9  A    between atoms: C_21  and  C_22
REMARK   10  A    between atoms: C_27  and  O_28
REMARK                            x       y       z     vdW  Elec       q    Type
REMARK                         _______ _______ _______ _____ _____    ______ ____
ROOT
ATOM      1  C   UNL     1     -35.989  25.708   2.733  0.00  0.00    +0.183 C 
ATOM      2  C   UNL     1     -35.600  23.295   3.400  0.00  0.00    +0.201 C 
ATOM      3  C   UNL     1     -36.594  24.304   2.821  0.00  0.00    +0.084 C 
ATOM      4  C   UNL     1     -35.393  26.166   4.072  0.00  0.00    +0.070 C 
ATOM      5  C   UNL     1     -35.066  23.743   4.766  0.00  0.00    +0.177 C 
ATOM      6  C   UNL     1     -34.434  25.134   4.689  0.00  0.00    +0.144 C 
ENDROOT
BRANCH   1   7
ATOM      7  O   UNL     1     -34.997  25.718   1.712  0.00  0.00    -0.376 OA
ATOM      8  H   UNL     1     -34.116  25.722   2.117  0.00  0.00    +0.211 HD
ENDBRANCH   1   7
BRANCH   5   9
ATOM      9  O   UNL     1     -36.129  23.788   5.717  0.00  0.00    -0.379 OA
ATOM     10  H   UNL     1     -36.410  24.708   5.845  0.00  0.00    +0.211 HD
ENDBRANCH   5   9
BRANCH   6  11
ATOM     11  O   UNL     1     -33.237  25.055   3.921  0.00  0.00    -0.382 OA
ATOM     12  H   UNL     1     -33.268  25.707   3.203  0.00  0.00    +0.210 HD
ENDBRANCH   6  11
BRANCH   1  14
ATOM     13  O   UNL     1     -36.866  27.503   1.368  0.00  0.00    -0.248 OA
ATOM     14  C   UNL     1     -37.027  26.684   2.261  0.00  0.00    +0.338 C 
BRANCH  14  15
ATOM     15  O   UNL     1     -38.177  26.536   2.963  0.00  0.00    -0.479 OA
ATOM     16  H   UNL     1     -38.186  26.699   3.885  0.00  0.00    +0.295 HD
ENDBRANCH  14  15
ENDBRANCH   1  14
BRANCH   2  17
ATOM     17  O   UNL     1     -36.234  22.026   3.545  0.00  0.00    -0.446 OA
BRANCH  17  19
ATOM     18  O   UNL     1     -37.164  21.058   1.664  0.00  0.00    -0.245 OA
ATOM     19  C   UNL     1     -36.233  21.238   2.434  0.00  0.00    +0.341 C 
BRANCH  19  20
ATOM     20  C   UNL     1     -34.890  20.628   2.314  0.00  0.00    +0.082 C 
ATOM     21  C   UNL     1     -34.415  20.306   1.103  0.00  0.00    +0.007 C 
BRANCH  21  22
ATOM     22  C   UNL     1     -33.102  19.686   0.856  0.00  0.00    +0.000 C 
ATOM     23  C   UNL     1     -32.148  20.356   0.090  0.00  0.00    +0.003 C 
ATOM     24  C   UNL     1     -32.812  18.429   1.388  0.00  0.00    +0.003 C 
ATOM     25  C   UNL     1     -30.904  19.768  -0.146  0.00  0.00    +0.037 C 
ATOM     26  C   UNL     1     -31.568  17.842   1.152  0.00  0.00    +0.037 C 
ATOM     27  C   UNL     1     -30.615  18.512   0.385  0.00  0.00    +0.134 C 
BRANCH  27  28
ATOM     28  O   UNL     1     -29.402  17.939   0.155  0.00  0.00    -0.506 OA
ATOM     29  H   UNL     1     -28.805  18.334  -0.448  0.00  0.00    +0.292 HD
ENDBRANCH  27  28
ENDBRANCH  21  22
ENDBRANCH  19  20
ENDBRANCH  17  19
ENDBRANCH   2  17
TORSDOF 10
ENDMDL
MODEL 9
REMARK VINA RESULT:      -6.0      4.740      6.964
REMARK  Name = 57351087
REMARK  10 active torsions:
REMARK  status: ('A' for Active; 'I' for Inactive)
REMARK    1  A    between atoms: C_1  and  O_7
REMARK    2  A    between atoms: C_1  and  C_14
REMARK    3  A    between atoms: C_2  and  O_17
REMARK    4  A    between atoms: C_5  and  O_9
REMARK    5  A    between atoms: C_6  and  O_11
REMARK    6  A    between atoms: C_14  and  O_15
REMARK    7  A    between atoms: O_17  and  C_19
REMARK    8  A    between atoms: C_19  and  C_20
REMARK    9  A    between atoms: C_21  and  C_22
REMARK   10  A    between atoms: C_27  and  O_28
REMARK                            x       y       z     vdW  Elec       q    Type
REMARK                         _______ _______ _______ _____ _____    ______ ____
ROOT
ATOM      1  C   UNL     1     -38.583  22.683   1.467  0.00  0.00    +0.183 C 
ATOM      2  C   UNL     1     -37.357  24.028   3.230  0.00  0.00    +0.201 C 
ATOM      3  C   UNL     1     -37.958  22.668   2.865  0.00  0.00    +0.084 C 
ATOM      4  C   UNL     1     -39.580  23.838   1.292  0.00  0.00    +0.070 C 
ATOM      5  C   UNL     1     -38.387  25.156   3.108  0.00  0.00    +0.177 C 
ATOM      6  C   UNL     1     -39.003  25.201   1.708  0.00  0.00    +0.144 C 
ENDROOT
BRANCH   1   7
ATOM      7  O   UNL     1     -37.543  22.766   0.499  0.00  0.00    -0.376 OA
ATOM      8  H   UNL     1     -37.065  23.604   0.608  0.00  0.00    +0.211 HD
ENDBRANCH   1   7
BRANCH   5   9
ATOM      9  O   UNL     1     -39.441  24.962   4.052  0.00  0.00    -0.379 OA
ATOM     10  H   UNL     1     -39.113  25.151   4.945  0.00  0.00    +0.211 HD
ENDBRANCH   5   9
BRANCH   6  11
ATOM     11  O   UNL     1     -38.006  25.617   0.779  0.00  0.00    -0.382 OA
ATOM     12  H   UNL     1     -37.126  25.422   1.139  0.00  0.00    +0.210 HD
ENDBRANCH   6  11
BRANCH   1  14
ATOM     13  O   UNL     1     -40.460  21.193   1.134  0.00  0.00    -0.248 OA
ATOM     14  C   UNL     1     -39.251  21.368   1.192  0.00  0.00    +0.338 C 
BRANCH  14  15
ATOM     15  O   UNL     1     -38.329  20.391   1.017  0.00  0.00    -0.479 OA
ATOM     16  H   UNL     1     -38.570  19.590   0.593  0.00  0.00    +0.295 HD
ENDBRANCH  14  15
ENDBRANCH   1  14
BRANCH   2  17
ATOM     17  O   UNL     1     -36.867  23.992   4.569  0.00  0.00    -0.446 OA
BRANCH  17  19
ATOM     18  O   UNL     1     -35.392  22.254   4.948  0.00  0.00    -0.245 OA
ATOM     19  C   UNL     1     -35.636  23.431   4.729  0.00  0.00    +0.341 C 
BRANCH  19  20
ATOM     20  C   UNL     1     -34.628  24.505   4.592  0.00  0.00    +0.082 C 
ATOM     21  C   UNL     1     -34.521  25.438   5.549  0.00  0.00    +0.007 C 
BRANCH  21  22
ATOM     22  C   UNL     1     -33.566  26.559   5.522  0.00  0.00    +0.000 C 
ATOM     23  C   UNL     1     -32.962  26.989   6.703  0.00  0.00    +0.003 C 
ATOM     24  C   UNL     1     -33.267  27.193   4.314  0.00  0.00    +0.003 C 
ATOM     25  C   UNL     1     -32.059  28.052   6.678  0.00  0.00    +0.037 C 
ATOM     26  C   UNL     1     -32.364  28.256   4.290  0.00  0.00    +0.037 C 
ATOM     27  C   UNL     1     -31.760  28.685   5.472  0.00  0.00    +0.134 C 
BRANCH  27  28
ATOM     28  O   UNL     1     -30.879  29.723   5.447  0.00  0.00    -0.506 OA
ATOM     29  H   UNL     1     -30.934  30.367   4.770  0.00  0.00    +0.292 HD
ENDBRANCH  27  28
ENDBRANCH  21  22
ENDBRANCH  19  20
ENDBRANCH  17  19
ENDBRANCH   2  17
TORSDOF 10
ENDMDL
