MODEL 1
REMARK VINA RESULT:      -6.0      0.000      0.000
REMARK  Name = 191944
REMARK  8 active torsions:
REMARK  status: ('A' for Active; 'I' for Inactive)
REMARK    1  A    between atoms: C_2  and  C_16
REMARK    2  A    between atoms: C_3  and  N_7
REMARK    3  A    between atoms: C_16  and  N_18
REMARK    4  A    between atoms: C_19  and  C_21
REMARK    5  A    between atoms: C_21  and  N_22
REMARK    6  A    between atoms: C_21  and  C_26
REMARK    7  A    between atoms: C_26  and  C_27
REMARK    8  A    between atoms: C_27  and  S_28
REMARK                            x       y       z     vdW  Elec       q    Type
REMARK                         _______ _______ _______ _____ _____    ______ ____
ROOT
ATOM      1  O   UNL     1     -35.781  25.056   3.154  0.00  0.00    -0.330 OA
ATOM      2  C   UNL     1     -34.537  25.473   3.757  0.00  0.00    +0.159 C 
ATOM      3  C   UNL     1     -36.402  24.088   4.018  0.00  0.00    +0.230 C 
ATOM      4  C   UNL     1     -34.452  24.745   5.051  0.00  0.00    +0.004 C 
ATOM      5  C   UNL     1     -35.510  23.951   5.194  0.00  0.00    +0.023 C 
ENDROOT
BRANCH   3   7
ATOM      6  O   UNL     1     -38.630  23.257   2.507  0.00  0.00    -0.193 OA
ATOM      7  N   UNL     1     -36.514  22.836   3.326  0.00  0.00    -0.176 N 
ATOM      8  N   UNL     1     -37.709  21.262   1.940  0.00  0.00    -0.306 NA
ATOM      9  N   UNL     1     -36.760  19.217   1.365  0.00  0.00    -0.332 N 
ATOM     10  C   UNL     1     -35.456  21.941   3.390  0.00  0.00    +0.084 C 
ATOM     11  C   UNL     1     -37.671  22.487   2.583  0.00  0.00    +0.276 C 
ATOM     12  C   UNL     1     -35.474  20.758   2.781  0.00  0.00    +0.065 C 
ATOM     13  C   UNL     1     -36.703  20.431   2.012  0.00  0.00    +0.193 C 
ATOM     14  H   UNL     1     -37.561  18.973   0.848  0.00  0.00    +0.145 HD
ATOM     15  H   UNL     1     -36.002  18.593   1.420  0.00  0.00    +0.145 HD
ENDBRANCH   3   7
BRANCH   2  16
ATOM     16  C   UNL     1     -34.555  26.978   3.924  0.00  0.00    +0.124 C 
BRANCH  16  18
ATOM     17  O   UNL     1     -31.966  28.248   3.750  0.00  0.00    -0.277 OA
ATOM     18  N   UNL     1     -33.714  27.401   5.020  0.00  0.00    -0.303 N 
ATOM     19  C   UNL     1     -32.478  28.006   4.841  0.00  0.00    +0.202 C 
ATOM     20  H   UNL     1     -34.034  27.252   5.940  0.00  0.00    +0.149 HD
BRANCH  19  21
ATOM     21  C   UNL     1     -31.806  28.340   6.171  0.00  0.00    +0.014 C 
BRANCH  21  22
ATOM     22  N   UNL     1     -32.213  27.342   7.158  0.00  0.00    +0.387 N 
ATOM     23  H   UNL     1     -32.062  27.710   8.097  0.00  0.00    -0.089 HD
ATOM     24  H   UNL     1     -31.659  26.495   7.032  0.00  0.00    -0.089 HD
ATOM     25  H   UNL     1     -33.201  27.124   7.032  0.00  0.00    -0.089 HD
ENDBRANCH  21  22
BRANCH  21  26
ATOM     26  C   UNL     1     -30.275  28.420   6.036  0.00  0.00    -0.001 C 
BRANCH  26  27
ATOM     27  C   UNL     1     -29.613  29.404   7.005  0.00  0.00    +0.056 C 
BRANCH  27  28
ATOM     28  S   UNL     1     -27.967  28.809   7.493  0.00  0.00    -0.139 S 
ATOM     29  C   UNL     1     -28.168  27.076   7.022  0.00  0.00    +0.069 C 
ENDBRANCH  27  28
ENDBRANCH  26  27
ENDBRANCH  21  26
ENDBRANCH  19  21
ENDBRANCH  16  18
ENDBRANCH   2  16
TORSDOF 8
ENDMDL
MODEL 2
REMARK VINA RESULT:      -6.0      3.386      8.217
REMARK  Name = 191944
REMARK  8 active torsions:
REMARK  status: ('A' for Active; 'I' for Inactive)
REMARK    1  A    between atoms: C_2  and  C_16
REMARK    2  A    between atoms: C_3  and  N_7
REMARK    3  A    between atoms: C_16  and  N_18
REMARK    4  A    between atoms: C_19  and  C_21
REMARK    5  A    between atoms: C_21  and  N_22
REMARK    6  A    between atoms: C_21  and  C_26
REMARK    7  A    between atoms: C_26  and  C_27
REMARK    8  A    between atoms: C_27  and  S_28
REMARK                            x       y       z     vdW  Elec       q    Type
REMARK                         _______ _______ _______ _____ _____    ______ ____
ROOT
ATOM      1  O   UNL     1     -35.543  26.037   4.075  0.00  0.00    -0.330 OA
ATOM      2  C   UNL     1     -36.488  25.171   4.742  0.00  0.00    +0.159 C 
ATOM      3  C   UNL     1     -34.215  25.557   4.349  0.00  0.00    +0.230 C 
ATOM      4  C   UNL     1     -35.672  24.115   5.399  0.00  0.00    +0.004 C 
ATOM      5  C   UNL     1     -34.378  24.341   5.180  0.00  0.00    +0.023 C 
ENDROOT
BRANCH   3   7
ATOM      6  O   UNL     1     -32.996  27.821   3.197  0.00  0.00    -0.193 OA
ATOM      7  N   UNL     1     -33.486  26.561   5.068  0.00  0.00    -0.176 N 
ATOM      8  N   UNL     1     -32.208  28.607   5.176  0.00  0.00    -0.306 NA
ATOM      9  N   UNL     1     -31.401  29.406   7.206  0.00  0.00    -0.332 N 
ATOM     10  C   UNL     1     -33.351  26.432   6.443  0.00  0.00    +0.084 C 
ATOM     11  C   UNL     1     -32.898  27.677   4.418  0.00  0.00    +0.276 C 
ATOM     12  C   UNL     1     -32.690  27.314   7.189  0.00  0.00    +0.065 C 
ATOM     13  C   UNL     1     -32.091  28.469   6.470  0.00  0.00    +0.193 C 
ATOM     14  H   UNL     1     -30.994  30.181   6.757  0.00  0.00    +0.145 HD
ATOM     15  H   UNL     1     -31.315  29.299   8.180  0.00  0.00    +0.145 HD
ENDBRANCH   3   7
BRANCH   2  16
ATOM     16  C   UNL     1     -37.455  24.621   3.716  0.00  0.00    +0.124 C 
BRANCH  16  18
ATOM     17  O   UNL     1     -35.836  23.304   1.718  0.00  0.00    -0.277 OA
ATOM     18  N   UNL     1     -37.280  23.198   3.532  0.00  0.00    -0.303 N 
ATOM     19  C   UNL     1     -36.478  22.652   2.539  0.00  0.00    +0.202 C 
ATOM     20  H   UNL     1     -37.754  22.586   4.141  0.00  0.00    +0.149 HD
BRANCH  19  21
ATOM     21  C   UNL     1     -36.483  21.126   2.573  0.00  0.00    +0.014 C 
BRANCH  21  22
ATOM     22  N   UNL     1     -37.762  20.657   2.042  0.00  0.00    +0.387 N 
ATOM     23  H   UNL     1     -38.411  21.441   1.974  0.00  0.00    -0.089 HD
ATOM     24  H   UNL     1     -38.150  19.949   2.666  0.00  0.00    -0.089 HD
ATOM     25  H   UNL     1     -37.618  20.252   1.117  0.00  0.00    -0.089 HD
ENDBRANCH  21  22
BRANCH  21  26
ATOM     26  C   UNL     1     -35.292  20.531   1.804  0.00  0.00    -0.001 C 
BRANCH  26  27
ATOM     27  C   UNL     1     -35.679  19.825   0.500  0.00  0.00    +0.056 C 
BRANCH  27  28
ATOM     28  S   UNL     1     -34.451  18.555   0.074  0.00  0.00    -0.139 S 
ATOM     29  C   UNL     1     -33.298  18.840   1.436  0.00  0.00    +0.069 C 
ENDBRANCH  27  28
ENDBRANCH  26  27
ENDBRANCH  21  26
ENDBRANCH  19  21
ENDBRANCH  16  18
ENDBRANCH   2  16
TORSDOF 8
ENDMDL
MODEL 3
REMARK VINA RESULT:      -5.5      1.815      2.419
REMARK  Name = 191944
REMARK  8 active torsions:
REMARK  status: ('A' for Active; 'I' for Inactive)
REMARK    1  A    between atoms: C_2  and  C_16
REMARK    2  A    between atoms: C_3  and  N_7
REMARK    3  A    between atoms: C_16  and  N_18
REMARK    4  A    between atoms: C_19  and  C_21
REMARK    5  A    between atoms: C_21  and  N_22
REMARK    6  A    between atoms: C_21  and  C_26
REMARK    7  A    between atoms: C_26  and  C_27
REMARK    8  A    between atoms: C_27  and  S_28
REMARK                            x       y       z     vdW  Elec       q    Type
REMARK                         _______ _______ _______ _____ _____    ______ ____
ROOT
ATOM      1  O   UNL     1     -35.643  24.538   4.087  0.00  0.00    -0.330 OA
ATOM      2  C   UNL     1     -34.389  24.595   4.801  0.00  0.00    +0.159 C 
ATOM      3  C   UNL     1     -36.380  23.395   4.552  0.00  0.00    +0.230 C 
ATOM      4  C   UNL     1     -34.419  23.455   5.756  0.00  0.00    +0.004 C 
ATOM      5  C   UNL     1     -35.549  22.768   5.607  0.00  0.00    +0.023 C 
ENDROOT
BRANCH   3   7
ATOM      6  O   UNL     1     -38.640  23.335   2.869  0.00  0.00    -0.193 OA
ATOM      7  N   UNL     1     -36.579  22.482   3.463  0.00  0.00    -0.176 N 
ATOM      8  N   UNL     1     -37.870  21.601   1.623  0.00  0.00    -0.306 NA
ATOM      9  N   UNL     1     -37.076  19.822   0.350  0.00  0.00    -0.332 N 
ATOM     10  C   UNL     1     -35.596  21.540   3.195  0.00  0.00    +0.084 C 
ATOM     11  C   UNL     1     -37.746  22.513   2.657  0.00  0.00    +0.276 C 
ATOM     12  C   UNL     1     -35.697  20.654   2.206  0.00  0.00    +0.065 C 
ATOM     13  C   UNL     1     -36.934  20.720   1.384  0.00  0.00    +0.193 C 
ATOM     14  H   UNL     1     -37.885  19.843  -0.211  0.00  0.00    +0.145 HD
ATOM     15  H   UNL     1     -36.371  19.161   0.173  0.00  0.00    +0.145 HD
ENDBRANCH   3   7
BRANCH   2  16
ATOM     16  C   UNL     1     -34.278  25.940   5.488  0.00  0.00    +0.124 C 
BRANCH  16  18
ATOM     17  O   UNL     1     -32.138  27.172   3.989  0.00  0.00    -0.277 OA
ATOM     18  N   UNL     1     -34.387  27.028   4.543  0.00  0.00    -0.303 N 
ATOM     19  C   UNL     1     -33.298  27.559   3.865  0.00  0.00    +0.202 C 
ATOM     20  H   UNL     1     -35.278  27.411   4.371  0.00  0.00    +0.149 HD
BRANCH  19  21
ATOM     21  C   UNL     1     -33.703  28.701   2.937  0.00  0.00    +0.014 C 
BRANCH  21  22
ATOM     22  N   UNL     1     -35.044  29.148   3.311  0.00  0.00    +0.387 N 
ATOM     23  H   UNL     1     -35.671  29.047   2.513  0.00  0.00    -0.089 HD
ATOM     24  H   UNL     1     -35.009  30.127   3.594  0.00  0.00    -0.089 HD
ATOM     25  H   UNL     1     -35.385  28.582   4.087  0.00  0.00    -0.089 HD
ENDBRANCH  21  22
BRANCH  21  26
ATOM     26  C   UNL     1     -32.686  29.855   2.969  0.00  0.00    -0.001 C 
BRANCH  26  27
ATOM     27  C   UNL     1     -32.779  30.735   4.219  0.00  0.00    +0.056 C 
BRANCH  27  28
ATOM     28  S   UNL     1     -31.199  30.733   5.117  0.00  0.00    -0.139 S 
ATOM     29  C   UNL     1     -31.691  29.690   6.508  0.00  0.00    +0.069 C 
ENDBRANCH  27  28
ENDBRANCH  26  27
ENDBRANCH  21  26
ENDBRANCH  19  21
ENDBRANCH  16  18
ENDBRANCH   2  16
TORSDOF 8
ENDMDL
MODEL 4
REMARK VINA RESULT:      -5.5      1.455      1.562
REMARK  Name = 191944
REMARK  8 active torsions:
REMARK  status: ('A' for Active; 'I' for Inactive)
REMARK    1  A    between atoms: C_2  and  C_16
REMARK    2  A    between atoms: C_3  and  N_7
REMARK    3  A    between atoms: C_16  and  N_18
REMARK    4  A    between atoms: C_19  and  C_21
REMARK    5  A    between atoms: C_21  and  N_22
REMARK    6  A    between atoms: C_21  and  C_26
REMARK    7  A    between atoms: C_26  and  C_27
REMARK    8  A    between atoms: C_27  and  S_28
REMARK                            x       y       z     vdW  Elec       q    Type
REMARK                         _______ _______ _______ _____ _____    ______ ____
ROOT
ATOM      1  O   UNL     1     -34.740  25.959   3.024  0.00  0.00    -0.330 OA
ATOM      2  C   UNL     1     -33.717  26.205   4.014  0.00  0.00    +0.159 C 
ATOM      3  C   UNL     1     -35.944  25.564   3.704  0.00  0.00    +0.230 C 
ATOM      4  C   UNL     1     -34.370  25.982   5.331  0.00  0.00    +0.004 C 
ATOM      5  C   UNL     1     -35.635  25.610   5.152  0.00  0.00    +0.023 C 
ENDROOT
BRANCH   3   7
ATOM      6  O   UNL     1     -38.567  24.540   3.589  0.00  0.00    -0.193 OA
ATOM      7  N   UNL     1     -36.297  24.231   3.309  0.00  0.00    -0.176 N 
ATOM      8  N   UNL     1     -37.910  22.485   2.884  0.00  0.00    -0.306 NA
ATOM      9  N   UNL     1     -37.229  20.380   2.163  0.00  0.00    -0.332 N 
ATOM     10  C   UNL     1     -35.285  23.351   2.951  0.00  0.00    +0.084 C 
ATOM     11  C   UNL     1     -37.644  23.785   3.275  0.00  0.00    +0.276 C 
ATOM     12  C   UNL     1     -35.520  22.096   2.573  0.00  0.00    +0.065 C 
ATOM     13  C   UNL     1     -36.944  21.670   2.550  0.00  0.00    +0.193 C 
ATOM     14  H   UNL     1     -38.163  20.070   2.138  0.00  0.00    +0.145 HD
ATOM     15  H   UNL     1     -36.500  19.769   1.913  0.00  0.00    +0.145 HD
ENDBRANCH   3   7
BRANCH   2  16
ATOM     16  C   UNL     1     -33.198  27.617   3.840  0.00  0.00    +0.124 C 
BRANCH  16  18
ATOM     17  O   UNL     1     -31.511  29.942   4.146  0.00  0.00    -0.277 OA
ATOM     18  N   UNL     1     -32.628  28.127   5.066  0.00  0.00    -0.303 N 
ATOM     19  C   UNL     1     -31.824  29.258   5.119  0.00  0.00    +0.202 C 
ATOM     20  H   UNL     1     -32.820  27.649   5.905  0.00  0.00    +0.149 HD
BRANCH  19  21
ATOM     21  C   UNL     1     -31.357  29.563   6.539  0.00  0.00    +0.014 C 
BRANCH  21  22
ATOM     22  N   UNL     1     -31.980  28.601   7.447  0.00  0.00    +0.387 N 
ATOM     23  H   UNL     1     -31.432  27.741   7.460  0.00  0.00    -0.089 HD
ATOM     24  H   UNL     1     -32.926  28.395   7.127  0.00  0.00    -0.089 HD
ATOM     25  H   UNL     1     -32.017  28.995   8.386  0.00  0.00    -0.089 HD
ENDBRANCH  21  22
BRANCH  21  26
ATOM     26  C   UNL     1     -29.824  29.548   6.655  0.00  0.00    -0.001 C 
BRANCH  26  27
ATOM     27  C   UNL     1     -29.183  28.204   6.300  0.00  0.00    +0.056 C 
BRANCH  27  28
ATOM     28  S   UNL     1     -27.976  28.409   4.956  0.00  0.00    -0.139 S 
ATOM     29  C   UNL     1     -27.296  26.735   4.959  0.00  0.00    +0.069 C 
ENDBRANCH  27  28
ENDBRANCH  26  27
ENDBRANCH  21  26
ENDBRANCH  19  21
ENDBRANCH  16  18
ENDBRANCH   2  16
TORSDOF 8
ENDMDL
MODEL 5
REMARK VINA RESULT:      -5.4      3.340      8.248
REMARK  Name = 191944
REMARK  8 active torsions:
REMARK  status: ('A' for Active; 'I' for Inactive)
REMARK    1  A    between atoms: C_2  and  C_16
REMARK    2  A    between atoms: C_3  and  N_7
REMARK    3  A    between atoms: C_16  and  N_18
REMARK    4  A    between atoms: C_19  and  C_21
REMARK    5  A    between atoms: C_21  and  N_22
REMARK    6  A    between atoms: C_21  and  C_26
REMARK    7  A    between atoms: C_26  and  C_27
REMARK    8  A    between atoms: C_27  and  S_28
REMARK                            x       y       z     vdW  Elec       q    Type
REMARK                         _______ _______ _______ _____ _____    ______ ____
ROOT
ATOM      1  O   UNL     1     -34.254  24.399   4.814  0.00  0.00    -0.330 OA
ATOM      2  C   UNL     1     -35.515  24.072   4.190  0.00  0.00    +0.159 C 
ATOM      3  C   UNL     1     -34.460  25.515   5.697  0.00  0.00    +0.230 C 
ATOM      4  C   UNL     1     -36.508  25.016   4.770  0.00  0.00    +0.004 C 
ATOM      5  C   UNL     1     -35.903  25.841   5.622  0.00  0.00    +0.023 C 
ENDROOT
BRANCH   3   7
ATOM      6  O   UNL     1     -32.778  27.079   7.330  0.00  0.00    -0.193 OA
ATOM      7  N   UNL     1     -33.671  26.626   5.251  0.00  0.00    -0.176 N 
ATOM      8  N   UNL     1     -32.110  28.429   5.632  0.00  0.00    -0.306 NA
ATOM      9  N   UNL     1     -31.433  29.811   3.887  0.00  0.00    -0.332 N 
ATOM     10  C   UNL     1     -33.722  26.984   3.911  0.00  0.00    +0.084 C 
ATOM     11  C   UNL     1     -32.845  27.368   6.134  0.00  0.00    +0.276 C 
ATOM     12  C   UNL     1     -33.025  28.002   3.409  0.00  0.00    +0.065 C 
ATOM     13  C   UNL     1     -32.171  28.753   4.367  0.00  0.00    +0.193 C 
ATOM     14  H   UNL     1     -30.858  30.326   4.498  0.00  0.00    +0.145 HD
ATOM     15  H   UNL     1     -31.480  30.052   2.935  0.00  0.00    +0.145 HD
ENDBRANCH   3   7
BRANCH   2  16
ATOM     16  C   UNL     1     -35.840  22.621   4.475  0.00  0.00    +0.124 C 
BRANCH  16  18
ATOM     17  O   UNL     1     -34.919  20.256   3.094  0.00  0.00    -0.277 OA
ATOM     18  N   UNL     1     -36.454  21.981   3.334  0.00  0.00    -0.303 N 
ATOM     19  C   UNL     1     -35.939  20.841   2.732  0.00  0.00    +0.202 C 
ATOM     20  H   UNL     1     -37.279  22.372   2.966  0.00  0.00    +0.149 HD
BRANCH  19  21
ATOM     21  C   UNL     1     -36.785  20.386   1.546  0.00  0.00    +0.014 C 
BRANCH  21  22
ATOM     22  N   UNL     1     -38.189  20.658   1.851  0.00  0.00    +0.387 N 
ATOM     23  H   UNL     1     -38.773  19.926   1.446  0.00  0.00    -0.089 HD
ATOM     24  H   UNL     1     -38.454  21.560   1.457  0.00  0.00    -0.089 HD
ATOM     25  H   UNL     1     -38.320  20.676   2.862  0.00  0.00    -0.089 HD
ENDBRANCH  21  22
BRANCH  21  26
ATOM     26  C   UNL     1     -36.345  21.058   0.235  0.00  0.00    -0.001 C 
BRANCH  26  27
ATOM     27  C   UNL     1     -35.048  20.493  -0.352  0.00  0.00    +0.056 C 
BRANCH  27  28
ATOM     28  S   UNL     1     -33.702  21.706  -0.210  0.00  0.00    -0.139 S 
ATOM     29  C   UNL     1     -34.702  23.160   0.177  0.00  0.00    +0.069 C 
ENDBRANCH  27  28
ENDBRANCH  26  27
ENDBRANCH  21  26
ENDBRANCH  19  21
ENDBRANCH  16  18
ENDBRANCH   2  16
TORSDOF 8
ENDMDL
MODEL 6
REMARK VINA RESULT:      -5.4      3.466      5.791
REMARK  Name = 191944
REMARK  8 active torsions:
REMARK  status: ('A' for Active; 'I' for Inactive)
REMARK    1  A    between atoms: C_2  and  C_16
REMARK    2  A    between atoms: C_3  and  N_7
REMARK    3  A    between atoms: C_16  and  N_18
REMARK    4  A    between atoms: C_19  and  C_21
REMARK    5  A    between atoms: C_21  and  N_22
REMARK    6  A    between atoms: C_21  and  C_26
REMARK    7  A    between atoms: C_26  and  C_27
REMARK    8  A    between atoms: C_27  and  S_28
REMARK                            x       y       z     vdW  Elec       q    Type
REMARK                         _______ _______ _______ _____ _____    ______ ____
ROOT
ATOM      1  O   UNL     1     -35.092  21.427   2.106  0.00  0.00    -0.330 OA
ATOM      2  C   UNL     1     -36.481  21.030   2.083  0.00  0.00    +0.159 C 
ATOM      3  C   UNL     1     -34.559  21.291   0.777  0.00  0.00    +0.230 C 
ATOM      4  C   UNL     1     -36.778  20.687   0.667  0.00  0.00    +0.004 C 
ATOM      5  C   UNL     1     -35.681  20.829  -0.073  0.00  0.00    +0.023 C 
ENDROOT
BRANCH   3   7
ATOM      6  O   UNL     1     -32.031  21.620  -0.425  0.00  0.00    -0.193 OA
ATOM      7  N   UNL     1     -33.504  20.319   0.786  0.00  0.00    -0.176 N 
ATOM      8  N   UNL     1     -31.282  19.573   0.206  0.00  0.00    -0.306 NA
ATOM      9  N   UNL     1     -30.521  17.472   0.855  0.00  0.00    -0.332 N 
ATOM     10  C   UNL     1     -33.718  19.108   1.429  0.00  0.00    +0.084 C 
ATOM     11  C   UNL     1     -32.254  20.557   0.158  0.00  0.00    +0.276 C 
ATOM     12  C   UNL     1     -32.796  18.149   1.486  0.00  0.00    +0.065 C 
ATOM     13  C   UNL     1     -31.501  18.438   0.817  0.00  0.00    +0.193 C 
ATOM     14  H   UNL     1     -29.653  17.636   0.421  0.00  0.00    +0.145 HD
ATOM     15  H   UNL     1     -30.688  16.619   1.315  0.00  0.00    +0.145 HD
ENDBRANCH   3   7
BRANCH   2  16
ATOM     16  C   UNL     1     -37.324  22.174   2.607  0.00  0.00    +0.124 C 
BRANCH  16  18
ATOM     17  O   UNL     1     -37.292  24.975   3.310  0.00  0.00    -0.277 OA
ATOM     18  N   UNL     1     -36.735  22.773   3.782  0.00  0.00    -0.303 N 
ATOM     19  C   UNL     1     -36.767  24.136   4.039  0.00  0.00    +0.202 C 
ATOM     20  H   UNL     1     -36.288  22.184   4.433  0.00  0.00    +0.149 HD
BRANCH  19  21
ATOM     21  C   UNL     1     -36.063  24.490   5.346  0.00  0.00    +0.014 C 
BRANCH  21  22
ATOM     22  N   UNL     1     -34.963  23.550   5.547  0.00  0.00    +0.387 N 
ATOM     23  H   UNL     1     -35.132  22.706   5.000  0.00  0.00    -0.089 HD
ATOM     24  H   UNL     1     -34.900  23.306   6.536  0.00  0.00    -0.089 HD
ATOM     25  H   UNL     1     -34.089  23.981   5.247  0.00  0.00    -0.089 HD
ENDBRANCH  21  22
BRANCH  21  26
ATOM     26  C   UNL     1     -35.578  25.950   5.360  0.00  0.00    -0.001 C 
BRANCH  26  27
ATOM     27  C   UNL     1     -34.080  26.108   5.638  0.00  0.00    +0.056 C 
BRANCH  27  28
ATOM     28  S   UNL     1     -33.288  27.085   4.327  0.00  0.00    -0.139 S 
ATOM     29  C   UNL     1     -34.748  27.378   3.303  0.00  0.00    +0.069 C 
ENDBRANCH  27  28
ENDBRANCH  26  27
ENDBRANCH  21  26
ENDBRANCH  19  21
ENDBRANCH  16  18
ENDBRANCH   2  16
TORSDOF 8
ENDMDL
MODEL 7
REMARK VINA RESULT:      -5.4     14.789     16.885
REMARK  Name = 191944
REMARK  8 active torsions:
REMARK  status: ('A' for Active; 'I' for Inactive)
REMARK    1  A    between atoms: C_2  and  C_16
REMARK    2  A    between atoms: C_3  and  N_7
REMARK    3  A    between atoms: C_16  and  N_18
REMARK    4  A    between atoms: C_19  and  C_21
REMARK    5  A    between atoms: C_21  and  N_22
REMARK    6  A    between atoms: C_21  and  C_26
REMARK    7  A    between atoms: C_26  and  C_27
REMARK    8  A    between atoms: C_27  and  S_28
REMARK                            x       y       z     vdW  Elec       q    Type
REMARK                         _______ _______ _______ _____ _____    ______ ____
ROOT
ATOM      1  O   UNL     1     -42.357  37.569  -2.015  0.00  0.00    -0.330 OA
ATOM      2  C   UNL     1     -43.391  36.887  -1.271  0.00  0.00    +0.159 C 
ATOM      3  C   UNL     1     -42.341  38.949  -1.610  0.00  0.00    +0.230 C 
ATOM      4  C   UNL     1     -43.973  37.910  -0.362  0.00  0.00    +0.004 C 
ATOM      5  C   UNL     1     -43.379  39.084  -0.562  0.00  0.00    +0.023 C 
ENDROOT
BRANCH   3   7
ATOM      6  O   UNL     1     -40.458  40.297  -3.215  0.00  0.00    -0.193 OA
ATOM      7  N   UNL     1     -42.655  39.779  -2.736  0.00  0.00    -0.176 N 
ATOM      8  N   UNL     1     -42.028  41.213  -4.575  0.00  0.00    -0.306 NA
ATOM      9  N   UNL     1     -43.642  42.151  -5.963  0.00  0.00    -0.332 N 
ATOM     10  C   UNL     1     -43.987  39.952  -3.086  0.00  0.00    +0.084 C 
ATOM     11  C   UNL     1     -41.650  40.427  -3.500  0.00  0.00    +0.276 C 
ATOM     12  C   UNL     1     -44.371  40.705  -4.115  0.00  0.00    +0.065 C 
ATOM     13  C   UNL     1     -43.287  41.365  -4.890  0.00  0.00    +0.193 C 
ATOM     14  H   UNL     1     -42.946  42.600  -6.494  0.00  0.00    +0.145 HD
ATOM     15  H   UNL     1     -44.590  42.264  -6.198  0.00  0.00    +0.145 HD
ENDBRANCH   3   7
BRANCH   2  16
ATOM     16  C   UNL     1     -42.771  35.720  -0.532  0.00  0.00    +0.124 C 
BRANCH  16  18
ATOM     17  O   UNL     1     -41.642  34.066   1.550  0.00  0.00    -0.277 OA
ATOM     18  N   UNL     1     -42.026  36.160   0.626  0.00  0.00    -0.303 N 
ATOM     19  C   UNL     1     -41.518  35.289   1.580  0.00  0.00    +0.202 C 
ATOM     20  H   UNL     1     -41.872  37.125   0.743  0.00  0.00    +0.149 HD
BRANCH  19  21
ATOM     21  C   UNL     1     -40.782  36.027   2.694  0.00  0.00    +0.014 C 
BRANCH  21  22
ATOM     22  N   UNL     1     -41.507  35.815   3.946  0.00  0.00    +0.387 N 
ATOM     23  H   UNL     1     -41.409  34.843   4.237  0.00  0.00    -0.089 HD
ATOM     24  H   UNL     1     -42.495  36.030   3.806  0.00  0.00    -0.089 HD
ATOM     25  H   UNL     1     -41.125  36.427   4.667  0.00  0.00    -0.089 HD
ENDBRANCH  21  22
BRANCH  21  26
ATOM     26  C   UNL     1     -39.313  35.584   2.803  0.00  0.00    -0.001 C 
BRANCH  26  27
ATOM     27  C   UNL     1     -38.447  35.993   1.608  0.00  0.00    +0.056 C 
BRANCH  27  28
ATOM     28  S   UNL     1     -37.330  34.638   1.137  0.00  0.00    -0.139 S 
ATOM     29  C   UNL     1     -38.272  33.267   1.844  0.00  0.00    +0.069 C 
ENDBRANCH  27  28
ENDBRANCH  26  27
ENDBRANCH  21  26
ENDBRANCH  19  21
ENDBRANCH  16  18
ENDBRANCH   2  16
TORSDOF 8
ENDMDL
MODEL 8
REMARK VINA RESULT:      -5.4      5.992     10.119
REMARK  Name = 191944
REMARK  8 active torsions:
REMARK  status: ('A' for Active; 'I' for Inactive)
REMARK    1  A    between atoms: C_2  and  C_16
REMARK    2  A    between atoms: C_3  and  N_7
REMARK    3  A    between atoms: C_16  and  N_18
REMARK    4  A    between atoms: C_19  and  C_21
REMARK    5  A    between atoms: C_21  and  N_22
REMARK    6  A    between atoms: C_21  and  C_26
REMARK    7  A    between atoms: C_26  and  C_27
REMARK    8  A    between atoms: C_27  and  S_28
REMARK                            x       y       z     vdW  Elec       q    Type
REMARK                         _______ _______ _______ _____ _____    ______ ____
ROOT
ATOM      1  O   UNL     1     -34.587  20.582   2.729  0.00  0.00    -0.330 OA
ATOM      2  C   UNL     1     -34.395  20.350   1.316  0.00  0.00    +0.159 C 
ATOM      3  C   UNL     1     -35.988  20.804   2.966  0.00  0.00    +0.230 C 
ATOM      4  C   UNL     1     -35.753  20.398   0.712  0.00  0.00    +0.004 C 
ATOM      5  C   UNL     1     -36.657  20.665   1.652  0.00  0.00    +0.023 C 
ENDROOT
BRANCH   3   7
ATOM      6  O   UNL     1     -35.306  21.643   5.569  0.00  0.00    -0.193 OA
ATOM      7  N   UNL     1     -36.178  22.127   3.487  0.00  0.00    -0.176 N 
ATOM      8  N   UNL     1     -36.021  23.773   5.246  0.00  0.00    -0.306 NA
ATOM      9  N   UNL     1     -36.758  25.954   4.910  0.00  0.00    -0.332 N 
ATOM     10  C   UNL     1     -36.742  23.093   2.666  0.00  0.00    +0.084 C 
ATOM     11  C   UNL     1     -35.808  22.477   4.812  0.00  0.00    +0.276 C 
ATOM     12  C   UNL     1     -36.957  24.345   3.065  0.00  0.00    +0.065 C 
ATOM     13  C   UNL     1     -36.555  24.670   4.459  0.00  0.00    +0.193 C 
ATOM     14  H   UNL     1     -36.501  26.199   5.828  0.00  0.00    +0.145 HD
ATOM     15  H   UNL     1     -37.159  26.627   4.316  0.00  0.00    +0.145 HD
ENDBRANCH   3   7
BRANCH   2  16
ATOM     16  C   UNL     1     -33.710  19.013   1.129  0.00  0.00    +0.124 C 
BRANCH  16  18
ATOM     17  O   UNL     1     -33.140  16.968  -0.831  0.00  0.00    -0.277 OA
ATOM     18  N   UNL     1     -34.622  18.016   0.615  0.00  0.00    -0.303 N 
ATOM     19  C   UNL     1     -34.259  17.068  -0.330  0.00  0.00    +0.202 C 
ATOM     20  H   UNL     1     -35.547  18.010   0.953  0.00  0.00    +0.149 HD
BRANCH  19  21
ATOM     21  C   UNL     1     -35.421  16.148  -0.695  0.00  0.00    +0.014 C 
BRANCH  21  22
ATOM     22  N   UNL     1     -35.548  15.130   0.347  0.00  0.00    +0.387 N 
ATOM     23  H   UNL     1     -36.175  15.467   1.078  0.00  0.00    -0.089 HD
ATOM     24  H   UNL     1     -34.631  14.938   0.748  0.00  0.00    -0.089 HD
ATOM     25  H   UNL     1     -35.928  14.275  -0.059  0.00  0.00    -0.089 HD
ENDBRANCH  21  22
BRANCH  21  26
ATOM     26  C   UNL     1     -36.731  16.929  -0.895  0.00  0.00    -0.001 C 
BRANCH  26  27
ATOM     27  C   UNL     1     -37.886  16.449  -0.011  0.00  0.00    +0.056 C 
BRANCH  27  28
ATOM     28  S   UNL     1     -39.296  15.929  -1.032  0.00  0.00    -0.139 S 
ATOM     29  C   UNL     1     -39.408  17.392  -2.086  0.00  0.00    +0.069 C 
ENDBRANCH  27  28
ENDBRANCH  26  27
ENDBRANCH  21  26
ENDBRANCH  19  21
ENDBRANCH  16  18
ENDBRANCH   2  16
TORSDOF 8
ENDMDL
MODEL 9
REMARK VINA RESULT:      -5.4      3.602      4.791
REMARK  Name = 191944
REMARK  8 active torsions:
REMARK  status: ('A' for Active; 'I' for Inactive)
REMARK    1  A    between atoms: C_2  and  C_16
REMARK    2  A    between atoms: C_3  and  N_7
REMARK    3  A    between atoms: C_16  and  N_18
REMARK    4  A    between atoms: C_19  and  C_21
REMARK    5  A    between atoms: C_21  and  N_22
REMARK    6  A    between atoms: C_21  and  C_26
REMARK    7  A    between atoms: C_26  and  C_27
REMARK    8  A    between atoms: C_27  and  S_28
REMARK                            x       y       z     vdW  Elec       q    Type
REMARK                         _______ _______ _______ _____ _____    ______ ____
ROOT
ATOM      1  O   UNL     1     -35.813  24.849   3.722  0.00  0.00    -0.330 OA
ATOM      2  C   UNL     1     -34.555  25.186   4.346  0.00  0.00    +0.159 C 
ATOM      3  C   UNL     1     -36.387  23.736   4.429  0.00  0.00    +0.230 C 
ATOM      4  C   UNL     1     -34.413  24.252   5.495  0.00  0.00    +0.004 C 
ATOM      5  C   UNL     1     -35.454  23.423   5.536  0.00  0.00    +0.023 C 
ENDROOT
BRANCH   3   7
ATOM      6  O   UNL     1     -38.538  23.271   2.669  0.00  0.00    -0.193 OA
ATOM      7  N   UNL     1     -36.504  22.617   3.540  0.00  0.00    -0.176 N 
ATOM      8  N   UNL     1     -37.664  21.344   1.848  0.00  0.00    -0.306 NA
ATOM      9  N   UNL     1     -36.764  19.368   1.013  0.00  0.00    -0.332 N 
ATOM     10  C   UNL     1     -35.490  21.669   3.525  0.00  0.00    +0.084 C 
ATOM     11  C   UNL     1     -37.619  22.449   2.680  0.00  0.00    +0.276 C 
ATOM     12  C   UNL     1     -35.516  20.598   2.734  0.00  0.00    +0.065 C 
ATOM     13  C   UNL     1     -36.701  20.460   1.848  0.00  0.00    +0.193 C 
ATOM     14  H   UNL     1     -37.537  19.251   0.414  0.00  0.00    +0.145 HD
ATOM     15  H   UNL     1     -36.038  18.705   1.014  0.00  0.00    +0.145 HD
ENDBRANCH   3   7
BRANCH   2  16
ATOM     16  C   UNL     1     -34.591  26.641   4.765  0.00  0.00    +0.124 C 
BRANCH  16  18
ATOM     17  O   UNL     1     -33.371  29.026   3.684  0.00  0.00    -0.277 OA
ATOM     18  N   UNL     1     -35.105  27.484   3.709  0.00  0.00    -0.303 N 
ATOM     19  C   UNL     1     -34.446  28.617   3.252  0.00  0.00    +0.202 C 
ATOM     20  H   UNL     1     -35.964  27.241   3.294  0.00  0.00    +0.149 HD
BRANCH  19  21
ATOM     21  C   UNL     1     -35.219  29.317   2.137  0.00  0.00    +0.014 C 
BRANCH  21  22
ATOM     22  N   UNL     1     -36.370  28.490   1.782  0.00  0.00    +0.387 N 
ATOM     23  H   UNL     1     -36.609  28.640   0.802  0.00  0.00    -0.089 HD
ATOM     24  H   UNL     1     -37.165  28.745   2.368  0.00  0.00    -0.089 HD
ATOM     25  H   UNL     1     -36.141  27.507   1.930  0.00  0.00    -0.089 HD
ENDBRANCH  21  22
BRANCH  21  26
ATOM     26  C   UNL     1     -35.640  30.741   2.537  0.00  0.00    -0.001 C 
BRANCH  26  27
ATOM     27  C   UNL     1     -35.933  31.664   1.351  0.00  0.00    +0.056 C 
BRANCH  27  28
ATOM     28  S   UNL     1     -37.640  32.281   1.430  0.00  0.00    -0.139 S 
ATOM     29  C   UNL     1     -38.331  31.310   0.071  0.00  0.00    +0.069 C 
ENDBRANCH  27  28
ENDBRANCH  26  27
ENDBRANCH  21  26
ENDBRANCH  19  21
ENDBRANCH  16  18
ENDBRANCH   2  16
TORSDOF 8
ENDMDL
