MODEL 1
REMARK VINA RESULT:      -6.2      0.000      0.000
REMARK  Name = 57502393
REMARK  6 active torsions:
REMARK  status: ('A' for Active; 'I' for Inactive)
REMARK    1  A    between atoms: C_6  and  O_21
REMARK    2  A    between atoms: C_6  and  C_28
REMARK    3  A    between atoms: C_9  and  O_23
REMARK    4  A    between atoms: C_15  and  O_25
REMARK    5  A    between atoms: C_28  and  C_29
REMARK    6  A    between atoms: C_29  and  O_30
REMARK                            x       y       z     vdW  Elec       q    Type
REMARK                         _______ _______ _______ _____ _____    ______ ____
ROOT
ATOM      1  O   UNL     1     -34.732  21.934   6.671  0.00  0.00    -0.291 OA
ATOM      2  C   UNL     1     -40.072  24.860   0.739  0.00  0.00    +0.031 C 
ATOM      3  C   UNL     1     -39.853  23.390   1.158  0.00  0.00    +0.003 C 
ATOM      4  C   UNL     1     -38.411  23.099   1.585  0.00  0.00    +0.005 C 
ATOM      5  C   UNL     1     -38.028  23.996   2.809  0.00  0.00    +0.031 C 
ATOM      6  C   UNL     1     -41.550  24.784   0.277  0.00  0.00    +0.141 C 
ATOM      7  C   UNL     1     -36.543  23.712   3.313  0.00  0.00    +0.020 C 
ATOM      8  C   UNL     1     -39.789  25.722   1.974  0.00  0.00    +0.032 C 
ATOM      9  C   UNL     1     -38.370  25.499   2.538  0.00  0.00    +0.111 C 
ATOM     10  C   UNL     1     -40.441  22.599  -0.009  0.00  0.00    +0.003 C 
ATOM     11  C   UNL     1     -41.639  23.444  -0.486  0.00  0.00    +0.034 C 
ATOM     12  C   UNL     1     -38.228  21.620   1.934  0.00  0.00    +0.034 C 
ATOM     13  C   UNL     1     -39.162  25.314  -0.435  0.00  0.00    +0.003 C 
ATOM     14  C   UNL     1     -36.334  22.190   3.491  0.00  0.00    -0.016 C 
ATOM     15  C   UNL     1     -36.787  21.321   2.329  0.00  0.00    +0.129 C 
ATOM     16  C   UNL     1     -36.311  24.439   4.672  0.00  0.00    +0.012 C 
ATOM     17  C   UNL     1     -35.494  24.229   2.300  0.00  0.00    +0.004 C 
ATOM     18  C   UNL     1     -35.094  23.952   5.440  0.00  0.00    +0.069 C 
ATOM     19  C   UNL     1     -35.763  21.642   4.580  0.00  0.00    +0.031 C 
ATOM     20  C   UNL     1     -35.186  22.470   5.662  0.00  0.00    +0.173 C 
ENDROOT
BRANCH   6  21
ATOM     21  O   UNL     1     -42.434  24.748   1.393  0.00  0.00    -0.380 OA
ATOM     22  H   UNL     1     -42.507  23.838   1.719  0.00  0.00    +0.211 HD
ENDBRANCH   6  21
BRANCH   9  23
ATOM     23  O   UNL     1     -38.302  26.250   3.750  0.00  0.00    -0.384 OA
ATOM     24  H   UNL     1     -38.805  25.792   4.441  0.00  0.00    +0.210 HD
ENDBRANCH   9  23
BRANCH  15  25
ATOM     25  O   UNL     1     -36.687  19.928   2.624  0.00  0.00    -0.380 OA
ATOM     26  H   UNL     1     -37.246  19.719   3.389  0.00  0.00    +0.211 HD
ENDBRANCH  15  25
BRANCH   6  28
ATOM     27  O   UNL     1     -42.076  25.900  -1.761  0.00  0.00    -0.291 OA
ATOM     28  C   UNL     1     -41.996  25.962  -0.535  0.00  0.00    +0.204 C 
BRANCH  28  29
ATOM     29  C   UNL     1     -42.339  27.218   0.238  0.00  0.00    +0.204 C 
BRANCH  29  30
ATOM     30  O   UNL     1     -43.703  27.222   0.601  0.00  0.00    -0.375 OA
ATOM     31  H   UNL     1     -44.197  27.796  -0.005  0.00  0.00    +0.211 HD
ENDBRANCH  29  30
ENDBRANCH  28  29
ENDBRANCH   6  28
TORSDOF 6
ENDMDL
MODEL 2
REMARK VINA RESULT:      -6.1      4.406      7.463
REMARK  Name = 57502393
REMARK  6 active torsions:
REMARK  status: ('A' for Active; 'I' for Inactive)
REMARK    1  A    between atoms: C_6  and  O_21
REMARK    2  A    between atoms: C_6  and  C_28
REMARK    3  A    between atoms: C_9  and  O_23
REMARK    4  A    between atoms: C_15  and  O_25
REMARK    5  A    between atoms: C_28  and  C_29
REMARK    6  A    between atoms: C_29  and  O_30
REMARK                            x       y       z     vdW  Elec       q    Type
REMARK                         _______ _______ _______ _____ _____    ______ ____
ROOT
ATOM      1  O   UNL     1     -35.441  19.124   1.111  0.00  0.00    -0.291 OA
ATOM      2  C   UNL     1     -33.602  27.021   3.664  0.00  0.00    +0.031 C 
ATOM      3  C   UNL     1     -33.619  25.740   4.525  0.00  0.00    +0.003 C 
ATOM      4  C   UNL     1     -34.676  24.728   4.071  0.00  0.00    +0.005 C 
ATOM      5  C   UNL     1     -34.398  24.296   2.593  0.00  0.00    +0.031 C 
ATOM      6  C   UNL     1     -32.536  27.842   4.436  0.00  0.00    +0.141 C 
ATOM      7  C   UNL     1     -35.456  23.221   2.079  0.00  0.00    +0.020 C 
ATOM      8  C   UNL     1     -33.231  26.596   2.239  0.00  0.00    +0.032 C 
ATOM      9  C   UNL     1     -34.201  25.542   1.666  0.00  0.00    +0.111 C 
ATOM     10  C   UNL     1     -33.687  26.275   5.954  0.00  0.00    +0.003 C 
ATOM     11  C   UNL     1     -32.857  27.573   5.923  0.00  0.00    +0.034 C 
ATOM     12  C   UNL     1     -34.696  23.503   4.987  0.00  0.00    +0.034 C 
ATOM     13  C   UNL     1     -34.958  27.778   3.648  0.00  0.00    +0.003 C 
ATOM     14  C   UNL     1     -35.582  22.077   3.112  0.00  0.00    -0.016 C 
ATOM     15  C   UNL     1     -35.768  22.511   4.558  0.00  0.00    +0.129 C 
ATOM     16  C   UNL     1     -34.984  22.645   0.710  0.00  0.00    +0.012 C 
ATOM     17  C   UNL     1     -36.854  23.852   1.884  0.00  0.00    +0.004 C 
ATOM     18  C   UNL     1     -35.683  21.360   0.299  0.00  0.00    +0.069 C 
ATOM     19  C   UNL     1     -35.563  20.772   2.781  0.00  0.00    +0.031 C 
ATOM     20  C   UNL     1     -35.524  20.323   1.372  0.00  0.00    +0.173 C 
ENDROOT
BRANCH   6  21
ATOM     21  O   UNL     1     -31.221  27.375   4.146  0.00  0.00    -0.380 OA
ATOM     22  H   UNL     1     -30.906  26.822   4.877  0.00  0.00    +0.211 HD
ENDBRANCH   6  21
BRANCH   9  23
ATOM     23  O   UNL     1     -33.656  25.143   0.408  0.00  0.00    -0.384 OA
ATOM     24  H   UNL     1     -33.773  24.187   0.294  0.00  0.00    +0.210 HD
ENDBRANCH   9  23
BRANCH  15  25
ATOM     25  O   UNL     1     -35.740  21.406   5.461  0.00  0.00    -0.380 OA
ATOM     26  H   UNL     1     -35.166  20.710   5.103  0.00  0.00    +0.211 HD
ENDBRANCH  15  25
BRANCH   6  28
ATOM     27  O   UNL     1     -32.938  30.150   4.868  0.00  0.00    -0.291 OA
ATOM     28  C   UNL     1     -32.518  29.299   4.085  0.00  0.00    +0.204 C 
BRANCH  28  29
ATOM     29  C   UNL     1     -31.956  29.654   2.725  0.00  0.00    +0.204 C 
BRANCH  29  30
ATOM     30  O   UNL     1     -30.561  29.857   2.800  0.00  0.00    -0.375 OA
ATOM     31  H   UNL     1     -30.108  29.001   2.767  0.00  0.00    +0.211 HD
ENDBRANCH  29  30
ENDBRANCH  28  29
ENDBRANCH   6  28
TORSDOF 6
ENDMDL
MODEL 3
REMARK VINA RESULT:      -6.0      3.482      6.640
REMARK  Name = 57502393
REMARK  6 active torsions:
REMARK  status: ('A' for Active; 'I' for Inactive)
REMARK    1  A    between atoms: C_6  and  O_21
REMARK    2  A    between atoms: C_6  and  C_28
REMARK    3  A    between atoms: C_9  and  O_23
REMARK    4  A    between atoms: C_15  and  O_25
REMARK    5  A    between atoms: C_28  and  C_29
REMARK    6  A    between atoms: C_29  and  O_30
REMARK                            x       y       z     vdW  Elec       q    Type
REMARK                         _______ _______ _______ _____ _____    ______ ____
ROOT
ATOM      1  O   UNL     1     -37.800  15.232  -1.041  0.00  0.00    -0.291 OA
ATOM      2  C   UNL     1     -36.102  22.781   2.478  0.00  0.00    +0.031 C 
ATOM      3  C   UNL     1     -37.492  22.179   2.182  0.00  0.00    +0.003 C 
ATOM      4  C   UNL     1     -37.507  21.297   0.929  0.00  0.00    +0.005 C 
ATOM      5  C   UNL     1     -36.508  20.106   1.106  0.00  0.00    +0.031 C 
ATOM      6  C   UNL     1     -36.456  23.672   3.697  0.00  0.00    +0.141 C 
ATOM      7  C   UNL     1     -36.505  19.139  -0.161  0.00  0.00    +0.020 C 
ATOM      8  C   UNL     1     -35.154  21.607   2.746  0.00  0.00    +0.032 C 
ATOM      9  C   UNL     1     -35.100  20.610   1.569  0.00  0.00    +0.111 C 
ATOM     10  C   UNL     1     -38.420  23.391   2.232  0.00  0.00    +0.003 C 
ATOM     11  C   UNL     1     -37.819  24.295   3.326  0.00  0.00    +0.034 C 
ATOM     12  C   UNL     1     -38.915  20.771   0.643  0.00  0.00    +0.034 C 
ATOM     13  C   UNL     1     -35.541  23.651   1.319  0.00  0.00    +0.003 C 
ATOM     14  C   UNL     1     -37.958  18.762  -0.534  0.00  0.00    -0.016 C 
ATOM     15  C   UNL     1     -38.939  19.920  -0.621  0.00  0.00    +0.129 C 
ATOM     16  C   UNL     1     -35.695  17.851   0.174  0.00  0.00    +0.012 C 
ATOM     17  C   UNL     1     -35.852  19.818  -1.389  0.00  0.00    +0.004 C 
ATOM     18  C   UNL     1     -35.929  16.699  -0.789  0.00  0.00    +0.069 C 
ATOM     19  C   UNL     1     -38.353  17.503  -0.800  0.00  0.00    +0.031 C 
ATOM     20  C   UNL     1     -37.393  16.378  -0.861  0.00  0.00    +0.173 C 
ENDROOT
BRANCH   6  21
ATOM     21  O   UNL     1     -36.602  22.889   4.878  0.00  0.00    -0.380 OA
ATOM     22  H   UNL     1     -36.062  22.088   4.804  0.00  0.00    +0.211 HD
ENDBRANCH   6  21
BRANCH   9  23
ATOM     23  O   UNL     1     -34.302  19.514   2.014  0.00  0.00    -0.384 OA
ATOM     24  H   UNL     1     -33.809  19.148   1.263  0.00  0.00    +0.210 HD
ENDBRANCH   9  23
BRANCH  15  25
ATOM     25  O   UNL     1     -40.280  19.479  -0.834  0.00  0.00    -0.380 OA
ATOM     26  H   UNL     1     -40.868  20.248  -0.890  0.00  0.00    +0.211 HD
ENDBRANCH  15  25
BRANCH   6  28
ATOM     27  O   UNL     1     -34.274  24.352   4.371  0.00  0.00    -0.291 OA
ATOM     28  C   UNL     1     -35.407  24.690   4.032  0.00  0.00    +0.204 C 
BRANCH  28  29
ATOM     29  C   UNL     1     -35.824  26.141   3.928  0.00  0.00    +0.204 C 
BRANCH  29  30
ATOM     30  O   UNL     1     -36.231  26.635   5.187  0.00  0.00    -0.375 OA
ATOM     31  H   UNL     1     -35.782  26.138   5.889  0.00  0.00    +0.211 HD
ENDBRANCH  29  30
ENDBRANCH  28  29
ENDBRANCH   6  28
TORSDOF 6
ENDMDL
MODEL 4
REMARK VINA RESULT:      -6.0      4.840      7.959
REMARK  Name = 57502393
REMARK  6 active torsions:
REMARK  status: ('A' for Active; 'I' for Inactive)
REMARK    1  A    between atoms: C_6  and  O_21
REMARK    2  A    between atoms: C_6  and  C_28
REMARK    3  A    between atoms: C_9  and  O_23
REMARK    4  A    between atoms: C_15  and  O_25
REMARK    5  A    between atoms: C_28  and  C_29
REMARK    6  A    between atoms: C_29  and  O_30
REMARK                            x       y       z     vdW  Elec       q    Type
REMARK                         _______ _______ _______ _____ _____    ______ ____
ROOT
ATOM      1  O   UNL     1     -33.687  33.791   2.243  0.00  0.00    -0.291 OA
ATOM      2  C   UNL     1     -35.543  25.563   3.299  0.00  0.00    +0.031 C 
ATOM      3  C   UNL     1     -34.640  26.440   4.192  0.00  0.00    +0.003 C 
ATOM      4  C   UNL     1     -33.885  27.517   3.406  0.00  0.00    +0.005 C 
ATOM      5  C   UNL     1     -34.905  28.467   2.694  0.00  0.00    +0.031 C 
ATOM      6  C   UNL     1     -36.050  24.547   4.355  0.00  0.00    +0.141 C 
ATOM      7  C   UNL     1     -34.171  29.625   1.881  0.00  0.00    +0.020 C 
ATOM      8  C   UNL     1     -36.598  26.489   2.684  0.00  0.00    +0.032 C 
ATOM      9  C   UNL     1     -35.971  27.652   1.887  0.00  0.00    +0.111 C 
ATOM     10  C   UNL     1     -33.832  25.419   4.989  0.00  0.00    +0.003 C 
ATOM     11  C   UNL     1     -34.805  24.246   5.218  0.00  0.00    +0.034 C 
ATOM     12  C   UNL     1     -32.961  28.322   4.322  0.00  0.00    +0.034 C 
ATOM     13  C   UNL     1     -34.772  24.826   2.169  0.00  0.00    +0.003 C 
ATOM     14  C   UNL     1     -33.118  30.309   2.784  0.00  0.00    -0.016 C 
ATOM     15  C   UNL     1     -32.186  29.372   3.537  0.00  0.00    +0.129 C 
ATOM     16  C   UNL     1     -35.224  30.674   1.413  0.00  0.00    +0.012 C 
ATOM     17  C   UNL     1     -33.449  29.069   0.632  0.00  0.00    +0.004 C 
ATOM     18  C   UNL     1     -34.629  32.000   0.969  0.00  0.00    +0.069 C 
ATOM     19  C   UNL     1     -32.988  31.644   2.894  0.00  0.00    +0.031 C 
ATOM     20  C   UNL     1     -33.786  32.578   2.068  0.00  0.00    +0.173 C 
ENDROOT
BRANCH   6  21
ATOM     21  O   UNL     1     -37.063  25.125   5.175  0.00  0.00    -0.380 OA
ATOM     22  H   UNL     1     -37.553  24.421   5.627  0.00  0.00    +0.211 HD
ENDBRANCH   6  21
BRANCH   9  23
ATOM     23  O   UNL     1     -37.053  28.497   1.500  0.00  0.00    -0.384 OA
ATOM     24  H   UNL     1     -36.709  29.258   1.007  0.00  0.00    +0.210 HD
ENDBRANCH   9  23
BRANCH  15  25
ATOM     25  O   UNL     1     -31.337  30.071   4.448  0.00  0.00    -0.380 OA
ATOM     26  H   UNL     1     -30.656  30.551   3.951  0.00  0.00    +0.211 HD
ENDBRANCH  15  25
BRANCH   6  28
ATOM     27  O   UNL     1     -37.816  23.347   3.298  0.00  0.00    -0.291 OA
ATOM     28  C   UNL     1     -36.679  23.320   3.767  0.00  0.00    +0.204 C 
BRANCH  28  29
ATOM     29  C   UNL     1     -35.837  22.062   3.784  0.00  0.00    +0.204 C 
BRANCH  29  30
ATOM     30  O   UNL     1     -36.436  21.052   3.000  0.00  0.00    -0.375 OA
ATOM     31  H   UNL     1     -36.978  20.481   3.567  0.00  0.00    +0.211 HD
ENDBRANCH  29  30
ENDBRANCH  28  29
ENDBRANCH   6  28
TORSDOF 6
ENDMDL
MODEL 5
REMARK VINA RESULT:      -5.9      3.688      5.362
REMARK  Name = 57502393
REMARK  6 active torsions:
REMARK  status: ('A' for Active; 'I' for Inactive)
REMARK    1  A    between atoms: C_6  and  O_21
REMARK    2  A    between atoms: C_6  and  C_28
REMARK    3  A    between atoms: C_9  and  O_23
REMARK    4  A    between atoms: C_15  and  O_25
REMARK    5  A    between atoms: C_28  and  C_29
REMARK    6  A    between atoms: C_29  and  O_30
REMARK                            x       y       z     vdW  Elec       q    Type
REMARK                         _______ _______ _______ _____ _____    ______ ____
ROOT
ATOM      1  O   UNL     1     -31.996  15.855   0.359  0.00  0.00    -0.291 OA
ATOM      2  C   UNL     1     -38.049  21.785   1.037  0.00  0.00    +0.031 C 
ATOM      3  C   UNL     1     -38.048  20.550   0.111  0.00  0.00    +0.003 C 
ATOM      4  C   UNL     1     -36.647  20.167  -0.374  0.00  0.00    +0.005 C 
ATOM      5  C   UNL     1     -35.734  19.832   0.853  0.00  0.00    +0.031 C 
ATOM      6  C   UNL     1     -39.576  21.959   1.243  0.00  0.00    +0.141 C 
ATOM      7  C   UNL     1     -34.268  19.398   0.402  0.00  0.00    +0.020 C 
ATOM      8  C   UNL     1     -37.233  21.411   2.279  0.00  0.00    +0.032 C 
ATOM      9  C   UNL     1     -35.798  20.965   1.932  0.00  0.00    +0.111 C 
ATOM     10  C   UNL     1     -39.112  20.890  -0.931  0.00  0.00    +0.003 C 
ATOM     11  C   UNL     1     -40.178  21.686  -0.152  0.00  0.00    +0.034 C 
ATOM     12  C   UNL     1     -36.702  18.976  -1.334  0.00  0.00    +0.034 C 
ATOM     13  C   UNL     1     -37.445  23.056   0.379  0.00  0.00    +0.003 C 
ATOM     14  C   UNL     1     -34.359  18.314  -0.697  0.00  0.00    -0.016 C 
ATOM     15  C   UNL     1     -35.313  18.613  -1.842  0.00  0.00    +0.129 C 
ATOM     16  C   UNL     1     -33.494  18.839   1.633  0.00  0.00    +0.012 C 
ATOM     17  C   UNL     1     -33.473  20.597  -0.167  0.00  0.00    +0.004 C 
ATOM     18  C   UNL     1     -32.245  18.049   1.278  0.00  0.00    +0.069 C 
ATOM     19  C   UNL     1     -33.631  17.182  -0.684  0.00  0.00    +0.031 C 
ATOM     20  C   UNL     1     -32.594  16.929   0.341  0.00  0.00    +0.173 C 
ENDROOT
BRANCH   6  21
ATOM     21  O   UNL     1     -40.080  21.000   2.169  0.00  0.00    -0.380 OA
ATOM     22  H   UNL     1     -39.508  20.976   2.952  0.00  0.00    +0.211 HD
ENDBRANCH   6  21
BRANCH   9  23
ATOM     23  O   UNL     1     -35.214  20.517   3.155  0.00  0.00    -0.384 OA
ATOM     24  H   UNL     1     -35.651  19.701   3.442  0.00  0.00    +0.210 HD
ENDBRANCH   9  23
BRANCH  15  25
ATOM     25  O   UNL     1     -35.443  17.510  -2.740  0.00  0.00    -0.380 OA
ATOM     26  H   UNL     1     -34.578  17.306  -3.128  0.00  0.00    +0.211 HD
ENDBRANCH  15  25
BRANCH   6  28
ATOM     27  O   UNL     1     -39.688  23.598   2.968  0.00  0.00    -0.291 OA
ATOM     28  C   UNL     1     -39.966  23.291   1.810  0.00  0.00    +0.204 C 
BRANCH  28  29
ATOM     29  C   UNL     1     -40.714  24.222   0.880  0.00  0.00    +0.204 C 
BRANCH  29  30
ATOM     30  O   UNL     1     -42.091  24.235   1.190  0.00  0.00    -0.375 OA
ATOM     31  H   UNL     1     -42.313  23.448   1.712  0.00  0.00    +0.211 HD
ENDBRANCH  29  30
ENDBRANCH  28  29
ENDBRANCH   6  28
TORSDOF 6
ENDMDL
MODEL 6
REMARK VINA RESULT:      -5.9      5.474      8.172
REMARK  Name = 57502393
REMARK  6 active torsions:
REMARK  status: ('A' for Active; 'I' for Inactive)
REMARK    1  A    between atoms: C_6  and  O_21
REMARK    2  A    between atoms: C_6  and  C_28
REMARK    3  A    between atoms: C_9  and  O_23
REMARK    4  A    between atoms: C_15  and  O_25
REMARK    5  A    between atoms: C_28  and  C_29
REMARK    6  A    between atoms: C_29  and  O_30
REMARK                            x       y       z     vdW  Elec       q    Type
REMARK                         _______ _______ _______ _____ _____    ______ ____
ROOT
ATOM      1  O   UNL     1     -30.691  33.478   3.552  0.00  0.00    -0.291 OA
ATOM      2  C   UNL     1     -34.972  26.135   3.674  0.00  0.00    +0.031 C 
ATOM      3  C   UNL     1     -34.180  26.775   4.834  0.00  0.00    +0.003 C 
ATOM      4  C   UNL     1     -32.955  27.564   4.358  0.00  0.00    +0.005 C 
ATOM      5  C   UNL     1     -33.406  28.720   3.404  0.00  0.00    +0.031 C 
ATOM      6  C   UNL     1     -36.037  25.351   4.484  0.00  0.00    +0.141 C 
ATOM      7  C   UNL     1     -32.170  29.591   2.901  0.00  0.00    +0.020 C 
ATOM      8  C   UNL     1     -35.491  27.283   2.801  0.00  0.00    +0.032 C 
ATOM      9  C   UNL     1     -34.356  28.188   2.279  0.00  0.00    +0.111 C 
ATOM     10  C   UNL     1     -33.967  25.612   5.800  0.00  0.00    +0.003 C 
ATOM     11  C   UNL     1     -35.248  24.764   5.675  0.00  0.00    +0.034 C 
ATOM     12  C   UNL     1     -32.170  28.130   5.543  0.00  0.00    +0.034 C 
ATOM     13  C   UNL     1     -34.128  25.160   2.807  0.00  0.00    +0.003 C 
ATOM     14  C   UNL     1     -31.296  30.004   4.109  0.00  0.00    -0.016 C 
ATOM     15  C   UNL     1     -30.934  28.887   5.074  0.00  0.00    +0.129 C 
ATOM     16  C   UNL     1     -32.698  30.863   2.172  0.00  0.00    +0.012 C 
ATOM     17  C   UNL     1     -31.284  28.797   1.912  0.00  0.00    +0.004 C 
ATOM     18  C   UNL     1     -31.655  31.952   1.984  0.00  0.00    +0.069 C 
ATOM     19  C   UNL     1     -30.843  31.256   4.303  0.00  0.00    +0.031 C 
ATOM     20  C   UNL     1     -31.061  32.331   3.309  0.00  0.00    +0.173 C 
ENDROOT
BRANCH   6  21
ATOM     21  O   UNL     1     -37.050  26.223   4.976  0.00  0.00    -0.380 OA
ATOM     22  H   UNL     1     -37.135  26.987   4.385  0.00  0.00    +0.211 HD
ENDBRANCH   6  21
BRANCH   9  23
ATOM     23  O   UNL     1     -34.992  29.278   1.612  0.00  0.00    -0.384 OA
ATOM     24  H   UNL     1     -34.612  29.380   0.726  0.00  0.00    +0.210 HD
ENDBRANCH   9  23
BRANCH  15  25
ATOM     25  O   UNL     1     -30.245  29.371   6.227  0.00  0.00    -0.380 OA
ATOM     26  H   UNL     1     -29.824  30.219   6.019  0.00  0.00    +0.211 HD
ENDBRANCH  15  25
BRANCH   6  28
ATOM     27  O   UNL     1     -36.371  23.153   3.630  0.00  0.00    -0.291 OA
ATOM     28  C   UNL     1     -36.769  24.315   3.685  0.00  0.00    +0.204 C 
BRANCH  28  29
ATOM     29  C   UNL     1     -38.014  24.782   2.962  0.00  0.00    +0.204 C 
BRANCH  29  30
ATOM     30  O   UNL     1     -39.135  24.733   3.818  0.00  0.00    -0.375 OA
ATOM     31  H   UNL     1     -39.044  23.986   4.429  0.00  0.00    +0.211 HD
ENDBRANCH  29  30
ENDBRANCH  28  29
ENDBRANCH   6  28
TORSDOF 6
ENDMDL
MODEL 7
REMARK VINA RESULT:      -5.9      2.538      7.024
REMARK  Name = 57502393
REMARK  6 active torsions:
REMARK  status: ('A' for Active; 'I' for Inactive)
REMARK    1  A    between atoms: C_6  and  O_21
REMARK    2  A    between atoms: C_6  and  C_28
REMARK    3  A    between atoms: C_9  and  O_23
REMARK    4  A    between atoms: C_15  and  O_25
REMARK    5  A    between atoms: C_28  and  C_29
REMARK    6  A    between atoms: C_29  and  O_30
REMARK                            x       y       z     vdW  Elec       q    Type
REMARK                         _______ _______ _______ _____ _____    ______ ____
ROOT
ATOM      1  O   UNL     1     -41.663  23.469  -1.694  0.00  0.00    -0.291 OA
ATOM      2  C   UNL     1     -35.682  25.611   3.954  0.00  0.00    +0.031 C 
ATOM      3  C   UNL     1     -35.996  24.199   3.413  0.00  0.00    +0.003 C 
ATOM      4  C   UNL     1     -37.482  23.995   3.101  0.00  0.00    +0.005 C 
ATOM      5  C   UNL     1     -37.942  25.025   2.017  0.00  0.00    +0.031 C 
ATOM      6  C   UNL     1     -34.170  25.445   4.260  0.00  0.00    +0.141 C 
ATOM      7  C   UNL     1     -39.478  24.838   1.633  0.00  0.00    +0.020 C 
ATOM      8  C   UNL     1     -36.045  26.604   2.845  0.00  0.00    +0.032 C 
ATOM      9  C   UNL     1     -37.519  26.482   2.402  0.00  0.00    +0.111 C 
ATOM     10  C   UNL     1     -35.331  23.275   4.432  0.00  0.00    +0.003 C 
ATOM     11  C   UNL     1     -34.063  24.031   4.873  0.00  0.00    +0.034 C 
ATOM     12  C   UNL     1     -37.753  22.566   2.625  0.00  0.00    +0.034 C 
ATOM     13  C   UNL     1     -36.459  25.968   5.250  0.00  0.00    +0.003 C 
ATOM     14  C   UNL     1     -39.761  23.349   1.325  0.00  0.00    -0.016 C 
ATOM     15  C   UNL     1     -39.235  22.352   2.345  0.00  0.00    +0.129 C 
ATOM     16  C   UNL     1     -39.808  25.707   0.383  0.00  0.00    +0.012 C 
ATOM     17  C   UNL     1     -40.407  25.277   2.790  0.00  0.00    +0.004 C 
ATOM     18  C   UNL     1     -41.109  25.337  -0.308  0.00  0.00    +0.069 C 
ATOM     19  C   UNL     1     -40.453  22.933   0.248  0.00  0.00    +0.031 C 
ATOM     20  C   UNL     1     -41.097  23.885  -0.685  0.00  0.00    +0.173 C 
ENDROOT
BRANCH   6  21
ATOM     21  O   UNL     1     -33.397  25.499   3.064  0.00  0.00    -0.380 OA
ATOM     22  H   UNL     1     -32.873  26.315   3.055  0.00  0.00    +0.211 HD
ENDBRANCH   6  21
BRANCH   9  23
ATOM     23  O   UNL     1     -37.671  27.355   1.283  0.00  0.00    -0.384 OA
ATOM     24  H   UNL     1     -37.071  28.111   1.380  0.00  0.00    +0.210 HD
ENDBRANCH   9  23
BRANCH  15  25
ATOM     25  O   UNL     1     -39.416  21.000   1.923  0.00  0.00    -0.380 OA
ATOM     26  H   UNL     1     -38.944  20.406   2.528  0.00  0.00    +0.211 HD
ENDBRANCH  15  25
BRANCH   6  28
ATOM     27  O   UNL     1     -33.685  26.451   6.364  0.00  0.00    -0.291 OA
ATOM     28  C   UNL     1     -33.605  26.520   5.138  0.00  0.00    +0.204 C 
BRANCH  28  29
ATOM     29  C   UNL     1     -32.938  27.681   4.432  0.00  0.00    +0.204 C 
BRANCH  29  30
ATOM     30  O   UNL     1     -31.590  27.378   4.141  0.00  0.00    -0.375 OA
ATOM     31  H   UNL     1     -31.268  27.971   3.445  0.00  0.00    +0.211 HD
ENDBRANCH  29  30
ENDBRANCH  28  29
ENDBRANCH   6  28
TORSDOF 6
ENDMDL
MODEL 8
REMARK VINA RESULT:      -5.9      4.246      7.346
REMARK  Name = 57502393
REMARK  6 active torsions:
REMARK  status: ('A' for Active; 'I' for Inactive)
REMARK    1  A    between atoms: C_6  and  O_21
REMARK    2  A    between atoms: C_6  and  C_28
REMARK    3  A    between atoms: C_9  and  O_23
REMARK    4  A    between atoms: C_15  and  O_25
REMARK    5  A    between atoms: C_28  and  C_29
REMARK    6  A    between atoms: C_29  and  O_30
REMARK                            x       y       z     vdW  Elec       q    Type
REMARK                         _______ _______ _______ _____ _____    ______ ____
ROOT
ATOM      1  O   UNL     1     -33.326  32.700   2.983  0.00  0.00    -0.291 OA
ATOM      2  C   UNL     1     -35.546  24.495   2.838  0.00  0.00    +0.031 C 
ATOM      3  C   UNL     1     -34.927  25.277   4.017  0.00  0.00    +0.003 C 
ATOM      4  C   UNL     1     -33.959  26.374   3.565  0.00  0.00    +0.005 C 
ATOM      5  C   UNL     1     -34.712  27.407   2.662  0.00  0.00    +0.031 C 
ATOM      6  C   UNL     1     -36.356  23.432   3.624  0.00  0.00    +0.141 C 
ATOM      7  C   UNL     1     -33.754  28.589   2.185  0.00  0.00    +0.020 C 
ATOM      8  C   UNL     1     -36.362  25.500   2.016  0.00  0.00    +0.032 C 
ATOM      9  C   UNL     1     -35.511  26.689   1.523  0.00  0.00    +0.111 C 
ATOM     10  C   UNL     1     -34.403  24.174   4.934  0.00  0.00    +0.003 C 
ATOM     11  C   UNL     1     -35.420  23.026   4.784  0.00  0.00    +0.034 C 
ATOM     12  C   UNL     1     -33.327  27.081   4.766  0.00  0.00    +0.034 C 
ATOM     13  C   UNL     1     -34.493  23.807   1.927  0.00  0.00    +0.003 C 
ATOM     14  C   UNL     1     -32.997  29.170   3.402  0.00  0.00    -0.016 C 
ATOM     15  C   UNL     1     -32.339  28.151   4.319  0.00  0.00    +0.129 C 
ATOM     16  C   UNL     1     -34.607  29.706   1.513  0.00  0.00    +0.012 C 
ATOM     17  C   UNL     1     -32.710  28.091   1.159  0.00  0.00    +0.004 C 
ATOM     18  C   UNL     1     -33.887  31.035   1.361  0.00  0.00    +0.069 C 
ATOM     19  C   UNL     1     -32.882  30.489   3.644  0.00  0.00    +0.031 C 
ATOM     20  C   UNL     1     -33.390  31.506   2.696  0.00  0.00    +0.173 C 
ENDROOT
BRANCH   6  21
ATOM     21  O   UNL     1     -37.553  23.990   4.158  0.00  0.00    -0.380 OA
ATOM     22  H   UNL     1     -37.927  23.384   4.815  0.00  0.00    +0.211 HD
ENDBRANCH   6  21
BRANCH   9  23
ATOM     23  O   UNL     1     -36.420  27.599   0.906  0.00  0.00    -0.384 OA
ATOM     24  H   UNL     1     -36.401  28.445   1.378  0.00  0.00    +0.210 HD
ENDBRANCH   9  23
BRANCH  15  25
ATOM     25  O   UNL     1     -31.780  28.754   5.486  0.00  0.00    -0.380 OA
ATOM     26  H   UNL     1     -30.838  28.933   5.337  0.00  0.00    +0.211 HD
ENDBRANCH  15  25
BRANCH   6  28
ATOM     27  O   UNL     1     -37.844  22.324   2.129  0.00  0.00    -0.291 OA
ATOM     28  C   UNL     1     -36.807  22.271   2.789  0.00  0.00    +0.204 C 
BRANCH  28  29
ATOM     29  C   UNL     1     -35.919  21.046   2.808  0.00  0.00    +0.204 C 
BRANCH  29  30
ATOM     30  O   UNL     1     -36.689  19.870   2.676  0.00  0.00    -0.375 OA
ATOM     31  H   UNL     1     -36.158  19.182   2.244  0.00  0.00    +0.211 HD
ENDBRANCH  29  30
ENDBRANCH  28  29
ENDBRANCH   6  28
TORSDOF 6
ENDMDL
MODEL 9
REMARK VINA RESULT:      -5.9      4.412      7.196
REMARK  Name = 57502393
REMARK  6 active torsions:
REMARK  status: ('A' for Active; 'I' for Inactive)
REMARK    1  A    between atoms: C_6  and  O_21
REMARK    2  A    between atoms: C_6  and  C_28
REMARK    3  A    between atoms: C_9  and  O_23
REMARK    4  A    between atoms: C_15  and  O_25
REMARK    5  A    between atoms: C_28  and  C_29
REMARK    6  A    between atoms: C_29  and  O_30
REMARK                            x       y       z     vdW  Elec       q    Type
REMARK                         _______ _______ _______ _____ _____    ______ ____
ROOT
ATOM      1  O   UNL     1     -34.479  26.542   5.908  0.00  0.00    -0.291 OA
ATOM      2  C   UNL     1     -34.790  20.124   0.343  0.00  0.00    +0.031 C 
ATOM      3  C   UNL     1     -34.010  21.449   0.200  0.00  0.00    +0.003 C 
ATOM      4  C   UNL     1     -34.718  22.634   0.866  0.00  0.00    +0.005 C 
ATOM      5  C   UNL     1     -34.893  22.355   2.396  0.00  0.00    +0.031 C 
ATOM      6  C   UNL     1     -33.885  19.194  -0.506  0.00  0.00    +0.141 C 
ATOM      7  C   UNL     1     -35.600  23.572   3.145  0.00  0.00    +0.020 C 
ATOM      8  C   UNL     1     -34.870  19.812   1.841  0.00  0.00    +0.032 C 
ATOM      9  C   UNL     1     -35.533  20.949   2.647  0.00  0.00    +0.111 C 
ATOM     10  C   UNL     1     -33.713  21.525  -1.296  0.00  0.00    +0.003 C 
ATOM     11  C   UNL     1     -33.488  20.061  -1.722  0.00  0.00    +0.034 C 
ATOM     12  C   UNL     1     -33.938  23.933   0.649  0.00  0.00    +0.034 C 
ATOM     13  C   UNL     1     -36.222  20.178  -0.257  0.00  0.00    +0.003 C 
ATOM     14  C   UNL     1     -34.897  24.897   2.768  0.00  0.00    -0.016 C 
ATOM     15  C   UNL     1     -34.656  25.118   1.283  0.00  0.00    +0.129 C 
ATOM     16  C   UNL     1     -35.517  23.350   4.684  0.00  0.00    +0.012 C 
ATOM     17  C   UNL     1     -37.092  23.688   2.750  0.00  0.00    +0.004 C 
ATOM     18  C   UNL     1     -35.805  24.592   5.510  0.00  0.00    +0.069 C 
ATOM     19  C   UNL     1     -34.536  25.828   3.670  0.00  0.00    +0.031 C 
ATOM     20  C   UNL     1     -34.883  25.704   5.104  0.00  0.00    +0.173 C 
ENDROOT
BRANCH   6  21
ATOM     21  O   UNL     1     -32.711  18.827   0.212  0.00  0.00    -0.380 OA
ATOM     22  H   UNL     1     -32.122  18.321  -0.368  0.00  0.00    +0.211 HD
ENDBRANCH   6  21
BRANCH   9  23
ATOM     23  O   UNL     1     -35.409  20.585   4.022  0.00  0.00    -0.384 OA
ATOM     24  H   UNL     1     -34.673  21.075   4.420  0.00  0.00    +0.210 HD
ENDBRANCH   9  23
BRANCH  15  25
ATOM     25  O   UNL     1     -33.885  26.292   1.029  0.00  0.00    -0.380 OA
ATOM     26  H   UNL     1     -34.394  27.075   1.289  0.00  0.00    +0.211 HD
ENDBRANCH  15  25
BRANCH   6  28
ATOM     27  O   UNL     1     -35.259  17.810  -1.874  0.00  0.00    -0.291 OA
ATOM     28  C   UNL     1     -34.531  17.896  -0.886  0.00  0.00    +0.204 C 
BRANCH  28  29
ATOM     29  C   UNL     1     -34.235  16.712   0.010  0.00  0.00    +0.204 C 
BRANCH  29  30
ATOM     30  O   UNL     1     -35.420  16.004   0.306  0.00  0.00    -0.375 OA
ATOM     31  H   UNL     1     -36.171  16.618   0.314  0.00  0.00    +0.211 HD
ENDBRANCH  29  30
ENDBRANCH  28  29
ENDBRANCH   6  28
TORSDOF 6
ENDMDL
