MODEL 1
REMARK VINA RESULT:      -6.7      0.000      0.000
REMARK  Name = 5462501
REMARK  10 active torsions:
REMARK  status: ('A' for Active; 'I' for Inactive)
REMARK    1  A    between atoms: N_1  and  CA_4
REMARK    2  A    between atoms: N_1  and  CA_17
REMARK    3  A    between atoms: CA_4  and  C_12
REMARK    4  A    between atoms: CA_8  and  C_14
REMARK    5  A    between atoms: C_14  and  O_15
REMARK    6  A    between atoms: CA_17  and  C_19
REMARK    7  A    between atoms: CA_17  and  C_22
REMARK    8  A    between atoms: C_19  and  O_20
REMARK    9  A    between atoms: C_22  and  C_23
REMARK   10  A    between atoms: C_23  and  C_24
REMARK                            x       y       z     vdW  Elec       q    Type
REMARK                         _______ _______ _______ _____ _____    ______ ____
ROOT
ATOM      1  N   UNL     1     -35.265  21.464   3.489  0.00  0.00    +0.399 N 
ATOM      2  H1  UNL     1     -35.546  20.536   3.806  0.00  0.00    -0.083 HD
ATOM      3  H2  UNL     1     -34.250  21.566   3.533  0.00  0.00    -0.083 HD
ENDROOT
BRANCH   1   4
ATOM      4  CA  UNL     1     -35.867  22.464   4.355  0.00  0.00    +0.018 C 
ATOM      5  CB  UNL     1     -35.520  22.205   5.808  0.00  0.00    -0.014 C 
BRANCH   4  12
ATOM      6  O   UNL     1     -34.110  24.027   3.981  0.00  0.00    -0.277 OA
ATOM      7  N   UNL     1     -36.264  24.720   3.490  0.00  0.00    -0.273 N 
ATOM      8  CA  UNL     1     -35.895  25.995   2.890  0.00  0.00    +0.174 C 
ATOM      9  CB  UNL     1     -37.152  26.457   2.160  0.00  0.00    +0.033 C 
ATOM     10  CG  UNL     1     -38.283  25.833   2.973  0.00  0.00    +0.024 C 
ATOM     11  CD  UNL     1     -37.704  24.496   3.409  0.00  0.00    +0.094 C 
ATOM     12  C   UNL     1     -35.321  23.801   3.925  0.00  0.00    +0.206 C 
BRANCH   8  14
ATOM     13  OXT UNL     1     -35.564  26.635   5.198  0.00  0.00    -0.248 OA
ATOM     14  C   UNL     1     -35.532  26.922   4.011  0.00  0.00    +0.332 C 
BRANCH  14  15
ATOM     15  O   UNL     1     -35.161  28.133   3.529  0.00  0.00    -0.479 OA
ATOM     16  H   UNL     1     -34.486  28.622   3.956  0.00  0.00    +0.295 HD
ENDBRANCH  14  15
ENDBRANCH   8  14
ENDBRANCH   4  12
ENDBRANCH   1   4
BRANCH   1  17
ATOM     17  CA  UNL     1     -35.689  21.644   2.107  0.00  0.00    +0.041 C 
BRANCH  17  19
ATOM     18  OXT UNL     1     -37.853  21.093   1.135  0.00  0.00    -0.253 OA
ATOM     19  C   UNL     1     -36.952  20.821   1.920  0.00  0.00    +0.293 C 
BRANCH  19  20
ATOM     20  O   UNL     1     -36.974  19.716   2.707  0.00  0.00    -0.482 OA
ATOM     21  H   UNL     1     -36.627  18.906   2.388  0.00  0.00    +0.295 HD
ENDBRANCH  19  20
ENDBRANCH  17  19
BRANCH  17  22
ATOM     22  C   UNL     1     -34.573  21.163   1.169  0.00  0.00    -0.006 C 
BRANCH  22  23
ATOM     23  C   UNL     1     -34.165  19.694   1.365  0.00  0.00    +0.025 C 
BRANCH  23  24
ATOM     24  C   UNL     1     -32.762  19.368   0.913  0.00  0.00    -0.022 C 
ATOM     25  C   UNL     1     -32.063  20.268   0.108  0.00  0.00    -0.004 C 
ATOM     26  C   UNL     1     -32.165  18.169   1.301  0.00  0.00    -0.004 C 
ATOM     27  C   UNL     1     -30.767  19.968  -0.310  0.00  0.00    -0.000 C 
ATOM     28  C   UNL     1     -30.868  17.870   0.883  0.00  0.00    -0.000 C 
ATOM     29  C   UNL     1     -30.169  18.769   0.078  0.00  0.00    -0.000 C 
ENDBRANCH  23  24
ENDBRANCH  22  23
ENDBRANCH  17  22
ENDBRANCH   1  17
TORSDOF 10
ENDMDL
MODEL 2
REMARK VINA RESULT:      -6.6      1.777      2.812
REMARK  Name = 5462501
REMARK  10 active torsions:
REMARK  status: ('A' for Active; 'I' for Inactive)
REMARK    1  A    between atoms: N_1  and  CA_4
REMARK    2  A    between atoms: N_1  and  CA_17
REMARK    3  A    between atoms: CA_4  and  C_12
REMARK    4  A    between atoms: CA_8  and  C_14
REMARK    5  A    between atoms: C_14  and  O_15
REMARK    6  A    between atoms: CA_17  and  C_19
REMARK    7  A    between atoms: CA_17  and  C_22
REMARK    8  A    between atoms: C_19  and  O_20
REMARK    9  A    between atoms: C_22  and  C_23
REMARK   10  A    between atoms: C_23  and  C_24
REMARK                            x       y       z     vdW  Elec       q    Type
REMARK                         _______ _______ _______ _____ _____    ______ ____
ROOT
ATOM      1  N   UNL     1     -37.842  22.234   2.793  0.00  0.00    +0.399 N 
ATOM      2  H1  UNL     1     -38.724  22.040   3.267  0.00  0.00    -0.083 HD
ATOM      3  H2  UNL     1     -37.064  21.804   3.294  0.00  0.00    -0.083 HD
ENDROOT
BRANCH   1   4
ATOM      4  CA  UNL     1     -37.628  23.672   2.757  0.00  0.00    +0.018 C 
ATOM      5  CB  UNL     1     -38.902  24.420   3.097  0.00  0.00    -0.014 C 
BRANCH   4  12
ATOM      6  O   UNL     1     -36.624  23.501   4.909  0.00  0.00    -0.277 OA
ATOM      7  N   UNL     1     -35.552  24.828   3.345  0.00  0.00    -0.273 N 
ATOM      8  CA  UNL     1     -34.364  25.101   4.144  0.00  0.00    +0.174 C 
ATOM      9  CB  UNL     1     -33.352  25.664   3.152  0.00  0.00    +0.033 C 
ATOM     10  CG  UNL     1     -34.226  26.334   2.095  0.00  0.00    +0.024 C 
ATOM     11  CD  UNL     1     -35.439  25.420   2.015  0.00  0.00    +0.094 C 
ATOM     12  C   UNL     1     -36.561  23.981   3.776  0.00  0.00    +0.206 C 
BRANCH   8  14
ATOM     13  OXT UNL     1     -34.031  26.496   6.090  0.00  0.00    -0.248 OA
ATOM     14  C   UNL     1     -34.751  26.113   5.179  0.00  0.00    +0.332 C 
BRANCH  14  15
ATOM     15  O   UNL     1     -36.016  26.552   4.970  0.00  0.00    -0.479 OA
ATOM     16  H   UNL     1     -36.173  27.453   4.766  0.00  0.00    +0.295 HD
ENDBRANCH  14  15
ENDBRANCH   8  14
ENDBRANCH   4  12
ENDBRANCH   1   4
BRANCH   1  17
ATOM     17  CA  UNL     1     -37.891  21.678   1.447  0.00  0.00    +0.041 C 
BRANCH  17  19
ATOM     18  OXT UNL     1     -39.858  21.476   0.026  0.00  0.00    -0.253 OA
ATOM     19  C   UNL     1     -39.351  21.395   1.138  0.00  0.00    +0.293 C 
BRANCH  19  20
ATOM     20  O   UNL     1     -40.049  21.007   2.236  0.00  0.00    -0.482 OA
ATOM     21  H   UNL     1     -40.931  21.297   2.358  0.00  0.00    +0.295 HD
ENDBRANCH  19  20
ENDBRANCH  17  19
BRANCH  17  22
ATOM     22  C   UNL     1     -37.056  20.391   1.401  0.00  0.00    -0.006 C 
BRANCH  22  23
ATOM     23  C   UNL     1     -35.788  20.423   2.270  0.00  0.00    +0.025 C 
BRANCH  23  24
ATOM     24  C   UNL     1     -34.496  20.342   1.493  0.00  0.00    -0.022 C 
ATOM     25  C   UNL     1     -33.701  19.199   1.581  0.00  0.00    -0.004 C 
ATOM     26  C   UNL     1     -34.098  21.409   0.688  0.00  0.00    -0.004 C 
ATOM     27  C   UNL     1     -32.507  19.124   0.864  0.00  0.00    -0.000 C 
ATOM     28  C   UNL     1     -32.904  21.333  -0.030  0.00  0.00    -0.000 C 
ATOM     29  C   UNL     1     -32.108  20.191   0.059  0.00  0.00    -0.000 C 
ENDBRANCH  23  24
ENDBRANCH  22  23
ENDBRANCH  17  22
ENDBRANCH   1  17
TORSDOF 10
ENDMDL
MODEL 3
REMARK VINA RESULT:      -6.6      1.712      2.639
REMARK  Name = 5462501
REMARK  10 active torsions:
REMARK  status: ('A' for Active; 'I' for Inactive)
REMARK    1  A    between atoms: N_1  and  CA_4
REMARK    2  A    between atoms: N_1  and  CA_17
REMARK    3  A    between atoms: CA_4  and  C_12
REMARK    4  A    between atoms: CA_8  and  C_14
REMARK    5  A    between atoms: C_14  and  O_15
REMARK    6  A    between atoms: CA_17  and  C_19
REMARK    7  A    between atoms: CA_17  and  C_22
REMARK    8  A    between atoms: C_19  and  O_20
REMARK    9  A    between atoms: C_22  and  C_23
REMARK   10  A    between atoms: C_23  and  C_24
REMARK                            x       y       z     vdW  Elec       q    Type
REMARK                         _______ _______ _______ _____ _____    ______ ____
ROOT
ATOM      1  N   UNL     1     -36.272  23.232   0.781  0.00  0.00    +0.399 N 
ATOM      2  H1  UNL     1     -36.203  23.215  -0.236  0.00  0.00    -0.083 HD
ATOM      3  H2  UNL     1     -37.059  23.811   1.077  0.00  0.00    -0.083 HD
ENDROOT
BRANCH   1   4
ATOM      4  CA  UNL     1     -35.051  23.797   1.332  0.00  0.00    +0.018 C 
ATOM      5  CB  UNL     1     -34.029  24.049   0.241  0.00  0.00    -0.014 C 
BRANCH   4  12
ATOM      6  O   UNL     1     -35.815  26.052   1.316  0.00  0.00    -0.277 OA
ATOM      7  N   UNL     1     -35.302  25.124   3.374  0.00  0.00    -0.273 N 
ATOM      8  CA  UNL     1     -35.775  26.240   4.182  0.00  0.00    +0.174 C 
ATOM      9  CB  UNL     1     -35.868  25.680   5.597  0.00  0.00    +0.033 C 
ATOM     10  CG  UNL     1     -34.795  24.595   5.621  0.00  0.00    +0.024 C 
ATOM     11  CD  UNL     1     -34.850  24.019   4.214  0.00  0.00    +0.094 C 
ATOM     12  C   UNL     1     -35.430  25.097   1.993  0.00  0.00    +0.206 C 
BRANCH   8  14
ATOM     13  OXT UNL     1     -33.641  27.298   4.600  0.00  0.00    -0.248 OA
ATOM     14  C   UNL     1     -34.747  27.327   4.080  0.00  0.00    +0.332 C 
BRANCH  14  15
ATOM     15  O   UNL     1     -35.211  28.356   3.330  0.00  0.00    -0.479 OA
ATOM     16  H   UNL     1     -34.611  28.950   2.926  0.00  0.00    +0.295 HD
ENDBRANCH  14  15
ENDBRANCH   8  14
ENDBRANCH   4  12
ENDBRANCH   1   4
BRANCH   1  17
ATOM     17  CA  UNL     1     -36.488  21.875   1.268  0.00  0.00    +0.041 C 
BRANCH  17  19
ATOM     18  OXT UNL     1     -37.869  22.883   3.001  0.00  0.00    -0.253 OA
ATOM     19  C   UNL     1     -37.637  21.937   2.259  0.00  0.00    +0.293 C 
BRANCH  19  20
ATOM     20  O   UNL     1     -38.416  20.827   2.221  0.00  0.00    -0.482 OA
ATOM     21  H   UNL     1     -39.227  20.806   2.689  0.00  0.00    +0.295 HD
ENDBRANCH  19  20
ENDBRANCH  17  19
BRANCH  17  22
ATOM     22  C   UNL     1     -35.204  21.370   1.941  0.00  0.00    -0.006 C 
BRANCH  22  23
ATOM     23  C   UNL     1     -34.912  19.877   1.715  0.00  0.00    +0.025 C 
BRANCH  23  24
ATOM     24  C   UNL     1     -33.533  19.585   1.175  0.00  0.00    -0.022 C 
ATOM     25  C   UNL     1     -32.921  18.363   1.453  0.00  0.00    -0.004 C 
ATOM     26  C   UNL     1     -32.873  20.535   0.397  0.00  0.00    -0.004 C 
ATOM     27  C   UNL     1     -31.647  18.091   0.954  0.00  0.00    -0.000 C 
ATOM     28  C   UNL     1     -31.599  20.263  -0.103  0.00  0.00    -0.000 C 
ATOM     29  C   UNL     1     -30.985  19.042   0.176  0.00  0.00    -0.000 C 
ENDBRANCH  23  24
ENDBRANCH  22  23
ENDBRANCH  17  22
ENDBRANCH   1  17
TORSDOF 10
ENDMDL
MODEL 4
REMARK VINA RESULT:      -6.4      1.851      2.881
REMARK  Name = 5462501
REMARK  10 active torsions:
REMARK  status: ('A' for Active; 'I' for Inactive)
REMARK    1  A    between atoms: N_1  and  CA_4
REMARK    2  A    between atoms: N_1  and  CA_17
REMARK    3  A    between atoms: CA_4  and  C_12
REMARK    4  A    between atoms: CA_8  and  C_14
REMARK    5  A    between atoms: C_14  and  O_15
REMARK    6  A    between atoms: CA_17  and  C_19
REMARK    7  A    between atoms: CA_17  and  C_22
REMARK    8  A    between atoms: C_19  and  O_20
REMARK    9  A    between atoms: C_22  and  C_23
REMARK   10  A    between atoms: C_23  and  C_24
REMARK                            x       y       z     vdW  Elec       q    Type
REMARK                         _______ _______ _______ _____ _____    ______ ____
ROOT
ATOM      1  N   UNL     1     -37.055  22.770   3.549  0.00  0.00    +0.399 N 
ATOM      2  H1  UNL     1     -37.996  22.415   3.376  0.00  0.00    -0.083 HD
ATOM      3  H2  UNL     1     -37.028  23.302   4.420  0.00  0.00    -0.083 HD
ENDROOT
BRANCH   1   4
ATOM      4  CA  UNL     1     -36.669  23.649   2.458  0.00  0.00    +0.018 C 
ATOM      5  CB  UNL     1     -37.733  23.675   1.378  0.00  0.00    -0.014 C 
BRANCH   4  12
ATOM      6  O   UNL     1     -37.458  25.614   3.547  0.00  0.00    -0.277 OA
ATOM      7  N   UNL     1     -35.218  25.554   2.965  0.00  0.00    -0.273 N 
ATOM      8  CA  UNL     1     -34.842  26.799   3.623  0.00  0.00    +0.174 C 
ATOM      9  CB  UNL     1     -33.319  26.764   3.676  0.00  0.00    +0.033 C 
ATOM     10  CG  UNL     1     -32.941  25.929   2.455  0.00  0.00    +0.024 C 
ATOM     11  CD  UNL     1     -34.054  24.895   2.381  0.00  0.00    +0.094 C 
ATOM     12  C   UNL     1     -36.498  25.026   3.046  0.00  0.00    +0.206 C 
BRANCH   8  14
ATOM     13  OXT UNL     1     -35.755  27.801   1.621  0.00  0.00    -0.248 OA
ATOM     14  C   UNL     1     -35.343  27.921   2.765  0.00  0.00    +0.332 C 
BRANCH  14  15
ATOM     15  O   UNL     1     -35.277  29.099   3.433  0.00  0.00    -0.479 OA
ATOM     16  H   UNL     1     -34.591  29.708   3.242  0.00  0.00    +0.295 HD
ENDBRANCH  14  15
ENDBRANCH   8  14
ENDBRANCH   4  12
ENDBRANCH   1   4
BRANCH   1  17
ATOM     17  CA  UNL     1     -36.136  21.645   3.666  0.00  0.00    +0.041 C 
BRANCH  17  19
ATOM     18  OXT UNL     1     -34.844  22.940   5.273  0.00  0.00    -0.253 OA
ATOM     19  C   UNL     1     -35.323  21.866   4.930  0.00  0.00    +0.293 C 
BRANCH  19  20
ATOM     20  O   UNL     1     -35.200  20.737   5.673  0.00  0.00    -0.482 OA
ATOM     21  H   UNL     1     -35.940  20.178   5.802  0.00  0.00    +0.295 HD
ENDBRANCH  19  20
ENDBRANCH  17  19
BRANCH  17  22
ATOM     22  C   UNL     1     -35.231  21.602   2.427  0.00  0.00    -0.006 C 
BRANCH  22  23
ATOM     23  C   UNL     1     -35.174  20.233   1.728  0.00  0.00    +0.025 C 
BRANCH  23  24
ATOM     24  C   UNL     1     -33.809  19.853   1.208  0.00  0.00    -0.022 C 
ATOM     25  C   UNL     1     -33.111  20.729   0.376  0.00  0.00    -0.004 C 
ATOM     26  C   UNL     1     -33.245  18.627   1.559  0.00  0.00    -0.004 C 
ATOM     27  C   UNL     1     -31.850  20.379  -0.105  0.00  0.00    -0.000 C 
ATOM     28  C   UNL     1     -31.983  18.277   1.079  0.00  0.00    -0.000 C 
ATOM     29  C   UNL     1     -31.285  19.152   0.246  0.00  0.00    -0.000 C 
ENDBRANCH  23  24
ENDBRANCH  22  23
ENDBRANCH  17  22
ENDBRANCH   1  17
TORSDOF 10
ENDMDL
MODEL 5
REMARK VINA RESULT:      -6.4      3.492      5.027
REMARK  Name = 5462501
REMARK  10 active torsions:
REMARK  status: ('A' for Active; 'I' for Inactive)
REMARK    1  A    between atoms: N_1  and  CA_4
REMARK    2  A    between atoms: N_1  and  CA_17
REMARK    3  A    between atoms: CA_4  and  C_12
REMARK    4  A    between atoms: CA_8  and  C_14
REMARK    5  A    between atoms: C_14  and  O_15
REMARK    6  A    between atoms: CA_17  and  C_19
REMARK    7  A    between atoms: CA_17  and  C_22
REMARK    8  A    between atoms: C_19  and  O_20
REMARK    9  A    between atoms: C_22  and  C_23
REMARK   10  A    between atoms: C_23  and  C_24
REMARK                            x       y       z     vdW  Elec       q    Type
REMARK                         _______ _______ _______ _____ _____    ______ ____
ROOT
ATOM      1  N   UNL     1     -37.795  20.631   1.249  0.00  0.00    +0.399 N 
ATOM      2  H1  UNL     1     -38.241  19.715   1.196  0.00  0.00    -0.083 HD
ATOM      3  H2  UNL     1     -37.633  20.896   2.221  0.00  0.00    -0.083 HD
ENDROOT
BRANCH   1   4
ATOM      4  CA  UNL     1     -38.669  21.620   0.640  0.00  0.00    +0.018 C 
ATOM      5  CB  UNL     1     -39.800  20.954  -0.118  0.00  0.00    -0.014 C 
BRANCH   4  12
ATOM      6  O   UNL     1     -40.098  22.010   2.505  0.00  0.00    -0.277 OA
ATOM      7  N   UNL     1     -38.696  23.738   1.868  0.00  0.00    -0.273 N 
ATOM      8  CA  UNL     1     -39.002  24.621   2.986  0.00  0.00    +0.174 C 
ATOM      9  CB  UNL     1     -37.901  25.675   2.959  0.00  0.00    +0.033 C 
ATOM     10  CG  UNL     1     -37.519  25.752   1.483  0.00  0.00    +0.024 C 
ATOM     11  CD  UNL     1     -37.664  24.313   1.010  0.00  0.00    +0.094 C 
ATOM     12  C   UNL     1     -39.225  22.461   1.761  0.00  0.00    +0.206 C 
BRANCH   8  14
ATOM     13  OXT UNL     1     -40.970  25.118   1.673  0.00  0.00    -0.248 OA
ATOM     14  C   UNL     1     -40.351  25.219   2.722  0.00  0.00    +0.332 C 
BRANCH  14  15
ATOM     15  O   UNL     1     -40.796  25.894   3.809  0.00  0.00    -0.479 OA
ATOM     16  H   UNL     1     -40.294  26.602   4.160  0.00  0.00    +0.295 HD
ENDBRANCH  14  15
ENDBRANCH   8  14
ENDBRANCH   4  12
ENDBRANCH   1   4
BRANCH   1  17
ATOM     17  CA  UNL     1     -36.510  20.575   0.564  0.00  0.00    +0.041 C 
BRANCH  17  19
ATOM     18  OXT UNL     1     -35.135  18.681  -0.108  0.00  0.00    -0.253 OA
ATOM     19  C   UNL     1     -36.198  19.108   0.326  0.00  0.00    +0.293 C 
BRANCH  19  20
ATOM     20  O   UNL     1     -37.227  18.295   0.674  0.00  0.00    -0.482 OA
ATOM     21  H   UNL     1     -37.680  17.803   0.018  0.00  0.00    +0.295 HD
ENDBRANCH  19  20
ENDBRANCH  17  19
BRANCH  17  22
ATOM     22  C   UNL     1     -35.439  21.233   1.445  0.00  0.00    -0.006 C 
BRANCH  22  23
ATOM     23  C   UNL     1     -35.362  20.677   2.876  0.00  0.00    +0.025 C 
BRANCH  23  24
ATOM     24  C   UNL     1     -35.317  21.731   3.955  0.00  0.00    -0.022 C 
ATOM     25  C   UNL     1     -35.318  23.082   3.609  0.00  0.00    -0.004 C 
ATOM     26  C   UNL     1     -35.276  21.354   5.297  0.00  0.00    -0.004 C 
ATOM     27  C   UNL     1     -35.277  24.057   4.606  0.00  0.00    -0.000 C 
ATOM     28  C   UNL     1     -35.235  22.329   6.294  0.00  0.00    -0.000 C 
ATOM     29  C   UNL     1     -35.235  23.681   5.949  0.00  0.00    -0.000 C 
ENDBRANCH  23  24
ENDBRANCH  22  23
ENDBRANCH  17  22
ENDBRANCH   1  17
TORSDOF 10
ENDMDL
MODEL 6
REMARK VINA RESULT:      -6.3      3.252      7.035
REMARK  Name = 5462501
REMARK  10 active torsions:
REMARK  status: ('A' for Active; 'I' for Inactive)
REMARK    1  A    between atoms: N_1  and  CA_4
REMARK    2  A    between atoms: N_1  and  CA_17
REMARK    3  A    between atoms: CA_4  and  C_12
REMARK    4  A    between atoms: CA_8  and  C_14
REMARK    5  A    between atoms: C_14  and  O_15
REMARK    6  A    between atoms: CA_17  and  C_19
REMARK    7  A    between atoms: CA_17  and  C_22
REMARK    8  A    between atoms: C_19  and  O_20
REMARK    9  A    between atoms: C_22  and  C_23
REMARK   10  A    between atoms: C_23  and  C_24
REMARK                            x       y       z     vdW  Elec       q    Type
REMARK                         _______ _______ _______ _____ _____    ______ ____
ROOT
ATOM      1  N   UNL     1     -36.749  22.465   3.761  0.00  0.00    +0.399 N 
ATOM      2  H1  UNL     1     -37.040  21.528   4.041  0.00  0.00    -0.083 HD
ATOM      3  H2  UNL     1     -37.524  23.122   3.848  0.00  0.00    -0.083 HD
ENDROOT
BRANCH   1   4
ATOM      4  CA  UNL     1     -36.323  22.435   2.372  0.00  0.00    +0.018 C 
ATOM      5  CB  UNL     1     -34.974  23.106   2.201  0.00  0.00    -0.014 C 
BRANCH   4  12
ATOM      6  O   UNL     1     -35.584  20.189   2.660  0.00  0.00    -0.277 OA
ATOM      7  N   UNL     1     -36.898  20.641   0.808  0.00  0.00    -0.273 N 
ATOM      8  CA  UNL     1     -37.046  19.259   0.369  0.00  0.00    +0.174 C 
ATOM      9  CB  UNL     1     -38.190  19.294  -0.638  0.00  0.00    +0.033 C 
ATOM     10  CG  UNL     1     -38.106  20.701  -1.222  0.00  0.00    +0.024 C 
ATOM     11  CD  UNL     1     -37.672  21.547  -0.035  0.00  0.00    +0.094 C 
ATOM     12  C   UNL     1     -36.230  20.984   1.974  0.00  0.00    +0.206 C 
BRANCH   8  14
ATOM     13  OXT UNL     1     -35.369  19.232  -1.373  0.00  0.00    -0.248 OA
ATOM     14  C   UNL     1     -35.752  18.859  -0.274  0.00  0.00    +0.332 C 
BRANCH  14  15
ATOM     15  O   UNL     1     -35.056  18.021   0.532  0.00  0.00    -0.479 OA
ATOM     16  H   UNL     1     -34.893  17.139   0.263  0.00  0.00    +0.295 HD
ENDBRANCH  14  15
ENDBRANCH   8  14
ENDBRANCH   4  12
ENDBRANCH   1   4
BRANCH   1  17
ATOM     17  CA  UNL     1     -35.667  22.907   4.631  0.00  0.00    +0.041 C 
BRANCH  17  19
ATOM     18  OXT UNL     1     -35.920  22.101   6.915  0.00  0.00    -0.253 OA
ATOM     19  C   UNL     1     -35.565  21.897   5.761  0.00  0.00    +0.293 C 
BRANCH  19  20
ATOM     20  O   UNL     1     -35.057  20.708   5.350  0.00  0.00    -0.482 OA
ATOM     21  H   UNL     1     -34.533  20.194   5.933  0.00  0.00    +0.295 HD
ENDBRANCH  19  20
ENDBRANCH  17  19
BRANCH  17  22
ATOM     22  C   UNL     1     -35.992  24.307   5.170  0.00  0.00    -0.006 C 
BRANCH  22  23
ATOM     23  C   UNL     1     -34.760  25.163   5.505  0.00  0.00    +0.025 C 
BRANCH  23  24
ATOM     24  C   UNL     1     -34.504  26.296   4.541  0.00  0.00    -0.022 C 
ATOM     25  C   UNL     1     -33.323  27.033   4.629  0.00  0.00    -0.004 C 
ATOM     26  C   UNL     1     -35.448  26.605   3.561  0.00  0.00    -0.004 C 
ATOM     27  C   UNL     1     -33.086  28.080   3.738  0.00  0.00    -0.000 C 
ATOM     28  C   UNL     1     -35.210  27.651   2.670  0.00  0.00    -0.000 C 
ATOM     29  C   UNL     1     -34.030  28.390   2.759  0.00  0.00    -0.000 C 
ENDBRANCH  23  24
ENDBRANCH  22  23
ENDBRANCH  17  22
ENDBRANCH   1  17
TORSDOF 10
ENDMDL
MODEL 7
REMARK VINA RESULT:      -6.3      3.807      6.516
REMARK  Name = 5462501
REMARK  10 active torsions:
REMARK  status: ('A' for Active; 'I' for Inactive)
REMARK    1  A    between atoms: N_1  and  CA_4
REMARK    2  A    between atoms: N_1  and  CA_17
REMARK    3  A    between atoms: CA_4  and  C_12
REMARK    4  A    between atoms: CA_8  and  C_14
REMARK    5  A    between atoms: C_14  and  O_15
REMARK    6  A    between atoms: CA_17  and  C_19
REMARK    7  A    between atoms: CA_17  and  C_22
REMARK    8  A    between atoms: C_19  and  O_20
REMARK    9  A    between atoms: C_22  and  C_23
REMARK   10  A    between atoms: C_23  and  C_24
REMARK                            x       y       z     vdW  Elec       q    Type
REMARK                         _______ _______ _______ _____ _____    ______ ____
ROOT
ATOM      1  N   UNL     1     -36.464  23.608   4.319  0.00  0.00    +0.399 N 
ATOM      2  H1  UNL     1     -37.240  23.054   4.682  0.00  0.00    -0.083 HD
ATOM      3  H2  UNL     1     -36.480  24.549   4.714  0.00  0.00    -0.083 HD
ENDROOT
BRANCH   1   4
ATOM      4  CA  UNL     1     -36.588  23.711   2.875  0.00  0.00    +0.018 C 
ATOM      5  CB  UNL     1     -35.544  22.862   2.177  0.00  0.00    -0.014 C 
BRANCH   4  12
ATOM      6  O   UNL     1     -38.240  22.025   2.565  0.00  0.00    -0.277 OA
ATOM      7  N   UNL     1     -38.869  24.212   2.139  0.00  0.00    -0.273 N 
ATOM      8  CA  UNL     1     -40.283  23.938   1.920  0.00  0.00    +0.174 C 
ATOM      9  CB  UNL     1     -40.956  25.305   1.985  0.00  0.00    +0.033 C 
ATOM     10  CG  UNL     1     -39.865  26.261   1.510  0.00  0.00    +0.024 C 
ATOM     11  CD  UNL     1     -38.592  25.644   2.069  0.00  0.00    +0.094 C 
ATOM     12  C   UNL     1     -37.970  23.227   2.518  0.00  0.00    +0.206 C 
BRANCH   8  14
ATOM     13  OXT UNL     1     -40.292  23.925  -0.498  0.00  0.00    -0.248 OA
ATOM     14  C   UNL     1     -40.408  23.322   0.558  0.00  0.00    +0.332 C 
BRANCH  14  15
ATOM     15  O   UNL     1     -40.669  21.996   0.656  0.00  0.00    -0.479 OA
ATOM     16  H   UNL     1     -40.475  21.537   1.449  0.00  0.00    +0.295 HD
ENDBRANCH  14  15
ENDBRANCH   8  14
ENDBRANCH   4  12
ENDBRANCH   1   4
BRANCH   1  17
ATOM     17  CA  UNL     1     -35.208  22.972   4.693  0.00  0.00    +0.041 C 
BRANCH  17  19
ATOM     18  OXT UNL     1     -36.138  22.054   6.748  0.00  0.00    -0.253 OA
ATOM     19  C   UNL     1     -35.545  21.877   5.691  0.00  0.00    +0.293 C 
BRANCH  19  20
ATOM     20  O   UNL     1     -35.140  20.651   5.274  0.00  0.00    -0.482 OA
ATOM     21  H   UNL     1     -34.232  20.485   5.116  0.00  0.00    +0.295 HD
ENDBRANCH  19  20
ENDBRANCH  17  19
BRANCH  17  22
ATOM     22  C   UNL     1     -34.275  24.020   5.317  0.00  0.00    -0.006 C 
BRANCH  22  23
ATOM     23  C   UNL     1     -34.845  25.448   5.336  0.00  0.00    +0.025 C 
BRANCH  23  24
ATOM     24  C   UNL     1     -33.801  26.537   5.379  0.00  0.00    -0.022 C 
ATOM     25  C   UNL     1     -33.149  26.830   6.576  0.00  0.00    -0.004 C 
ATOM     26  C   UNL     1     -33.488  27.249   4.222  0.00  0.00    -0.004 C 
ATOM     27  C   UNL     1     -32.184  27.836   6.617  0.00  0.00    -0.000 C 
ATOM     28  C   UNL     1     -32.523  28.255   4.262  0.00  0.00    -0.000 C 
ATOM     29  C   UNL     1     -31.871  28.550   5.459  0.00  0.00    -0.000 C 
ENDBRANCH  23  24
ENDBRANCH  22  23
ENDBRANCH  17  22
ENDBRANCH   1  17
TORSDOF 10
ENDMDL
MODEL 8
REMARK VINA RESULT:      -6.3      2.093      3.499
REMARK  Name = 5462501
REMARK  10 active torsions:
REMARK  status: ('A' for Active; 'I' for Inactive)
REMARK    1  A    between atoms: N_1  and  CA_4
REMARK    2  A    between atoms: N_1  and  CA_17
REMARK    3  A    between atoms: CA_4  and  C_12
REMARK    4  A    between atoms: CA_8  and  C_14
REMARK    5  A    between atoms: C_14  and  O_15
REMARK    6  A    between atoms: CA_17  and  C_19
REMARK    7  A    between atoms: CA_17  and  C_22
REMARK    8  A    between atoms: C_19  and  O_20
REMARK    9  A    between atoms: C_22  and  C_23
REMARK   10  A    between atoms: C_23  and  C_24
REMARK                            x       y       z     vdW  Elec       q    Type
REMARK                         _______ _______ _______ _____ _____    ______ ____
ROOT
ATOM      1  N   UNL     1     -37.738  23.305   1.015  0.00  0.00    +0.399 N 
ATOM      2  H1  UNL     1     -37.633  23.782   0.120  0.00  0.00    -0.083 HD
ATOM      3  H2  UNL     1     -38.283  23.875   1.663  0.00  0.00    -0.083 HD
ENDROOT
BRANCH   1   4
ATOM      4  CA  UNL     1     -36.422  23.081   1.591  0.00  0.00    +0.018 C 
ATOM      5  CB  UNL     1     -35.329  23.403   0.592  0.00  0.00    -0.014 C 
BRANCH   4  12
ATOM      6  O   UNL     1     -36.647  25.170   2.710  0.00  0.00    -0.277 OA
ATOM      7  N   UNL     1     -35.801  23.399   3.937  0.00  0.00    -0.273 N 
ATOM      8  CA  UNL     1     -35.776  24.085   5.223  0.00  0.00    +0.174 C 
ATOM      9  CB  UNL     1     -35.594  22.973   6.251  0.00  0.00    +0.033 C 
ATOM     10  CG  UNL     1     -34.822  21.903   5.484  0.00  0.00    +0.024 C 
ATOM     11  CD  UNL     1     -35.388  22.005   4.075  0.00  0.00    +0.094 C 
ATOM     12  C   UNL     1     -36.309  23.988   2.790  0.00  0.00    +0.206 C 
BRANCH   8  14
ATOM     13  OXT UNL     1     -33.516  24.771   4.704  0.00  0.00    -0.248 OA
ATOM     14  C   UNL     1     -34.604  25.019   5.202  0.00  0.00    +0.332 C 
BRANCH  14  15
ATOM     15  O   UNL     1     -34.913  26.187   5.817  0.00  0.00    -0.479 OA
ATOM     16  H   UNL     1     -34.433  26.461   6.573  0.00  0.00    +0.295 HD
ENDBRANCH  14  15
ENDBRANCH   8  14
ENDBRANCH   4  12
ENDBRANCH   1   4
BRANCH   1  17
ATOM     17  CA  UNL     1     -38.439  22.045   0.805  0.00  0.00    +0.041 C 
BRANCH  17  19
ATOM     18  OXT UNL     1     -40.455  23.121   1.648  0.00  0.00    -0.253 OA
ATOM     19  C   UNL     1     -39.741  22.127   1.583  0.00  0.00    +0.293 C 
BRANCH  19  20
ATOM     20  O   UNL     1     -40.058  20.956   2.190  0.00  0.00    -0.482 OA
ATOM     21  H   UNL     1     -40.848  20.886   2.691  0.00  0.00    +0.295 HD
ENDBRANCH  19  20
ENDBRANCH  17  19
BRANCH  17  22
ATOM     22  C   UNL     1     -37.565  20.889   1.311  0.00  0.00    -0.006 C 
BRANCH  22  23
ATOM     23  C   UNL     1     -37.198  19.851   0.237  0.00  0.00    +0.025 C 
BRANCH  23  24
ATOM     24  C   UNL     1     -35.848  19.203   0.430  0.00  0.00    -0.022 C 
ATOM     25  C   UNL     1     -34.914  19.782   1.289  0.00  0.00    -0.004 C 
ATOM     26  C   UNL     1     -35.537  18.026  -0.250  0.00  0.00    -0.004 C 
ATOM     27  C   UNL     1     -33.666  19.183   1.467  0.00  0.00    -0.000 C 
ATOM     28  C   UNL     1     -34.289  17.427  -0.071  0.00  0.00    -0.000 C 
ATOM     29  C   UNL     1     -33.354  18.006   0.787  0.00  0.00    -0.000 C 
ENDBRANCH  23  24
ENDBRANCH  22  23
ENDBRANCH  17  22
ENDBRANCH   1  17
TORSDOF 10
ENDMDL
MODEL 9
REMARK VINA RESULT:      -6.3      3.718      5.780
REMARK  Name = 5462501
REMARK  10 active torsions:
REMARK  status: ('A' for Active; 'I' for Inactive)
REMARK    1  A    between atoms: N_1  and  CA_4
REMARK    2  A    between atoms: N_1  and  CA_17
REMARK    3  A    between atoms: CA_4  and  C_12
REMARK    4  A    between atoms: CA_8  and  C_14
REMARK    5  A    between atoms: C_14  and  O_15
REMARK    6  A    between atoms: CA_17  and  C_19
REMARK    7  A    between atoms: CA_17  and  C_22
REMARK    8  A    between atoms: C_19  and  O_20
REMARK    9  A    between atoms: C_22  and  C_23
REMARK   10  A    between atoms: C_23  and  C_24
REMARK                            x       y       z     vdW  Elec       q    Type
REMARK                         _______ _______ _______ _____ _____    ______ ____
ROOT
ATOM      1  N   UNL     1     -34.461  23.972   4.825  0.00  0.00    +0.399 N 
ATOM      2  H1  UNL     1     -34.001  23.914   5.733  0.00  0.00    -0.083 HD
ATOM      3  H2  UNL     1     -33.807  23.744   4.076  0.00  0.00    -0.083 HD
ENDROOT
BRANCH   1   4
ATOM      4  CA  UNL     1     -34.942  25.329   4.621  0.00  0.00    +0.018 C 
ATOM      5  CB  UNL     1     -36.140  25.621   5.503  0.00  0.00    -0.014 C 
BRANCH   4  12
ATOM      6  O   UNL     1     -33.372  26.297   6.126  0.00  0.00    -0.277 OA
ATOM      7  N   UNL     1     -33.318  27.025   3.929  0.00  0.00    -0.273 N 
ATOM      8  CA  UNL     1     -32.122  27.849   4.057  0.00  0.00    +0.174 C 
ATOM      9  CB  UNL     1     -31.694  28.133   2.621  0.00  0.00    +0.033 C 
ATOM     10  CG  UNL     1     -33.008  28.096   1.845  0.00  0.00    +0.024 C 
ATOM     11  CD  UNL     1     -33.800  27.006   2.551  0.00  0.00    +0.094 C 
ATOM     12  C   UNL     1     -33.805  26.253   4.973  0.00  0.00    +0.206 C 
BRANCH   8  14
ATOM     13  OXT UNL     1     -33.074  30.062   4.259  0.00  0.00    -0.248 OA
ATOM     14  C   UNL     1     -32.523  29.101   4.776  0.00  0.00    +0.332 C 
BRANCH  14  15
ATOM     15  O   UNL     1     -32.190  29.027   6.088  0.00  0.00    -0.479 OA
ATOM     16  H   UNL     1     -32.416  28.267   6.587  0.00  0.00    +0.295 HD
ENDBRANCH  14  15
ENDBRANCH   8  14
ENDBRANCH   4  12
ENDBRANCH   1   4
BRANCH   1  17
ATOM     17  CA  UNL     1     -35.560  23.016   4.786  0.00  0.00    +0.041 C 
BRANCH  17  19
ATOM     18  OXT UNL     1     -35.190  22.214   7.056  0.00  0.00    -0.253 OA
ATOM     19  C   UNL     1     -35.281  21.976   5.858  0.00  0.00    +0.293 C 
BRANCH  19  20
ATOM     20  O   UNL     1     -35.166  20.723   5.348  0.00  0.00    -0.482 OA
ATOM     21  H   UNL     1     -34.522  20.540   4.693  0.00  0.00    +0.295 HD
ENDBRANCH  19  20
ENDBRANCH  17  19
BRANCH  17  22
ATOM     22  C   UNL     1     -35.622  22.372   3.394  0.00  0.00    -0.006 C 
BRANCH  22  23
ATOM     23  C   UNL     1     -36.998  22.457   2.714  0.00  0.00    +0.025 C 
BRANCH  23  24
ATOM     24  C   UNL     1     -37.444  23.859   2.376  0.00  0.00    -0.022 C 
ATOM     25  C   UNL     1     -36.709  24.624   1.470  0.00  0.00    -0.004 C 
ATOM     26  C   UNL     1     -38.590  24.389   2.968  0.00  0.00    -0.004 C 
ATOM     27  C   UNL     1     -37.121  25.920   1.157  0.00  0.00    -0.000 C 
ATOM     28  C   UNL     1     -39.002  25.684   2.655  0.00  0.00    -0.000 C 
ATOM     29  C   UNL     1     -38.267  26.450   1.750  0.00  0.00    -0.000 C 
ENDBRANCH  23  24
ENDBRANCH  22  23
ENDBRANCH  17  22
ENDBRANCH   1  17
TORSDOF 10
ENDMDL
