MODEL 1
REMARK VINA RESULT:      -6.9      0.000      0.000
REMARK  Name = 54728537
REMARK  5 active torsions:
REMARK  status: ('A' for Active; 'I' for Inactive)
REMARK    1  A    between atoms: C_1  and  C_4
REMARK    2  A    between atoms: C_2  and  C_19
REMARK    3  A    between atoms: C_4  and  C_10
REMARK    4  A    between atoms: C_20  and  C_24
REMARK    5  A    between atoms: C_24  and  O_30
REMARK                            x       y       z     vdW  Elec       q    Type
REMARK                         _______ _______ _______ _____ _____    ______ ____
ROOT
ATOM      1  C   UNL     1     -35.293  22.894   3.689  0.00  0.00    -0.028 C 
ATOM      2  C   UNL     1     -35.121  23.058   5.018  0.00  0.00    -0.026 C 
ATOM      3  C   UNL     1     -35.451  22.011   6.049  0.00  0.00    +0.031 C 
ENDROOT
BRANCH   1   4
ATOM      4  C   UNL     1     -35.838  21.695   2.945  0.00  0.00    +0.049 C 
ATOM      5  C   UNL     1     -37.204  22.035   2.344  0.00  0.00    +0.007 C 
BRANCH   4  10
ATOM      6  O   UNL     1     -35.211  19.922   1.493  0.00  0.00    -0.333 OA
ATOM      7  O   UNL     1     -34.703  20.255  -0.806  0.00  0.00    -0.326 OA
ATOM      8  O   UNL     1     -31.908  22.321  -0.802  0.00  0.00    -0.289 OA
ATOM      9  C   UNL     1     -34.911  22.195   0.614  0.00  0.00    +0.062 C 
ATOM     10  C   UNL     1     -34.864  21.269   1.850  0.00  0.00    +0.125 C 
ATOM     11  C   UNL     1     -34.186  21.561  -0.585  0.00  0.00    +0.181 C 
ATOM     12  C   UNL     1     -34.503  19.423   0.347  0.00  0.00    +0.204 C 
ATOM     13  C   UNL     1     -33.013  19.280   0.636  0.00  0.00    +0.009 C 
ATOM     14  C   UNL     1     -34.402  23.605   0.910  0.00  0.00    +0.005 C 
ATOM     15  C   UNL     1     -32.677  21.435  -0.436  0.00  0.00    +0.200 C 
ATOM     16  C   UNL     1     -35.155  18.087  -0.016  0.00  0.00    +0.066 C 
ATOM     17  C   UNL     1     -32.143  20.215   0.219  0.00  0.00    +0.036 C 
ATOM     18  C   UNL     1     -32.542  18.104   1.443  0.00  0.00    +0.031 C 
ENDBRANCH   4  10
ENDBRANCH   1   4
BRANCH   2  19
ATOM     19  C   UNL     1     -34.577  24.334   5.499  0.00  0.00    -0.001 C 
ATOM     20  C   UNL     1     -34.014  25.300   4.752  0.00  0.00    +0.037 C 
BRANCH  20  24
ATOM     21  O   UNL     1     -32.322  29.173   6.043  0.00  0.00    -0.289 OA
ATOM     22  O   UNL     1     -33.036  26.385   2.312  0.00  0.00    -0.270 OA
ATOM     23  N   UNL     1     -32.044  28.497   2.645  0.00  0.00    -0.294 N 
ATOM     24  C   UNL     1     -33.483  26.553   5.259  0.00  0.00    +0.141 C 
ATOM     25  C   UNL     1     -32.891  27.456   4.465  0.00  0.00    +0.123 C 
ATOM     26  C   UNL     1     -32.326  28.750   4.899  0.00  0.00    +0.200 C 
ATOM     27  C   UNL     1     -31.757  29.459   3.700  0.00  0.00    +0.160 C 
ATOM     28  C   UNL     1     -32.695  27.322   3.011  0.00  0.00    +0.252 C 
ATOM     29  H   UNL     1     -31.788  28.670   1.709  0.00  0.00    +0.150 HD
BRANCH  24  30
ATOM     30  O   UNL     1     -33.625  26.763   6.617  0.00  0.00    -0.505 OA
ATOM     31  H   UNL     1     -34.440  27.073   6.961  0.00  0.00    +0.292 HD
ENDBRANCH  24  30
ENDBRANCH  20  24
ENDBRANCH   2  19
TORSDOF 5
ENDMDL
MODEL 2
REMARK VINA RESULT:      -6.9      9.456     12.506
REMARK  Name = 54728537
REMARK  5 active torsions:
REMARK  status: ('A' for Active; 'I' for Inactive)
REMARK    1  A    between atoms: C_1  and  C_4
REMARK    2  A    between atoms: C_2  and  C_19
REMARK    3  A    between atoms: C_4  and  C_10
REMARK    4  A    between atoms: C_20  and  C_24
REMARK    5  A    between atoms: C_24  and  O_30
REMARK                            x       y       z     vdW  Elec       q    Type
REMARK                         _______ _______ _______ _____ _____    ______ ____
ROOT
ATOM      1  C   UNL     1     -43.535  27.104   4.300  0.00  0.00    -0.028 C 
ATOM      2  C   UNL     1     -42.776  26.649   3.280  0.00  0.00    -0.026 C 
ATOM      3  C   UNL     1     -43.291  26.412   1.884  0.00  0.00    +0.031 C 
ENDROOT
BRANCH   1   4
ATOM      4  C   UNL     1     -45.005  27.458   4.304  0.00  0.00    +0.049 C 
ATOM      5  C   UNL     1     -45.762  26.519   5.246  0.00  0.00    +0.007 C 
BRANCH   4  10
ATOM      6  O   UNL     1     -44.637  29.027   6.049  0.00  0.00    -0.333 OA
ATOM      7  O   UNL     1     -43.815  31.223   5.657  0.00  0.00    -0.326 OA
ATOM      8  O   UNL     1     -46.257  32.745   3.708  0.00  0.00    -0.289 OA
ATOM      9  C   UNL     1     -44.524  29.910   3.760  0.00  0.00    +0.062 C 
ATOM     10  C   UNL     1     -45.194  28.911   4.731  0.00  0.00    +0.125 C 
ATOM     11  C   UNL     1     -44.436  31.315   4.382  0.00  0.00    +0.181 C 
ATOM     12  C   UNL     1     -44.572  30.377   6.536  0.00  0.00    +0.204 C 
ATOM     13  C   UNL     1     -45.965  30.957   6.749  0.00  0.00    +0.009 C 
ATOM     14  C   UNL     1     -45.186  29.934   2.384  0.00  0.00    +0.005 C 
ATOM     15  C   UNL     1     -45.770  32.022   4.574  0.00  0.00    +0.200 C 
ATOM     16  C   UNL     1     -43.757  30.330   7.832  0.00  0.00    +0.066 C 
ATOM     17  C   UNL     1     -46.511  31.777   5.836  0.00  0.00    +0.036 C 
ATOM     18  C   UNL     1     -46.739  30.550   7.971  0.00  0.00    +0.031 C 
ENDBRANCH   4  10
ENDBRANCH   1   4
BRANCH   2  19
ATOM     19  C   UNL     1     -41.359  26.366   3.535  0.00  0.00    -0.001 C 
ATOM     20  C   UNL     1     -40.523  25.672   2.743  0.00  0.00    +0.037 C 
BRANCH  20  24
ATOM     21  O   UNL     1     -36.304  24.612   3.520  0.00  0.00    -0.289 OA
ATOM     22  O   UNL     1     -40.446  22.914   2.052  0.00  0.00    -0.270 OA
ATOM     23  N   UNL     1     -38.292  22.009   2.357  0.00  0.00    -0.294 N 
ATOM     24  C   UNL     1     -39.123  25.408   3.023  0.00  0.00    +0.141 C 
ATOM     25  C   UNL     1     -38.571  24.198   2.849  0.00  0.00    +0.123 C 
ATOM     26  C   UNL     1     -37.160  23.847   3.110  0.00  0.00    +0.200 C 
ATOM     27  C   UNL     1     -36.954  22.392   2.788  0.00  0.00    +0.160 C 
ATOM     28  C   UNL     1     -39.273  22.997   2.366  0.00  0.00    +0.252 C 
ATOM     29  H   UNL     1     -38.495  21.089   2.071  0.00  0.00    +0.150 HD
BRANCH  24  30
ATOM     30  O   UNL     1     -38.386  26.482   3.481  0.00  0.00    -0.505 OA
ATOM     31  H   UNL     1     -38.210  27.207   2.913  0.00  0.00    +0.292 HD
ENDBRANCH  24  30
ENDBRANCH  20  24
ENDBRANCH   2  19
TORSDOF 5
ENDMDL
MODEL 3
REMARK VINA RESULT:      -6.5      3.644      8.507
REMARK  Name = 54728537
REMARK  5 active torsions:
REMARK  status: ('A' for Active; 'I' for Inactive)
REMARK    1  A    between atoms: C_1  and  C_4
REMARK    2  A    between atoms: C_2  and  C_19
REMARK    3  A    between atoms: C_4  and  C_10
REMARK    4  A    between atoms: C_20  and  C_24
REMARK    5  A    between atoms: C_24  and  O_30
REMARK                            x       y       z     vdW  Elec       q    Type
REMARK                         _______ _______ _______ _____ _____    ______ ____
ROOT
ATOM      1  C   UNL     1     -33.560  21.747   0.253  0.00  0.00    -0.028 C 
ATOM      2  C   UNL     1     -32.362  21.829  -0.363  0.00  0.00    -0.026 C 
ATOM      3  C   UNL     1     -31.795  23.098  -0.944  0.00  0.00    +0.031 C 
ENDROOT
BRANCH   1   4
ATOM      4  C   UNL     1     -34.581  22.838   0.491  0.00  0.00    +0.049 C 
ATOM      5  C   UNL     1     -35.849  22.547  -0.314  0.00  0.00    +0.007 C 
BRANCH   4  10
ATOM      6  O   UNL     1     -35.490  24.234   2.185  0.00  0.00    -0.333 OA
ATOM      7  O   UNL     1     -37.000  23.438   3.839  0.00  0.00    -0.326 OA
ATOM      8  O   UNL     1     -35.184  21.077   5.630  0.00  0.00    -0.289 OA
ATOM      9  C   UNL     1     -35.854  21.821   2.462  0.00  0.00    +0.062 C 
ATOM     10  C   UNL     1     -34.903  22.940   1.979  0.00  0.00    +0.125 C 
ATOM     11  C   UNL     1     -36.424  22.138   3.855  0.00  0.00    +0.181 C 
ATOM     12  C   UNL     1     -36.017  24.430   3.506  0.00  0.00    +0.204 C 
ATOM     13  C   UNL     1     -34.907  24.438   4.550  0.00  0.00    +0.009 C 
ATOM     14  C   UNL     1     -35.215  20.435   2.407  0.00  0.00    +0.005 C 
ATOM     15  C   UNL     1     -35.413  22.102   4.991  0.00  0.00    +0.200 C 
ATOM     16  C   UNL     1     -36.791  25.751   3.471  0.00  0.00    +0.066 C 
ATOM     17  C   UNL     1     -34.655  23.344   5.287  0.00  0.00    +0.036 C 
ATOM     18  C   UNL     1     -34.064  25.671   4.700  0.00  0.00    +0.031 C 
ENDBRANCH   4  10
ENDBRANCH   1   4
BRANCH   2  19
ATOM     19  C   UNL     1     -31.551  20.611  -0.478  0.00  0.00    -0.001 C 
ATOM     20  C   UNL     1     -31.568  19.553   0.351  0.00  0.00    +0.037 C 
BRANCH  20  24
ATOM     21  O   UNL     1     -29.309  15.781  -0.087  0.00  0.00    -0.289 OA
ATOM     22  O   UNL     1     -33.641  17.614   0.170  0.00  0.00    -0.270 OA
ATOM     23  N   UNL     1     -32.768  15.439  -0.076  0.00  0.00    -0.294 N 
ATOM     24  C   UNL     1     -30.751  18.361   0.212  0.00  0.00    +0.141 C 
ATOM     25  C   UNL     1     -31.283  17.136   0.086  0.00  0.00    +0.123 C 
ATOM     26  C   UNL     1     -30.524  15.876  -0.060  0.00  0.00    +0.200 C 
ATOM     27  C   UNL     1     -31.497  14.734  -0.170  0.00  0.00    +0.160 C 
ATOM     28  C   UNL     1     -32.722  16.823   0.073  0.00  0.00    +0.252 C 
ATOM     29  H   UNL     1     -33.626  14.958  -0.115  0.00  0.00    +0.150 HD
BRANCH  24  30
ATOM     30  O   UNL     1     -29.385  18.562   0.213  0.00  0.00    -0.505 OA
ATOM     31  H   UNL     1     -28.825  17.981  -0.263  0.00  0.00    +0.292 HD
ENDBRANCH  24  30
ENDBRANCH  20  24
ENDBRANCH   2  19
TORSDOF 5
ENDMDL
MODEL 4
REMARK VINA RESULT:      -6.4      3.871      8.624
REMARK  Name = 54728537
REMARK  5 active torsions:
REMARK  status: ('A' for Active; 'I' for Inactive)
REMARK    1  A    between atoms: C_1  and  C_4
REMARK    2  A    between atoms: C_2  and  C_19
REMARK    3  A    between atoms: C_4  and  C_10
REMARK    4  A    between atoms: C_20  and  C_24
REMARK    5  A    between atoms: C_24  and  O_30
REMARK                            x       y       z     vdW  Elec       q    Type
REMARK                         _______ _______ _______ _____ _____    ______ ____
ROOT
ATOM      1  C   UNL     1     -38.999  23.041   1.818  0.00  0.00    -0.028 C 
ATOM      2  C   UNL     1     -39.128  22.724   0.512  0.00  0.00    -0.026 C 
ATOM      3  C   UNL     1     -38.925  23.699  -0.619  0.00  0.00    +0.031 C 
ENDROOT
BRANCH   1   4
ATOM      4  C   UNL     1     -38.652  24.376   2.440  0.00  0.00    +0.049 C 
ATOM      5  C   UNL     1     -39.684  24.732   3.512  0.00  0.00    +0.007 C 
BRANCH   4  10
ATOM      6  O   UNL     1     -36.902  22.937   3.155  0.00  0.00    -0.333 OA
ATOM      7  O   UNL     1     -34.616  23.327   2.630  0.00  0.00    -0.326 OA
ATOM      8  O   UNL     1     -33.858  26.346   4.175  0.00  0.00    -0.289 OA
ATOM      9  C   UNL     1     -36.208  25.087   2.192  0.00  0.00    +0.062 C 
ATOM     10  C   UNL     1     -37.251  24.326   3.042  0.00  0.00    +0.125 C 
ATOM     11  C   UNL     1     -34.774  24.739   2.628  0.00  0.00    +0.181 C 
ATOM     12  C   UNL     1     -35.538  22.710   3.542  0.00  0.00    +0.204 C 
ATOM     13  C   UNL     1     -35.276  23.199   4.962  0.00  0.00    +0.009 C 
ATOM     14  C   UNL     1     -36.449  26.595   2.169  0.00  0.00    +0.005 C 
ATOM     15  C   UNL     1     -34.377  25.245   4.007  0.00  0.00    +0.200 C 
ATOM     16  C   UNL     1     -35.291  21.206   3.391  0.00  0.00    +0.066 C 
ATOM     17  C   UNL     1     -34.680  24.383   5.177  0.00  0.00    +0.036 C 
ATOM     18  C   UNL     1     -35.747  22.359   6.115  0.00  0.00    +0.031 C 
ENDBRANCH   4  10
ENDBRANCH   1   4
BRANCH   2  19
ATOM     19  C   UNL     1     -39.486  21.345   0.160  0.00  0.00    -0.001 C 
ATOM     20  C   UNL     1     -38.714  20.457  -0.491  0.00  0.00    +0.037 C 
BRANCH  20  24
ATOM     21  O   UNL     1     -39.638  16.238  -1.426  0.00  0.00    -0.289 OA
ATOM     22  O   UNL     1     -36.326  19.120   0.282  0.00  0.00    -0.270 OA
ATOM     23  N   UNL     1     -36.478  16.798  -0.093  0.00  0.00    -0.294 N 
ATOM     24  C   UNL     1     -39.098  19.097  -0.827  0.00  0.00    +0.141 C 
ATOM     25  C   UNL     1     -38.278  18.052  -0.640  0.00  0.00    +0.123 C 
ATOM     26  C   UNL     1     -38.590  16.642  -0.954  0.00  0.00    +0.200 C 
ATOM     27  C   UNL     1     -37.403  15.791  -0.596  0.00  0.00    +0.160 C 
ATOM     28  C   UNL     1     -36.914  18.121  -0.088  0.00  0.00    +0.252 C 
ATOM     29  H   UNL     1     -35.580  16.555   0.231  0.00  0.00    +0.150 HD
BRANCH  24  30
ATOM     30  O   UNL     1     -40.365  18.939  -1.352  0.00  0.00    -0.505 OA
ATOM     31  H   UNL     1     -41.043  18.551  -0.833  0.00  0.00    +0.292 HD
ENDBRANCH  24  30
ENDBRANCH  20  24
ENDBRANCH   2  19
TORSDOF 5
ENDMDL
MODEL 5
REMARK VINA RESULT:      -6.4      1.870      3.329
REMARK  Name = 54728537
REMARK  5 active torsions:
REMARK  status: ('A' for Active; 'I' for Inactive)
REMARK    1  A    between atoms: C_1  and  C_4
REMARK    2  A    between atoms: C_2  and  C_19
REMARK    3  A    between atoms: C_4  and  C_10
REMARK    4  A    between atoms: C_20  and  C_24
REMARK    5  A    between atoms: C_24  and  O_30
REMARK                            x       y       z     vdW  Elec       q    Type
REMARK                         _______ _______ _______ _____ _____    ______ ____
ROOT
ATOM      1  C   UNL     1     -36.189  24.577   4.158  0.00  0.00    -0.028 C 
ATOM      2  C   UNL     1     -35.462  24.312   5.263  0.00  0.00    -0.026 C 
ATOM      3  C   UNL     1     -35.367  22.953   5.907  0.00  0.00    +0.031 C 
ENDROOT
BRANCH   1   4
ATOM      4  C   UNL     1     -37.052  23.640   3.342  0.00  0.00    +0.049 C 
ATOM      5  C   UNL     1     -38.413  24.285   3.078  0.00  0.00    +0.007 C 
BRANCH   4  10
ATOM      6  O   UNL     1     -35.796  24.524   1.529  0.00  0.00    -0.333 OA
ATOM      7  O   UNL     1     -33.872  23.444   0.644  0.00  0.00    -0.326 OA
ATOM      8  O   UNL     1     -35.048  20.417  -0.592  0.00  0.00    -0.289 OA
ATOM      9  C   UNL     1     -35.263  22.220   2.190  0.00  0.00    +0.062 C 
ATOM     10  C   UNL     1     -36.357  23.299   2.026  0.00  0.00    +0.125 C 
ATOM     11  C   UNL     1     -34.364  22.145   0.944  0.00  0.00    +0.181 C 
ATOM     12  C   UNL     1     -34.952  24.353   0.380  0.00  0.00    +0.204 C 
ATOM     13  C   UNL     1     -35.750  23.879  -0.828  0.00  0.00    +0.009 C 
ATOM     14  C   UNL     1     -35.830  20.853   2.570  0.00  0.00    +0.005 C 
ATOM     15  C   UNL     1     -35.041  21.613  -0.310  0.00  0.00    +0.200 C 
ATOM     16  C   UNL     1     -34.275  25.704   0.136  0.00  0.00    +0.066 C 
ATOM     17  C   UNL     1     -35.751  22.583  -1.181  0.00  0.00    +0.036 C 
ATOM     18  C   UNL     1     -36.581  24.877  -1.584  0.00  0.00    +0.031 C 
ENDBRANCH   4  10
ENDBRANCH   1   4
BRANCH   2  19
ATOM     19  C   UNL     1     -34.708  25.408   5.884  0.00  0.00    -0.001 C 
ATOM     20  C   UNL     1     -33.674  26.077   5.346  0.00  0.00    +0.037 C 
BRANCH  20  24
ATOM     21  O   UNL     1     -31.443  29.487   7.056  0.00  0.00    -0.289 OA
ATOM     22  O   UNL     1     -33.207  27.711   3.065  0.00  0.00    -0.270 OA
ATOM     23  N   UNL     1     -32.010  29.660   3.631  0.00  0.00    -0.294 N 
ATOM     24  C   UNL     1     -32.947  27.159   5.987  0.00  0.00    +0.141 C 
ATOM     25  C   UNL     1     -32.488  28.219   5.307  0.00  0.00    +0.123 C 
ATOM     26  C   UNL     1     -31.743  29.358   5.882  0.00  0.00    +0.200 C 
ATOM     27  C   UNL     1     -31.415  30.329   4.781  0.00  0.00    +0.160 C 
ATOM     28  C   UNL     1     -32.645  28.442   3.859  0.00  0.00    +0.252 C 
ATOM     29  H   UNL     1     -31.965  30.052   2.729  0.00  0.00    +0.150 HD
BRANCH  24  30
ATOM     30  O   UNL     1     -32.754  27.032   7.349  0.00  0.00    -0.505 OA
ATOM     31  H   UNL     1     -31.913  27.209   7.723  0.00  0.00    +0.292 HD
ENDBRANCH  24  30
ENDBRANCH  20  24
ENDBRANCH   2  19
TORSDOF 5
ENDMDL
MODEL 6
REMARK VINA RESULT:      -6.4      3.134      8.039
REMARK  Name = 54728537
REMARK  5 active torsions:
REMARK  status: ('A' for Active; 'I' for Inactive)
REMARK    1  A    between atoms: C_1  and  C_4
REMARK    2  A    between atoms: C_2  and  C_19
REMARK    3  A    between atoms: C_4  and  C_10
REMARK    4  A    between atoms: C_20  and  C_24
REMARK    5  A    between atoms: C_24  and  O_30
REMARK                            x       y       z     vdW  Elec       q    Type
REMARK                         _______ _______ _______ _____ _____    ______ ____
ROOT
ATOM      1  C   UNL     1     -35.338  23.884   4.158  0.00  0.00    -0.028 C 
ATOM      2  C   UNL     1     -35.413  22.672   4.748  0.00  0.00    -0.026 C 
ATOM      3  C   UNL     1     -35.511  22.462   6.237  0.00  0.00    +0.031 C 
ENDROOT
BRANCH   1   4
ATOM      4  C   UNL     1     -35.322  25.253   4.801  0.00  0.00    +0.049 C 
ATOM      5  C   UNL     1     -34.106  25.379   5.721  0.00  0.00    +0.007 C 
BRANCH   4  10
ATOM      6  O   UNL     1     -33.919  26.518   3.360  0.00  0.00    -0.333 OA
ATOM      7  O   UNL     1     -34.438  26.911   1.074  0.00  0.00    -0.326 OA
ATOM      8  O   UNL     1     -37.388  28.746   1.140  0.00  0.00    -0.289 OA
ATOM      9  C   UNL     1     -36.151  25.975   2.492  0.00  0.00    +0.062 C 
ATOM     10  C   UNL     1     -35.296  26.337   3.727  0.00  0.00    +0.125 C 
ATOM     11  C   UNL     1     -35.840  26.905   1.307  0.00  0.00    +0.181 C 
ATOM     12  C   UNL     1     -33.728  27.382   2.230  0.00  0.00    +0.204 C 
ATOM     13  C   UNL     1     -34.142  28.814   2.550  0.00  0.00    +0.009 C 
ATOM     14  C   UNL     1     -37.646  25.922   2.801  0.00  0.00    +0.005 C 
ATOM     15  C   UNL     1     -36.278  28.351   1.488  0.00  0.00    +0.200 C 
ATOM     16  C   UNL     1     -32.248  27.276   1.850  0.00  0.00    +0.066 C 
ATOM     17  C   UNL     1     -35.335  29.285   2.153  0.00  0.00    +0.036 C 
ATOM     18  C   UNL     1     -33.214  29.669   3.365  0.00  0.00    +0.031 C 
ENDBRANCH   4  10
ENDBRANCH   1   4
BRANCH   2  19
ATOM     19  C   UNL     1     -35.401  21.478   3.896  0.00  0.00    -0.001 C 
ATOM     20  C   UNL     1     -35.517  21.445   2.557  0.00  0.00    +0.037 C 
BRANCH  20  24
ATOM     21  O   UNL     1     -35.723  17.854  -0.010  0.00  0.00    -0.289 OA
ATOM     22  O   UNL     1     -38.117  21.651   1.423  0.00  0.00    -0.270 OA
ATOM     23  N   UNL     1     -38.567  19.852  -0.031  0.00  0.00    -0.294 N 
ATOM     24  C   UNL     1     -35.502  20.245   1.740  0.00  0.00    +0.141 C 
ATOM     25  C   UNL     1     -36.545  19.881   0.979  0.00  0.00    +0.123 C 
ATOM     26  C   UNL     1     -36.611  18.680   0.121  0.00  0.00    +0.200 C 
ATOM     27  C   UNL     1     -37.951  18.642  -0.561  0.00  0.00    +0.160 C 
ATOM     28  C   UNL     1     -37.817  20.615   0.860  0.00  0.00    +0.252 C 
ATOM     29  H   UNL     1     -39.478  20.120  -0.292  0.00  0.00    +0.150 HD
BRANCH  24  30
ATOM     30  O   UNL     1     -34.344  19.494   1.790  0.00  0.00    -0.505 OA
ATOM     31  H   UNL     1     -34.151  18.980   2.549  0.00  0.00    +0.292 HD
ENDBRANCH  24  30
ENDBRANCH  20  24
ENDBRANCH   2  19
TORSDOF 5
ENDMDL
MODEL 7
REMARK VINA RESULT:      -6.3      4.145      8.938
REMARK  Name = 54728537
REMARK  5 active torsions:
REMARK  status: ('A' for Active; 'I' for Inactive)
REMARK    1  A    between atoms: C_1  and  C_4
REMARK    2  A    between atoms: C_2  and  C_19
REMARK    3  A    between atoms: C_4  and  C_10
REMARK    4  A    between atoms: C_20  and  C_24
REMARK    5  A    between atoms: C_24  and  O_30
REMARK                            x       y       z     vdW  Elec       q    Type
REMARK                         _______ _______ _______ _____ _____    ______ ____
ROOT
ATOM      1  C   UNL     1     -33.726  26.686   3.587  0.00  0.00    -0.028 C 
ATOM      2  C   UNL     1     -34.470  26.292   4.642  0.00  0.00    -0.026 C 
ATOM      3  C   UNL     1     -33.947  26.184   6.051  0.00  0.00    +0.031 C 
ENDROOT
BRANCH   1   4
ATOM      4  C   UNL     1     -32.266  27.080   3.550  0.00  0.00    +0.049 C 
ATOM      5  C   UNL     1     -31.628  26.587   2.250  0.00  0.00    +0.007 C 
BRANCH   4  10
ATOM      6  O   UNL     1     -33.374  29.157   3.229  0.00  0.00    -0.333 OA
ATOM      7  O   UNL     1     -33.307  30.916   4.827  0.00  0.00    -0.326 OA
ATOM      8  O   UNL     1     -29.954  31.812   5.013  0.00  0.00    -0.289 OA
ATOM      9  C   UNL     1     -31.800  29.052   5.112  0.00  0.00    +0.062 C 
ATOM     10  C   UNL     1     -32.129  28.595   3.672  0.00  0.00    +0.125 C 
ATOM     11  C   UNL     1     -32.003  30.568   5.274  0.00  0.00    +0.181 C 
ATOM     12  C   UNL     1     -33.482  30.573   3.444  0.00  0.00    +0.204 C 
ATOM     13  C   UNL     1     -32.486  31.342   2.584  0.00  0.00    +0.009 C 
ATOM     14  C   UNL     1     -30.414  28.607   5.573  0.00  0.00    +0.005 C 
ATOM     15  C   UNL     1     -31.013  31.438   4.514  0.00  0.00    +0.200 C 
ATOM     16  C   UNL     1     -34.933  30.948   3.129  0.00  0.00    +0.066 C 
ATOM     17  C   UNL     1     -31.336  31.793   3.110  0.00  0.00    +0.036 C 
ATOM     18  C   UNL     1     -32.789  31.537   1.126  0.00  0.00    +0.031 C 
ENDBRANCH   4  10
ENDBRANCH   1   4
BRANCH   2  19
ATOM     19  C   UNL     1     -35.879  25.949   4.415  0.00  0.00    -0.001 C 
ATOM     20  C   UNL     1     -36.462  25.693   3.231  0.00  0.00    +0.037 C 
BRANCH  20  24
ATOM     21  O   UNL     1     -40.645  24.415   2.600  0.00  0.00    -0.289 OA
ATOM     22  O   UNL     1     -36.180  22.914   2.696  0.00  0.00    -0.270 OA
ATOM     23  N   UNL     1     -38.269  21.896   2.302  0.00  0.00    -0.294 N 
ATOM     24  C   UNL     1     -37.861  25.357   3.038  0.00  0.00    +0.141 C 
ATOM     25  C   UNL     1     -38.268  24.112   2.751  0.00  0.00    +0.123 C 
ATOM     26  C   UNL     1     -39.668  23.688   2.540  0.00  0.00    +0.200 C 
ATOM     27  C   UNL     1     -39.689  22.214   2.240  0.00  0.00    +0.160 C 
ATOM     28  C   UNL     1     -37.392  22.939   2.591  0.00  0.00    +0.252 C 
ATOM     29  H   UNL     1     -37.940  20.981   2.146  0.00  0.00    +0.150 HD
BRANCH  24  30
ATOM     30  O   UNL     1     -38.757  26.400   3.170  0.00  0.00    -0.505 OA
ATOM     31  H   UNL     1     -39.029  26.679   4.023  0.00  0.00    +0.292 HD
ENDBRANCH  24  30
ENDBRANCH  20  24
ENDBRANCH   2  19
TORSDOF 5
ENDMDL
MODEL 8
REMARK VINA RESULT:      -6.3      6.971      8.716
REMARK  Name = 54728537
REMARK  5 active torsions:
REMARK  status: ('A' for Active; 'I' for Inactive)
REMARK    1  A    between atoms: C_1  and  C_4
REMARK    2  A    between atoms: C_2  and  C_19
REMARK    3  A    between atoms: C_4  and  C_10
REMARK    4  A    between atoms: C_20  and  C_24
REMARK    5  A    between atoms: C_24  and  O_30
REMARK                            x       y       z     vdW  Elec       q    Type
REMARK                         _______ _______ _______ _____ _____    ______ ____
ROOT
ATOM      1  C   UNL     1     -39.573  26.262   2.332  0.00  0.00    -0.028 C 
ATOM      2  C   UNL     1     -40.905  26.072   2.441  0.00  0.00    -0.026 C 
ATOM      3  C   UNL     1     -41.714  25.204   1.513  0.00  0.00    +0.031 C 
ENDROOT
BRANCH   1   4
ATOM      4  C   UNL     1     -38.615  25.698   1.306  0.00  0.00    +0.049 C 
ATOM      5  C   UNL     1     -37.984  26.837   0.503  0.00  0.00    +0.007 C 
BRANCH   4  10
ATOM      6  O   UNL     1     -37.126  25.610   3.155  0.00  0.00    -0.333 OA
ATOM      7  O   UNL     1     -36.812  23.653   4.467  0.00  0.00    -0.326 OA
ATOM      8  O   UNL     1     -35.495  21.312   2.261  0.00  0.00    -0.289 OA
ATOM      9  C   UNL     1     -38.029  23.457   2.393  0.00  0.00    +0.062 C 
ATOM     10  C   UNL     1     -37.536  24.868   1.996  0.00  0.00    +0.125 C 
ATOM     11  C   UNL     1     -37.053  22.781   3.370  0.00  0.00    +0.181 C 
ATOM     12  C   UNL     1     -36.236  24.890   4.022  0.00  0.00    +0.204 C 
ATOM     13  C   UNL     1     -34.895  24.629   3.346  0.00  0.00    +0.009 C 
ATOM     14  C   UNL     1     -38.332  22.574   1.184  0.00  0.00    +0.005 C 
ATOM     15  C   UNL     1     -35.702  22.407   2.780  0.00  0.00    +0.200 C 
ATOM     16  C   UNL     1     -36.092  25.734   5.291  0.00  0.00    +0.066 C 
ATOM     17  C   UNL     1     -34.627  23.431   2.799  0.00  0.00    +0.036 C 
ATOM     18  C   UNL     1     -33.901  25.751   3.252  0.00  0.00    +0.031 C 
ENDBRANCH   4  10
ENDBRANCH   1   4
BRANCH   2  19
ATOM     19  C   UNL     1     -41.620  26.747   3.531  0.00  0.00    -0.001 C 
ATOM     20  C   UNL     1     -42.562  27.697   3.406  0.00  0.00    +0.037 C 
BRANCH  20  24
ATOM     21  O   UNL     1     -44.867  29.507   6.714  0.00  0.00    -0.289 OA
ATOM     22  O   UNL     1     -44.958  26.165   3.394  0.00  0.00    -0.270 OA
ATOM     23  N   UNL     1     -46.448  26.882   5.073  0.00  0.00    -0.294 N 
ATOM     24  C   UNL     1     -43.252  28.348   4.506  0.00  0.00    +0.141 C 
ATOM     25  C   UNL     1     -44.474  27.972   4.910  0.00  0.00    +0.123 C 
ATOM     26  C   UNL     1     -45.242  28.579   6.017  0.00  0.00    +0.200 C 
ATOM     27  C   UNL     1     -46.561  27.866   6.141  0.00  0.00    +0.160 C 
ATOM     28  C   UNL     1     -45.275  26.884   4.323  0.00  0.00    +0.252 C 
ATOM     29  H   UNL     1     -47.172  26.241   4.888  0.00  0.00    +0.150 HD
BRANCH  24  30
ATOM     30  O   UNL     1     -42.572  29.382   5.118  0.00  0.00    -0.505 OA
ATOM     31  H   UNL     1     -42.678  30.261   4.809  0.00  0.00    +0.292 HD
ENDBRANCH  24  30
ENDBRANCH  20  24
ENDBRANCH   2  19
TORSDOF 5
ENDMDL
MODEL 9
REMARK VINA RESULT:      -6.3      3.383      8.230
REMARK  Name = 54728537
REMARK  5 active torsions:
REMARK  status: ('A' for Active; 'I' for Inactive)
REMARK    1  A    between atoms: C_1  and  C_4
REMARK    2  A    between atoms: C_2  and  C_19
REMARK    3  A    between atoms: C_4  and  C_10
REMARK    4  A    between atoms: C_20  and  C_24
REMARK    5  A    between atoms: C_24  and  O_30
REMARK                            x       y       z     vdW  Elec       q    Type
REMARK                         _______ _______ _______ _____ _____    ______ ____
ROOT
ATOM      1  C   UNL     1     -34.057  22.956   0.321  0.00  0.00    -0.028 C 
ATOM      2  C   UNL     1     -32.886  22.570  -0.227  0.00  0.00    -0.026 C 
ATOM      3  C   UNL     1     -31.863  23.521  -0.792  0.00  0.00    +0.031 C 
ENDROOT
BRANCH   1   4
ATOM      4  C   UNL     1     -34.613  24.353   0.485  0.00  0.00    +0.049 C 
ATOM      5  C   UNL     1     -35.356  24.768  -0.787  0.00  0.00    +0.007 C 
BRANCH   4  10
ATOM      6  O   UNL     1     -36.590  23.452   1.448  0.00  0.00    -0.333 OA
ATOM      7  O   UNL     1     -36.741  22.828   3.737  0.00  0.00    -0.326 OA
ATOM      8  O   UNL     1     -36.269  25.790   5.492  0.00  0.00    -0.289 OA
ATOM      9  C   UNL     1     -34.821  24.104   3.022  0.00  0.00    +0.062 C 
ATOM     10  C   UNL     1     -35.547  24.409   1.691  0.00  0.00    +0.125 C 
ATOM     11  C   UNL     1     -35.827  23.834   4.154  0.00  0.00    +0.181 C 
ATOM     12  C   UNL     1     -37.463  23.246   2.569  0.00  0.00    +0.204 C 
ATOM     13  C   UNL     1     -38.275  24.499   2.876  0.00  0.00    +0.009 C 
ATOM     14  C   UNL     1     -33.806  25.180   3.403  0.00  0.00    +0.005 C 
ATOM     15  C   UNL     1     -36.644  25.039   4.595  0.00  0.00    +0.200 C 
ATOM     16  C   UNL     1     -38.352  22.052   2.210  0.00  0.00    +0.066 C 
ATOM     17  C   UNL     1     -37.909  25.323   3.872  0.00  0.00    +0.036 C 
ATOM     18  C   UNL     1     -39.458  24.826   2.010  0.00  0.00    +0.031 C 
ENDBRANCH   4  10
ENDBRANCH   1   4
BRANCH   2  19
ATOM     19  C   UNL     1     -32.576  21.137  -0.278  0.00  0.00    -0.001 C 
ATOM     20  C   UNL     1     -32.906  20.211   0.640  0.00  0.00    +0.037 C 
BRANCH  20  24
ATOM     21  O   UNL     1     -32.185  15.861   0.342  0.00  0.00    -0.289 OA
ATOM     22  O   UNL     1     -35.486  19.204  -0.006  0.00  0.00    -0.270 OA
ATOM     23  N   UNL     1     -35.462  16.859  -0.242  0.00  0.00    -0.294 N 
ATOM     24  C   UNL     1     -32.584  18.797   0.562  0.00  0.00    +0.141 C 
ATOM     25  C   UNL     1     -33.504  17.866   0.272  0.00  0.00    +0.123 C 
ATOM     26  C   UNL     1     -33.259  16.412   0.173  0.00  0.00    +0.200 C 
ATOM     27  C   UNL     1     -34.552  15.724  -0.169  0.00  0.00    +0.160 C 
ATOM     28  C   UNL     1     -34.928  18.123   0.000  0.00  0.00    +0.252 C 
ATOM     29  H   UNL     1     -36.417  16.740  -0.454  0.00  0.00    +0.150 HD
BRANCH  24  30
ATOM     30  O   UNL     1     -31.265  18.464   0.803  0.00  0.00    -0.505 OA
ATOM     31  H   UNL     1     -30.576  18.986   0.441  0.00  0.00    +0.292 HD
ENDBRANCH  24  30
ENDBRANCH  20  24
ENDBRANCH   2  19
TORSDOF 5
ENDMDL
