MODEL 1
REMARK VINA RESULT:      -5.9      0.000      0.000
REMARK  Name = 60381
REMARK  6 active torsions:
REMARK  status: ('A' for Active; 'I' for Inactive)
REMARK    1  A    between atoms: C_2  and  C_18
REMARK    2  A    between atoms: C_3  and  O_27
REMARK    3  A    between atoms: C_4  and  N_6
REMARK    4  A    between atoms: C_5  and  C_29
REMARK    5  A    between atoms: C_23  and  N_26
REMARK    6  A    between atoms: C_29  and  O_30
REMARK                            x       y       z     vdW  Elec       q    Type
REMARK                         _______ _______ _______ _____ _____    ______ ____
ROOT
ATOM      1  O   UNL     1     -35.706  20.949   2.854  0.00  0.00    -0.335 OA
ATOM      2  C   UNL     1     -37.786  22.040   2.329  0.00  0.00    +0.099 C 
ATOM      3  C   UNL     1     -37.345  21.152   1.169  0.00  0.00    +0.148 C 
ATOM      4  C   UNL     1     -36.507  22.101   3.193  0.00  0.00    +0.201 C 
ATOM      5  C   UNL     1     -36.414  20.175   1.875  0.00  0.00    +0.173 C 
ENDROOT
BRANCH   4   6
ATOM      6  N   UNL     1     -35.673  23.295   3.054  0.00  0.00    -0.249 N 
ATOM      7  N   UNL     1     -34.199  24.717   2.174  0.00  0.00    -0.242 NA
ATOM      8  N   UNL     1     -36.272  24.510   5.070  0.00  0.00    -0.228 NA
ATOM      9  N   UNL     1     -35.064  26.625   5.223  0.00  0.00    -0.229 NA
ATOM     10  C   UNL     1     -35.601  24.349   3.920  0.00  0.00    +0.152 C 
ATOM     11  C   UNL     1     -34.812  23.562   2.022  0.00  0.00    +0.223 C 
ATOM     12  C   UNL     1     -34.682  25.220   3.357  0.00  0.00    +0.140 C 
ATOM     13  C   UNL     1     -34.421  26.396   4.053  0.00  0.00    +0.143 C 
ATOM     14  C   UNL     1     -35.937  25.682   5.653  0.00  0.00    +0.253 C 
ATOM     15  N   UNL     1     -33.504  27.336   3.553  0.00  0.00    -0.342 N 
ATOM     16  H   UNL     1     -33.327  28.166   4.056  0.00  0.00    +0.144 HD
ATOM     17  H   UNL     1     -33.039  27.167   2.703  0.00  0.00    +0.144 HD
ENDBRANCH   4   6
BRANCH   2  18
ATOM     18  C   UNL     1     -38.443  23.369   2.028  0.00  0.00    -0.016 C 
ATOM     19  C   UNL     1     -39.220  24.001   3.000  0.00  0.00    -0.002 C 
ATOM     20  C   UNL     1     -38.273  23.965   0.777  0.00  0.00    -0.002 C 
ATOM     21  C   UNL     1     -39.825  25.227   2.722  0.00  0.00    +0.024 C 
ATOM     22  C   UNL     1     -38.879  25.190   0.499  0.00  0.00    +0.024 C 
ATOM     23  C   UNL     1     -39.655  25.821   1.471  0.00  0.00    +0.143 C 
BRANCH  23  26
ATOM     24  O   UNL     1     -41.348  27.359   1.762  0.00  0.00    -0.126 OA
ATOM     25  O   UNL     1     -39.719  27.848   0.375  0.00  0.00    -0.126 OA
ATOM     26  N   UNL     1     -40.270  27.068   1.189  0.00  0.00    +0.058 N 
ENDBRANCH  23  26
ENDBRANCH   2  18
BRANCH   3  27
ATOM     27  O   UNL     1     -38.450  20.486   0.583  0.00  0.00    -0.381 OA
ATOM     28  H   UNL     1     -38.132  19.863  -0.090  0.00  0.00    +0.210 HD
ENDBRANCH   3  27
BRANCH   5  29
ATOM     29  C   UNL     1     -35.422  19.499   0.945  0.00  0.00    +0.169 C 
BRANCH  29  30
ATOM     30  O   UNL     1     -36.036  18.358   0.371  0.00  0.00    -0.379 OA
ATOM     31  H   UNL     1     -36.105  17.657   1.038  0.00  0.00    +0.211 HD
ENDBRANCH  29  30
ENDBRANCH   5  29
TORSDOF 6
ENDMDL
MODEL 2
REMARK VINA RESULT:      -5.8      2.690      5.446
REMARK  Name = 60381
REMARK  6 active torsions:
REMARK  status: ('A' for Active; 'I' for Inactive)
REMARK    1  A    between atoms: C_2  and  C_18
REMARK    2  A    between atoms: C_3  and  O_27
REMARK    3  A    between atoms: C_4  and  N_6
REMARK    4  A    between atoms: C_5  and  C_29
REMARK    5  A    between atoms: C_23  and  N_26
REMARK    6  A    between atoms: C_29  and  O_30
REMARK                            x       y       z     vdW  Elec       q    Type
REMARK                         _______ _______ _______ _____ _____    ______ ____
ROOT
ATOM      1  O   UNL     1     -33.861  27.424   2.607  0.00  0.00    -0.335 OA
ATOM      2  C   UNL     1     -35.865  26.910   1.377  0.00  0.00    +0.099 C 
ATOM      3  C   UNL     1     -35.928  28.334   1.924  0.00  0.00    +0.148 C 
ATOM      4  C   UNL     1     -34.671  26.317   2.158  0.00  0.00    +0.201 C 
ATOM      5  C   UNL     1     -34.451  28.642   2.131  0.00  0.00    +0.173 C 
ENDROOT
BRANCH   4   6
ATOM      6  N   UNL     1     -34.990  25.483   3.317  0.00  0.00    -0.249 N 
ATOM      7  N   UNL     1     -35.462  24.940   5.427  0.00  0.00    -0.242 NA
ATOM      8  N   UNL     1     -35.032  23.279   2.299  0.00  0.00    -0.228 NA
ATOM      9  N   UNL     1     -35.545  21.551   3.945  0.00  0.00    -0.229 NA
ATOM     10  C   UNL     1     -35.142  24.126   3.333  0.00  0.00    +0.152 C 
ATOM     11  C   UNL     1     -35.191  25.926   4.598  0.00  0.00    +0.223 C 
ATOM     12  C   UNL     1     -35.435  23.809   4.650  0.00  0.00    +0.140 C 
ATOM     13  C   UNL     1     -35.641  22.464   4.942  0.00  0.00    +0.143 C 
ATOM     14  C   UNL     1     -35.251  22.009   2.703  0.00  0.00    +0.253 C 
ATOM     15  N   UNL     1     -35.943  22.053   6.251  0.00  0.00    -0.342 N 
ATOM     16  H   UNL     1     -36.087  21.097   6.446  0.00  0.00    +0.144 HD
ATOM     17  H   UNL     1     -36.013  22.719   6.972  0.00  0.00    +0.144 HD
ENDBRANCH   4   6
BRANCH   2  18
ATOM     18  C   UNL     1     -37.125  26.073   1.361  0.00  0.00    -0.016 C 
ATOM     19  C   UNL     1     -38.124  26.296   2.309  0.00  0.00    -0.002 C 
ATOM     20  C   UNL     1     -37.290  25.078   0.396  0.00  0.00    -0.002 C 
ATOM     21  C   UNL     1     -39.286  25.525   2.292  0.00  0.00    +0.024 C 
ATOM     22  C   UNL     1     -38.452  24.306   0.380  0.00  0.00    +0.024 C 
ATOM     23  C   UNL     1     -39.450  24.530   1.329  0.00  0.00    +0.143 C 
BRANCH  23  26
ATOM     24  O   UNL     1     -40.539  22.500   1.436  0.00  0.00    -0.126 OA
ATOM     25  O   UNL     1     -41.740  24.318   1.175  0.00  0.00    -0.126 OA
ATOM     26  N   UNL     1     -40.633  23.745   1.312  0.00  0.00    +0.058 N 
ENDBRANCH  23  26
ENDBRANCH   2  18
BRANCH   3  27
ATOM     27  O   UNL     1     -36.517  29.218   0.988  0.00  0.00    -0.381 OA
ATOM     28  H   UNL     1     -36.308  30.134   1.232  0.00  0.00    +0.210 HD
ENDBRANCH   3  27
BRANCH   5  29
ATOM     29  C   UNL     1     -34.196  29.756   3.131  0.00  0.00    +0.169 C 
BRANCH  29  30
ATOM     30  O   UNL     1     -35.434  30.355   3.476  0.00  0.00    -0.379 OA
ATOM     31  H   UNL     1     -35.326  30.880   4.284  0.00  0.00    +0.211 HD
ENDBRANCH  29  30
ENDBRANCH   5  29
TORSDOF 6
ENDMDL
MODEL 3
REMARK VINA RESULT:      -5.8      2.549      5.027
REMARK  Name = 60381
REMARK  6 active torsions:
REMARK  status: ('A' for Active; 'I' for Inactive)
REMARK    1  A    between atoms: C_2  and  C_18
REMARK    2  A    between atoms: C_3  and  O_27
REMARK    3  A    between atoms: C_4  and  N_6
REMARK    4  A    between atoms: C_5  and  C_29
REMARK    5  A    between atoms: C_23  and  N_26
REMARK    6  A    between atoms: C_29  and  O_30
REMARK                            x       y       z     vdW  Elec       q    Type
REMARK                         _______ _______ _______ _____ _____    ______ ____
ROOT
ATOM      1  O   UNL     1     -37.350  21.919   0.202  0.00  0.00    -0.335 OA
ATOM      2  C   UNL     1     -35.433  23.053   1.111  0.00  0.00    +0.099 C 
ATOM      3  C   UNL     1     -35.400  21.574   1.483  0.00  0.00    +0.148 C 
ATOM      4  C   UNL     1     -36.879  23.225   0.597  0.00  0.00    +0.201 C 
ATOM      5  C   UNL     1     -36.292  20.972   0.405  0.00  0.00    +0.173 C 
ENDROOT
BRANCH   4   6
ATOM      6  N   UNL     1     -37.848  23.798   1.532  0.00  0.00    -0.249 N 
ATOM      7  N   UNL     1     -39.124  24.000   3.348  0.00  0.00    -0.242 NA
ATOM      8  N   UNL     1     -38.470  25.831   0.357  0.00  0.00    -0.228 NA
ATOM      9  N   UNL     1     -40.119  27.115   1.619  0.00  0.00    -0.229 NA
ATOM     10  C   UNL     1     -38.536  24.969   1.382  0.00  0.00    +0.152 C 
ATOM     11  C   UNL     1     -38.236  23.253   2.727  0.00  0.00    +0.223 C 
ATOM     12  C   UNL     1     -39.321  25.076   2.519  0.00  0.00    +0.140 C 
ATOM     13  C   UNL     1     -40.134  26.200   2.619  0.00  0.00    +0.143 C 
ATOM     14  C   UNL     1     -39.299  26.877   0.566  0.00  0.00    +0.253 C 
ATOM     15  N   UNL     1     -40.962  26.390   3.738  0.00  0.00    -0.342 N 
ATOM     16  H   UNL     1     -41.533  27.191   3.797  0.00  0.00    +0.144 HD
ATOM     17  H   UNL     1     -40.970  25.724   4.463  0.00  0.00    +0.144 HD
ENDBRANCH   4   6
BRANCH   2  18
ATOM     18  C   UNL     1     -34.966  24.076   2.124  0.00  0.00    -0.016 C 
ATOM     19  C   UNL     1     -34.856  23.726   3.471  0.00  0.00    -0.002 C 
ATOM     20  C   UNL     1     -34.645  25.371   1.713  0.00  0.00    -0.002 C 
ATOM     21  C   UNL     1     -34.424  24.668   4.404  0.00  0.00    +0.024 C 
ATOM     22  C   UNL     1     -34.214  26.314   2.647  0.00  0.00    +0.024 C 
ATOM     23  C   UNL     1     -34.105  25.962   3.992  0.00  0.00    +0.143 C 
BRANCH  23  26
ATOM     24  O   UNL     1     -33.708  26.632   6.163  0.00  0.00    -0.126 OA
ATOM     25  O   UNL     1     -33.244  28.031   4.536  0.00  0.00    -0.126 OA
ATOM     26  N   UNL     1     -33.665  26.921   4.942  0.00  0.00    +0.058 N 
ENDBRANCH  23  26
ENDBRANCH   2  18
BRANCH   3  27
ATOM     27  O   UNL     1     -34.083  21.056   1.417  0.00  0.00    -0.381 OA
ATOM     28  H   UNL     1     -33.448  21.790   1.393  0.00  0.00    +0.210 HD
ENDBRANCH   3  27
BRANCH   5  29
ATOM     29  C   UNL     1     -36.879  19.624   0.783  0.00  0.00    +0.169 C 
BRANCH  29  30
ATOM     30  O   UNL     1     -36.796  19.466   2.189  0.00  0.00    -0.379 OA
ATOM     31  H   UNL     1     -37.379  20.109   2.622  0.00  0.00    +0.211 HD
ENDBRANCH  29  30
ENDBRANCH   5  29
TORSDOF 6
ENDMDL
MODEL 4
REMARK VINA RESULT:      -5.7      3.117      5.716
REMARK  Name = 60381
REMARK  6 active torsions:
REMARK  status: ('A' for Active; 'I' for Inactive)
REMARK    1  A    between atoms: C_2  and  C_18
REMARK    2  A    between atoms: C_3  and  O_27
REMARK    3  A    between atoms: C_4  and  N_6
REMARK    4  A    between atoms: C_5  and  C_29
REMARK    5  A    between atoms: C_23  and  N_26
REMARK    6  A    between atoms: C_29  and  O_30
REMARK                            x       y       z     vdW  Elec       q    Type
REMARK                         _______ _______ _______ _____ _____    ______ ____
ROOT
ATOM      1  O   UNL     1     -35.175  24.674   3.054  0.00  0.00    -0.335 OA
ATOM      2  C   UNL     1     -37.302  24.350   1.977  0.00  0.00    +0.099 C 
ATOM      3  C   UNL     1     -37.502  24.745   3.438  0.00  0.00    +0.148 C 
ATOM      4  C   UNL     1     -35.798  24.002   1.940  0.00  0.00    +0.201 C 
ATOM      5  C   UNL     1     -36.178  25.431   3.747  0.00  0.00    +0.173 C 
ENDROOT
BRANCH   4   6
ATOM      6  N   UNL     1     -35.447  22.583   2.007  0.00  0.00    -0.249 N 
ATOM      7  N   UNL     1     -35.169  20.543   2.862  0.00  0.00    -0.242 NA
ATOM      8  N   UNL     1     -34.666  22.196  -0.260  0.00  0.00    -0.228 NA
ATOM      9  N   UNL     1     -33.966  19.878  -0.573  0.00  0.00    -0.229 NA
ATOM     10  C   UNL     1     -34.943  21.815   0.996  0.00  0.00    +0.152 C 
ATOM     11  C   UNL     1     -35.564  21.775   3.107  0.00  0.00    +0.223 C 
ATOM     12  C   UNL     1     -34.778  20.554   1.546  0.00  0.00    +0.140 C 
ATOM     13  C   UNL     1     -34.270  19.565   0.710  0.00  0.00    +0.143 C 
ATOM     14  C   UNL     1     -34.181  21.155  -0.973  0.00  0.00    +0.253 C 
ATOM     15  N   UNL     1     -34.071  18.257   1.185  0.00  0.00    -0.342 N 
ATOM     16  H   UNL     1     -33.710  17.565   0.583  0.00  0.00    +0.144 HD
ATOM     17  H   UNL     1     -34.293  18.033   2.117  0.00  0.00    +0.144 HD
ENDBRANCH   4   6
BRANCH   2  18
ATOM     18  C   UNL     1     -38.232  23.329   1.359  0.00  0.00    -0.016 C 
ATOM     19  C   UNL     1     -38.992  22.490   2.176  0.00  0.00    -0.002 C 
ATOM     20  C   UNL     1     -38.333  23.226  -0.030  0.00  0.00    -0.002 C 
ATOM     21  C   UNL     1     -39.850  21.550   1.605  0.00  0.00    +0.024 C 
ATOM     22  C   UNL     1     -39.190  22.285  -0.600  0.00  0.00    +0.024 C 
ATOM     23  C   UNL     1     -39.948  21.447   0.218  0.00  0.00    +0.143 C 
BRANCH  23  26
ATOM     24  O   UNL     1     -40.341  19.595  -1.099  0.00  0.00    -0.126 OA
ATOM     25  O   UNL     1     -42.051  20.564  -0.122  0.00  0.00    -0.126 OA
ATOM     26  N   UNL     1     -40.822  20.490  -0.362  0.00  0.00    +0.058 N 
ENDBRANCH  23  26
ENDBRANCH   2  18
BRANCH   3  27
ATOM     27  O   UNL     1     -38.595  25.634   3.585  0.00  0.00    -0.381 OA
ATOM     28  H   UNL     1     -38.927  25.590   4.496  0.00  0.00    +0.210 HD
ENDBRANCH   3  27
BRANCH   5  29
ATOM     29  C   UNL     1     -35.848  25.478   5.229  0.00  0.00    +0.169 C 
BRANCH  29  30
ATOM     30  O   UNL     1     -36.578  26.536   5.828  0.00  0.00    -0.379 OA
ATOM     31  H   UNL     1     -37.528  26.387   5.701  0.00  0.00    +0.211 HD
ENDBRANCH  29  30
ENDBRANCH   5  29
TORSDOF 6
ENDMDL
MODEL 5
REMARK VINA RESULT:      -5.7      2.739      5.781
REMARK  Name = 60381
REMARK  6 active torsions:
REMARK  status: ('A' for Active; 'I' for Inactive)
REMARK    1  A    between atoms: C_2  and  C_18
REMARK    2  A    between atoms: C_3  and  O_27
REMARK    3  A    between atoms: C_4  and  N_6
REMARK    4  A    between atoms: C_5  and  C_29
REMARK    5  A    between atoms: C_23  and  N_26
REMARK    6  A    between atoms: C_29  and  O_30
REMARK                            x       y       z     vdW  Elec       q    Type
REMARK                         _______ _______ _______ _____ _____    ______ ____
ROOT
ATOM      1  O   UNL     1     -39.650  23.518   1.809  0.00  0.00    -0.335 OA
ATOM      2  C   UNL     1     -38.419  24.795   3.436  0.00  0.00    +0.099 C 
ATOM      3  C   UNL     1     -39.362  25.703   2.651  0.00  0.00    +0.148 C 
ATOM      4  C   UNL     1     -38.435  23.503   2.588  0.00  0.00    +0.201 C 
ATOM      5  C   UNL     1     -40.390  24.701   2.142  0.00  0.00    +0.173 C 
ENDROOT
BRANCH   4   6
ATOM      6  N   UNL     1     -37.309  23.298   1.677  0.00  0.00    -0.249 N 
ATOM      7  N   UNL     1     -35.931  23.635  -0.042  0.00  0.00    -0.242 NA
ATOM      8  N   UNL     1     -36.276  21.332   2.661  0.00  0.00    -0.228 NA
ATOM      9  N   UNL     1     -34.302  20.644   1.401  0.00  0.00    -0.229 NA
ATOM     10  C   UNL     1     -36.366  22.312   1.749  0.00  0.00    +0.152 C 
ATOM     11  C   UNL     1     -37.005  24.067   0.585  0.00  0.00    +0.223 C 
ATOM     12  C   UNL     1     -35.522  22.539   0.674  0.00  0.00    +0.140 C 
ATOM     13  C   UNL     1     -34.456  21.659   0.516  0.00  0.00    +0.143 C 
ATOM     14  C   UNL     1     -35.208  20.546   2.404  0.00  0.00    +0.253 C 
ATOM     15  N   UNL     1     -33.549  21.815  -0.546  0.00  0.00    -0.342 N 
ATOM     16  H   UNL     1     -32.797  21.185  -0.648  0.00  0.00    +0.144 HD
ATOM     17  H   UNL     1     -33.663  22.553  -1.187  0.00  0.00    +0.144 HD
ENDBRANCH   4   6
BRANCH   2  18
ATOM     18  C   UNL     1     -37.052  25.314   3.823  0.00  0.00    -0.016 C 
ATOM     19  C   UNL     1     -36.484  26.378   3.120  0.00  0.00    -0.002 C 
ATOM     20  C   UNL     1     -36.357  24.731   4.884  0.00  0.00    -0.002 C 
ATOM     21  C   UNL     1     -35.224  26.857   3.478  0.00  0.00    +0.024 C 
ATOM     22  C   UNL     1     -35.097  25.210   5.241  0.00  0.00    +0.024 C 
ATOM     23  C   UNL     1     -34.530  26.273   4.538  0.00  0.00    +0.143 C 
BRANCH  23  26
ATOM     24  O   UNL     1     -33.023  27.041   6.105  0.00  0.00    -0.126 OA
ATOM     25  O   UNL     1     -32.374  26.898   4.013  0.00  0.00    -0.126 OA
ATOM     26  N   UNL     1     -33.248  26.761   4.902  0.00  0.00    +0.058 N 
ENDBRANCH  23  26
ENDBRANCH   2  18
BRANCH   3  27
ATOM     27  O   UNL     1     -39.956  26.676   3.491  0.00  0.00    -0.381 OA
ATOM     28  H   UNL     1     -39.640  26.555   4.401  0.00  0.00    +0.210 HD
ENDBRANCH   3  27
BRANCH   5  29
ATOM     29  C   UNL     1     -41.156  25.182   0.922  0.00  0.00    +0.169 C 
BRANCH  29  30
ATOM     30  O   UNL     1     -41.175  26.600   0.922  0.00  0.00    -0.379 OA
ATOM     31  H   UNL     1     -40.892  26.927   0.055  0.00  0.00    +0.211 HD
ENDBRANCH  29  30
ENDBRANCH   5  29
TORSDOF 6
ENDMDL
MODEL 6
REMARK VINA RESULT:      -5.5      3.400      5.545
REMARK  Name = 60381
REMARK  6 active torsions:
REMARK  status: ('A' for Active; 'I' for Inactive)
REMARK    1  A    between atoms: C_2  and  C_18
REMARK    2  A    between atoms: C_3  and  O_27
REMARK    3  A    between atoms: C_4  and  N_6
REMARK    4  A    between atoms: C_5  and  C_29
REMARK    5  A    between atoms: C_23  and  N_26
REMARK    6  A    between atoms: C_29  and  O_30
REMARK                            x       y       z     vdW  Elec       q    Type
REMARK                         _______ _______ _______ _____ _____    ______ ____
ROOT
ATOM      1  O   UNL     1     -37.676  23.471   0.776  0.00  0.00    -0.335 OA
ATOM      2  C   UNL     1     -35.913  23.714   2.396  0.00  0.00    +0.099 C 
ATOM      3  C   UNL     1     -37.135  23.060   3.035  0.00  0.00    +0.148 C 
ATOM      4  C   UNL     1     -36.490  24.241   1.063  0.00  0.00    +0.201 C 
ATOM      5  C   UNL     1     -37.848  22.495   1.814  0.00  0.00    +0.173 C 
ENDROOT
BRANCH   4   6
ATOM      6  N   UNL     1     -36.841  25.660   1.011  0.00  0.00    -0.249 N 
ATOM      7  N   UNL     1     -37.951  27.549   1.421  0.00  0.00    -0.242 NA
ATOM      8  N   UNL     1     -35.113  26.506  -0.473  0.00  0.00    -0.228 NA
ATOM      9  N   UNL     1     -35.349  28.908  -0.830  0.00  0.00    -0.229 NA
ATOM     10  C   UNL     1     -36.195  26.638   0.309  0.00  0.00    +0.152 C 
ATOM     11  C   UNL     1     -37.889  26.256   1.661  0.00  0.00    +0.223 C 
ATOM     12  C   UNL     1     -36.899  27.802   0.577  0.00  0.00    +0.140 C 
ATOM     13  C   UNL     1     -36.439  28.968  -0.026  0.00  0.00    +0.143 C 
ATOM     14  C   UNL     1     -34.762  27.699  -1.000  0.00  0.00    +0.253 C 
ATOM     15  N   UNL     1     -37.091  30.193   0.192  0.00  0.00    -0.342 N 
ATOM     16  H   UNL     1     -36.756  31.013  -0.241  0.00  0.00    +0.144 HD
ATOM     17  H   UNL     1     -37.882  30.233   0.776  0.00  0.00    +0.144 HD
ENDBRANCH   4   6
BRANCH   2  18
ATOM     18  C   UNL     1     -35.104  24.705   3.203  0.00  0.00    -0.016 C 
ATOM     19  C   UNL     1     -33.903  25.205   2.697  0.00  0.00    -0.002 C 
ATOM     20  C   UNL     1     -35.558  25.123   4.455  0.00  0.00    -0.002 C 
ATOM     21  C   UNL     1     -33.158  26.120   3.441  0.00  0.00    +0.024 C 
ATOM     22  C   UNL     1     -34.813  26.038   5.200  0.00  0.00    +0.024 C 
ATOM     23  C   UNL     1     -33.613  26.535   4.692  0.00  0.00    +0.143 C 
BRANCH  23  26
ATOM     24  O   UNL     1     -32.387  27.112   6.558  0.00  0.00    -0.126 OA
ATOM     25  O   UNL     1     -32.671  28.619   4.988  0.00  0.00    -0.126 OA
ATOM     26  N   UNL     1     -32.855  27.467   5.449  0.00  0.00    +0.058 N 
ENDBRANCH  23  26
ENDBRANCH   2  18
BRANCH   3  27
ATOM     27  O   UNL     1     -36.757  22.036   3.937  0.00  0.00    -0.381 OA
ATOM     28  H   UNL     1     -36.583  21.218   3.443  0.00  0.00    +0.210 HD
ENDBRANCH   3  27
BRANCH   5  29
ATOM     29  C   UNL     1     -39.329  22.242   2.036  0.00  0.00    +0.169 C 
BRANCH  29  30
ATOM     30  O   UNL     1     -39.529  20.856   2.254  0.00  0.00    -0.379 OA
ATOM     31  H   UNL     1     -40.173  20.730   2.968  0.00  0.00    +0.211 HD
ENDBRANCH  29  30
ENDBRANCH   5  29
TORSDOF 6
ENDMDL
MODEL 7
REMARK VINA RESULT:      -5.4      2.775      5.413
REMARK  Name = 60381
REMARK  6 active torsions:
REMARK  status: ('A' for Active; 'I' for Inactive)
REMARK    1  A    between atoms: C_2  and  C_18
REMARK    2  A    between atoms: C_3  and  O_27
REMARK    3  A    between atoms: C_4  and  N_6
REMARK    4  A    between atoms: C_5  and  C_29
REMARK    5  A    between atoms: C_23  and  N_26
REMARK    6  A    between atoms: C_29  and  O_30
REMARK                            x       y       z     vdW  Elec       q    Type
REMARK                         _______ _______ _______ _____ _____    ______ ____
ROOT
ATOM      1  O   UNL     1     -35.960  26.691   3.969  0.00  0.00    -0.335 OA
ATOM      2  C   UNL     1     -37.353  24.729   3.915  0.00  0.00    +0.099 C 
ATOM      3  C   UNL     1     -35.991  24.397   4.518  0.00  0.00    +0.148 C 
ATOM      4  C   UNL     1     -37.098  26.120   3.291  0.00  0.00    +0.201 C 
ATOM      5  C   UNL     1     -35.522  25.771   4.979  0.00  0.00    +0.173 C 
ENDROOT
BRANCH   4   6
ATOM      6  N   UNL     1     -36.842  26.160   1.851  0.00  0.00    -0.249 N 
ATOM      7  N   UNL     1     -35.768  25.887  -0.084  0.00  0.00    -0.242 NA
ATOM      8  N   UNL     1     -38.897  27.175   1.047  0.00  0.00    -0.228 NA
ATOM      9  N   UNL     1     -38.872  27.426  -1.380  0.00  0.00    -0.229 NA
ATOM     10  C   UNL     1     -37.678  26.642   0.883  0.00  0.00    +0.152 C 
ATOM     11  C   UNL     1     -35.709  25.718   1.221  0.00  0.00    +0.223 C 
ATOM     12  C   UNL     1     -36.994  26.463  -0.308  0.00  0.00    +0.140 C 
ATOM     13  C   UNL     1     -37.636  26.878  -1.471  0.00  0.00    +0.143 C 
ATOM     14  C   UNL     1     -39.418  27.538  -0.145  0.00  0.00    +0.253 C 
ATOM     15  N   UNL     1     -37.017  26.733  -2.723  0.00  0.00    -0.342 N 
ATOM     16  H   UNL     1     -37.481  27.031  -3.540  0.00  0.00    +0.144 HD
ATOM     17  H   UNL     1     -36.119  26.334  -2.786  0.00  0.00    +0.144 HD
ENDBRANCH   4   6
BRANCH   2  18
ATOM     18  C   UNL     1     -38.025  23.715   3.016  0.00  0.00    -0.016 C 
ATOM     19  C   UNL     1     -37.308  22.616   2.542  0.00  0.00    -0.002 C 
ATOM     20  C   UNL     1     -39.366  23.877   2.660  0.00  0.00    -0.002 C 
ATOM     21  C   UNL     1     -37.929  21.681   1.715  0.00  0.00    +0.024 C 
ATOM     22  C   UNL     1     -39.987  22.942   1.832  0.00  0.00    +0.024 C 
ATOM     23  C   UNL     1     -39.267  21.844   1.359  0.00  0.00    +0.143 C 
BRANCH  23  26
ATOM     24  O   UNL     1     -39.195  20.029  -0.061  0.00  0.00    -0.126 OA
ATOM     25  O   UNL     1     -41.145  20.937   0.375  0.00  0.00    -0.126 OA
ATOM     26  N   UNL     1     -39.900  20.892   0.517  0.00  0.00    +0.058 N 
ENDBRANCH  23  26
ENDBRANCH   2  18
BRANCH   3  27
ATOM     27  O   UNL     1     -36.116  23.498   5.605  0.00  0.00    -0.381 OA
ATOM     28  H   UNL     1     -35.305  22.970   5.684  0.00  0.00    +0.210 HD
ENDBRANCH   3  27
BRANCH   5  29
ATOM     29  C   UNL     1     -34.016  25.876   5.146  0.00  0.00    +0.169 C 
BRANCH  29  30
ATOM     30  O   UNL     1     -33.418  24.684   4.665  0.00  0.00    -0.379 OA
ATOM     31  H   UNL     1     -33.671  23.941   5.236  0.00  0.00    +0.211 HD
ENDBRANCH  29  30
ENDBRANCH   5  29
TORSDOF 6
ENDMDL
MODEL 8
REMARK VINA RESULT:      -5.4      2.847      4.815
REMARK  Name = 60381
REMARK  6 active torsions:
REMARK  status: ('A' for Active; 'I' for Inactive)
REMARK    1  A    between atoms: C_2  and  C_18
REMARK    2  A    between atoms: C_3  and  O_27
REMARK    3  A    between atoms: C_4  and  N_6
REMARK    4  A    between atoms: C_5  and  C_29
REMARK    5  A    between atoms: C_23  and  N_26
REMARK    6  A    between atoms: C_29  and  O_30
REMARK                            x       y       z     vdW  Elec       q    Type
REMARK                         _______ _______ _______ _____ _____    ______ ____
ROOT
ATOM      1  O   UNL     1     -34.528  25.029   2.661  0.00  0.00    -0.335 OA
ATOM      2  C   UNL     1     -36.714  26.024   2.798  0.00  0.00    +0.099 C 
ATOM      3  C   UNL     1     -36.207  25.662   4.191  0.00  0.00    +0.148 C 
ATOM      4  C   UNL     1     -35.722  25.267   1.887  0.00  0.00    +0.201 C 
ATOM      5  C   UNL     1     -34.703  25.611   3.960  0.00  0.00    +0.173 C 
ENDROOT
BRANCH   4   6
ATOM      6  N   UNL     1     -36.175  23.989   1.337  0.00  0.00    -0.249 N 
ATOM      7  N   UNL     1     -37.093  22.540  -0.086  0.00  0.00    -0.242 NA
ATOM      8  N   UNL     1     -35.493  22.464   3.102  0.00  0.00    -0.228 NA
ATOM      9  N   UNL     1     -36.082  20.159   2.558  0.00  0.00    -0.229 NA
ATOM     10  C   UNL     1     -36.050  22.758   1.917  0.00  0.00    +0.152 C 
ATOM     11  C   UNL     1     -36.808  23.806   0.137  0.00  0.00    +0.223 C 
ATOM     12  C   UNL     1     -36.625  21.874   1.019  0.00  0.00    +0.140 C 
ATOM     13  C   UNL     1     -36.629  20.529   1.375  0.00  0.00    +0.143 C 
ATOM     14  C   UNL     1     -35.555  21.136   3.337  0.00  0.00    +0.253 C 
ATOM     15  N   UNL     1     -37.190  19.563   0.522  0.00  0.00    -0.342 N 
ATOM     16  H   UNL     1     -37.187  18.613   0.785  0.00  0.00    +0.144 HD
ATOM     17  H   UNL     1     -37.586  19.835  -0.337  0.00  0.00    +0.144 HD
ENDBRANCH   4   6
BRANCH   2  18
ATOM     18  C   UNL     1     -38.181  25.835   2.478  0.00  0.00    -0.016 C 
ATOM     19  C   UNL     1     -38.767  26.554   1.435  0.00  0.00    -0.002 C 
ATOM     20  C   UNL     1     -38.949  24.940   3.224  0.00  0.00    -0.002 C 
ATOM     21  C   UNL     1     -40.119  26.378   1.140  0.00  0.00    +0.024 C 
ATOM     22  C   UNL     1     -40.302  24.765   2.929  0.00  0.00    +0.024 C 
ATOM     23  C   UNL     1     -40.886  25.485   1.887  0.00  0.00    +0.143 C 
BRANCH  23  26
ATOM     24  O   UNL     1     -43.091  26.149   2.005  0.00  0.00    -0.126 OA
ATOM     25  O   UNL     1     -42.611  24.311   0.907  0.00  0.00    -0.126 OA
ATOM     26  N   UNL     1     -42.262  25.306   1.586  0.00  0.00    +0.058 N 
ENDBRANCH  23  26
ENDBRANCH   2  18
BRANCH   3  27
ATOM     27  O   UNL     1     -36.555  26.656   5.138  0.00  0.00    -0.381 OA
ATOM     28  H   UNL     1     -36.970  26.237   5.909  0.00  0.00    +0.210 HD
ENDBRANCH   3  27
BRANCH   5  29
ATOM     29  C   UNL     1     -33.956  24.785   4.993  0.00  0.00    +0.169 C 
BRANCH  29  30
ATOM     30  O   UNL     1     -34.885  23.969   5.686  0.00  0.00    -0.379 OA
ATOM     31  H   UNL     1     -34.480  23.110   5.880  0.00  0.00    +0.211 HD
ENDBRANCH  29  30
ENDBRANCH   5  29
TORSDOF 6
ENDMDL
MODEL 9
REMARK VINA RESULT:      -5.4      2.920      5.146
REMARK  Name = 60381
REMARK  6 active torsions:
REMARK  status: ('A' for Active; 'I' for Inactive)
REMARK    1  A    between atoms: C_2  and  C_18
REMARK    2  A    between atoms: C_3  and  O_27
REMARK    3  A    between atoms: C_4  and  N_6
REMARK    4  A    between atoms: C_5  and  C_29
REMARK    5  A    between atoms: C_23  and  N_26
REMARK    6  A    between atoms: C_29  and  O_30
REMARK                            x       y       z     vdW  Elec       q    Type
REMARK                         _______ _______ _______ _____ _____    ______ ____
ROOT
ATOM      1  O   UNL     1     -35.377  25.689   2.253  0.00  0.00    -0.335 OA
ATOM      2  C   UNL     1     -37.655  25.292   1.587  0.00  0.00    +0.099 C 
ATOM      3  C   UNL     1     -37.574  25.521   3.094  0.00  0.00    +0.148 C 
ATOM      4  C   UNL     1     -36.171  25.080   1.213  0.00  0.00    +0.201 C 
ATOM      5  C   UNL     1     -36.262  26.284   3.213  0.00  0.00    +0.173 C 
ENDROOT
BRANCH   4   6
ATOM      6  N   UNL     1     -35.724  23.696   1.046  0.00  0.00    -0.249 N 
ATOM      7  N   UNL     1     -35.002  21.847   0.032  0.00  0.00    -0.242 NA
ATOM      8  N   UNL     1     -35.847  22.896   3.336  0.00  0.00    -0.228 NA
ATOM      9  N   UNL     1     -35.163  20.558   3.496  0.00  0.00    -0.229 NA
ATOM     10  C   UNL     1     -35.594  22.754   2.027  0.00  0.00    +0.152 C 
ATOM     11  C   UNL     1     -35.358  23.104  -0.133  0.00  0.00    +0.223 C 
ATOM     12  C   UNL     1     -35.145  21.615   1.377  0.00  0.00    +0.140 C 
ATOM     13  C   UNL     1     -34.927  20.488   2.163  0.00  0.00    +0.143 C 
ATOM     14  C   UNL     1     -35.601  21.741   3.993  0.00  0.00    +0.253 C 
ATOM     15  N   UNL     1     -34.470  19.290   1.588  0.00  0.00    -0.342 N 
ATOM     16  H   UNL     1     -34.320  18.498   2.155  0.00  0.00    +0.144 HD
ATOM     17  H   UNL     1     -34.300  19.242   0.620  0.00  0.00    +0.144 HD
ENDBRANCH   4   6
BRANCH   2  18
ATOM     18  C   UNL     1     -38.625  24.262   1.052  0.00  0.00    -0.016 C 
ATOM     19  C   UNL     1     -39.005  24.290  -0.291  0.00  0.00    -0.002 C 
ATOM     20  C   UNL     1     -39.141  23.280   1.900  0.00  0.00    -0.002 C 
ATOM     21  C   UNL     1     -39.898  23.339  -0.784  0.00  0.00    +0.024 C 
ATOM     22  C   UNL     1     -40.035  22.330   1.407  0.00  0.00    +0.024 C 
ATOM     23  C   UNL     1     -40.414  22.360   0.065  0.00  0.00    +0.143 C 
BRANCH  23  26
ATOM     24  O   UNL     1     -42.523  21.715  -0.607  0.00  0.00    -0.126 OA
ATOM     25  O   UNL     1     -40.901  20.240  -0.699  0.00  0.00    -0.126 OA
ATOM     26  N   UNL     1     -41.323  21.392  -0.437  0.00  0.00    +0.058 N 
ENDBRANCH  23  26
ENDBRANCH   2  18
BRANCH   3  27
ATOM     27  O   UNL     1     -38.668  26.293   3.556  0.00  0.00    -0.381 OA
ATOM     28  H   UNL     1     -38.361  27.186   3.783  0.00  0.00    +0.210 HD
ENDBRANCH   3  27
BRANCH   5  29
ATOM     29  C   UNL     1     -35.638  26.211   4.595  0.00  0.00    +0.169 C 
BRANCH  29  30
ATOM     30  O   UNL     1     -36.598  26.621   5.554  0.00  0.00    -0.379 OA
ATOM     31  H   UNL     1     -37.330  27.074   5.106  0.00  0.00    +0.211 HD
ENDBRANCH  29  30
ENDBRANCH   5  29
TORSDOF 6
ENDMDL
