MODEL 1
REMARK VINA RESULT:      -7.3      0.000      0.000
REMARK  Name = 54691339
REMARK  13 active torsions:
REMARK  status: ('A' for Active; 'I' for Inactive)
REMARK    1  A    between atoms: N_2  and  O_20
REMARK    2  A    between atoms: C_3  and  C_8
REMARK    3  A    between atoms: C_4  and  O_18
REMARK    4  A    between atoms: C_6  and  C_23
REMARK    5  A    between atoms: C_8  and  O_14
REMARK    6  A    between atoms: C_13  and  O_16
REMARK    7  A    between atoms: C_23  and  C_24
REMARK    8  A    between atoms: C_25  and  C_27
REMARK    9  A    between atoms: C_26  and  C_29
REMARK   10  A    between atoms: C_28  and  C_31
REMARK   11  A    between atoms: C_31  and  C_33
REMARK   12  A    between atoms: C_33  and  C_34
REMARK   13  A    between atoms: C_34  and  C_36
REMARK                            x       y       z     vdW  Elec       q    Type
REMARK                         _______ _______ _______ _____ _____    ______ ____
ROOT
ATOM      1  O   UNL     1     -40.733  23.267   1.644  0.00  0.00    -0.267 OA
ATOM      2  N   UNL     1     -38.682  22.653   2.502  0.00  0.00    -0.145 N 
ATOM      3  C   UNL     1     -37.162  24.212   3.360  0.00  0.00    +0.053 C 
ATOM      4  C   UNL     1     -38.151  25.262   3.108  0.00  0.00    +0.141 C 
ATOM      5  C   UNL     1     -37.468  22.945   3.044  0.00  0.00    +0.098 C 
ATOM      6  C   UNL     1     -39.350  24.983   2.547  0.00  0.00    +0.128 C 
ATOM      7  C   UNL     1     -39.667  23.552   2.182  0.00  0.00    +0.281 C 
ENDROOT
BRANCH   3   8
ATOM      8  C   UNL     1     -35.824  24.541   3.957  0.00  0.00    +0.111 C 
ATOM      9  C   UNL     1     -35.989  25.284   5.294  0.00  0.00    +0.034 C 
ATOM     10  C   UNL     1     -34.986  25.373   2.972  0.00  0.00    +0.034 C 
ATOM     11  C   UNL     1     -34.647  25.715   5.886  0.00  0.00    +0.032 C 
ATOM     12  C   UNL     1     -33.648  25.806   3.573  0.00  0.00    +0.032 C 
ATOM     13  C   UNL     1     -33.837  26.546   4.894  0.00  0.00    +0.111 C 
BRANCH   8  14
ATOM     14  O   UNL     1     -35.138  23.309   4.189  0.00  0.00    -0.383 OA
ATOM     15  H   UNL     1     -34.321  23.480   4.682  0.00  0.00    +0.211 HD
ENDBRANCH   8  14
BRANCH  13  16
ATOM     16  O   UNL     1     -32.554  26.829   5.442  0.00  0.00    -0.384 OA
ATOM     17  H   UNL     1     -32.168  27.593   4.984  0.00  0.00    +0.210 HD
ENDBRANCH  13  16
ENDBRANCH   3   8
BRANCH   4  18
ATOM     18  O   UNL     1     -37.821  26.560   3.458  0.00  0.00    -0.505 OA
ATOM     19  H   UNL     1     -36.964  26.892   3.273  0.00  0.00    +0.292 HD
ENDBRANCH   4  18
BRANCH   2  20
ATOM     20  O   UNL     1     -38.954  21.303   2.246  0.00  0.00    -0.287 OA
ATOM     21  H   UNL     1     -38.591  20.887   1.488  0.00  0.00    +0.242 HD
ENDBRANCH   2  20
BRANCH   6  23
ATOM     22  O   UNL     1     -40.240  26.773   1.306  0.00  0.00    -0.286 OA
ATOM     23  C   UNL     1     -40.318  26.064   2.302  0.00  0.00    +0.203 C 
BRANCH  23  24
ATOM     24  C   UNL     1     -41.364  26.209   3.346  0.00  0.00    +0.042 C 
ATOM     25  C   UNL     1     -42.265  27.198   3.256  0.00  0.00    +0.003 C 
BRANCH  25  27
ATOM     26  C   UNL     1     -44.460  26.672   4.275  0.00  0.00    -0.005 C 
ATOM     27  C   UNL     1     -43.346  27.420   4.194  0.00  0.00    -0.000 C 
BRANCH  26  29
ATOM     28  C   UNL     1     -45.575  27.953   5.999  0.00  0.00    -0.031 C 
ATOM     29  C   UNL     1     -45.560  26.845   5.227  0.00  0.00    -0.026 C 
ATOM     30  C   UNL     1     -46.601  25.758   5.297  0.00  0.00    +0.031 C 
BRANCH  28  31
ATOM     31  C   UNL     1     -46.609  28.367   7.029  0.00  0.00    +0.022 C 
ATOM     32  C   UNL     1     -47.851  28.895   6.306  0.00  0.00    +0.005 C 
BRANCH  31  33
ATOM     33  C   UNL     1     -45.984  29.415   7.976  0.00  0.00    +0.004 C 
BRANCH  33  34
ATOM     34  C   UNL     1     -44.762  30.175   7.420  0.00  0.00    +0.000 C 
ATOM     35  C   UNL     1     -43.674  30.375   8.478  0.00  0.00    +0.000 C 
BRANCH  34  36
ATOM     36  C   UNL     1     -45.185  31.517   6.783  0.00  0.00    +0.000 C 
ATOM     37  C   UNL     1     -44.259  32.048   5.696  0.00  0.00    +0.000 C 
ENDBRANCH  34  36
ENDBRANCH  33  34
ENDBRANCH  31  33
ENDBRANCH  28  31
ENDBRANCH  26  29
ENDBRANCH  25  27
ENDBRANCH  23  24
ENDBRANCH   6  23
TORSDOF 13
ENDMDL
MODEL 2
REMARK VINA RESULT:      -7.2      5.962      7.825
REMARK  Name = 54691339
REMARK  13 active torsions:
REMARK  status: ('A' for Active; 'I' for Inactive)
REMARK    1  A    between atoms: N_2  and  O_20
REMARK    2  A    between atoms: C_3  and  C_8
REMARK    3  A    between atoms: C_4  and  O_18
REMARK    4  A    between atoms: C_6  and  C_23
REMARK    5  A    between atoms: C_8  and  O_14
REMARK    6  A    between atoms: C_13  and  O_16
REMARK    7  A    between atoms: C_23  and  C_24
REMARK    8  A    between atoms: C_25  and  C_27
REMARK    9  A    between atoms: C_26  and  C_29
REMARK   10  A    between atoms: C_28  and  C_31
REMARK   11  A    between atoms: C_31  and  C_33
REMARK   12  A    between atoms: C_33  and  C_34
REMARK   13  A    between atoms: C_34  and  C_36
REMARK                            x       y       z     vdW  Elec       q    Type
REMARK                         _______ _______ _______ _____ _____    ______ ____
ROOT
ATOM      1  O   UNL     1     -32.815  28.345   0.812  0.00  0.00    -0.267 OA
ATOM      2  N   UNL     1     -33.565  26.175   1.034  0.00  0.00    -0.145 N 
ATOM      3  C   UNL     1     -34.599  25.397   2.985  0.00  0.00    +0.053 C 
ATOM      4  C   UNL     1     -34.493  26.748   3.537  0.00  0.00    +0.141 C 
ATOM      5  C   UNL     1     -34.127  25.163   1.751  0.00  0.00    +0.098 C 
ATOM      6  C   UNL     1     -33.914  27.753   2.841  0.00  0.00    +0.128 C 
ATOM      7  C   UNL     1     -33.374  27.464   1.461  0.00  0.00    +0.281 C 
ENDROOT
BRANCH   3   8
ATOM      8  C   UNL     1     -35.218  24.285   3.781  0.00  0.00    +0.111 C 
ATOM      9  C   UNL     1     -34.480  24.093   5.118  0.00  0.00    +0.034 C 
ATOM     10  C   UNL     1     -35.221  22.979   2.968  0.00  0.00    +0.034 C 
ATOM     11  C   UNL     1     -35.028  22.908   5.915  0.00  0.00    +0.032 C 
ATOM     12  C   UNL     1     -35.763  21.798   3.774  0.00  0.00    +0.032 C 
ATOM     13  C   UNL     1     -35.013  21.623   5.092  0.00  0.00    +0.111 C 
BRANCH   8  14
ATOM     14  O   UNL     1     -36.576  24.644   4.044  0.00  0.00    -0.383 OA
ATOM     15  H   UNL     1     -37.114  23.841   4.125  0.00  0.00    +0.211 HD
ENDBRANCH   8  14
BRANCH  13  16
ATOM     16  O   UNL     1     -35.632  20.574   5.830  0.00  0.00    -0.384 OA
ATOM     17  H   UNL     1     -35.523  20.740   6.780  0.00  0.00    +0.210 HD
ENDBRANCH  13  16
ENDBRANCH   3   8
BRANCH   4  18
ATOM     18  O   UNL     1     -35.002  26.971   4.806  0.00  0.00    -0.505 OA
ATOM     19  H   UNL     1     -34.868  26.337   5.483  0.00  0.00    +0.292 HD
ENDBRANCH   4  18
BRANCH   2  20
ATOM     20  O   UNL     1     -33.143  25.871  -0.267  0.00  0.00    -0.287 OA
ATOM     21  H   UNL     1     -32.364  25.366  -0.400  0.00  0.00    +0.242 HD
ENDBRANCH   2  20
BRANCH   6  23
ATOM     22  O   UNL     1     -32.933  29.383   4.226  0.00  0.00    -0.286 OA
ATOM     23  C   UNL     1     -33.820  29.099   3.430  0.00  0.00    +0.203 C 
BRANCH  23  24
ATOM     24  C   UNL     1     -34.870  30.048   2.982  0.00  0.00    +0.042 C 
ATOM     25  C   UNL     1     -34.525  31.172   2.339  0.00  0.00    +0.003 C 
BRANCH  25  27
ATOM     26  C   UNL     1     -36.798  32.047   1.892  0.00  0.00    -0.005 C 
ATOM     27  C   UNL     1     -35.459  32.154   1.830  0.00  0.00    -0.000 C 
BRANCH  26  29
ATOM     28  C   UNL     1     -37.453  34.340   1.476  0.00  0.00    -0.031 C 
ATOM     29  C   UNL     1     -37.775  33.029   1.415  0.00  0.00    -0.026 C 
ATOM     30  C   UNL     1     -39.093  32.511   0.903  0.00  0.00    +0.031 C 
BRANCH  28  31
ATOM     31  C   UNL     1     -38.276  35.531   1.025  0.00  0.00    +0.022 C 
ATOM     32  C   UNL     1     -37.333  36.671   0.632  0.00  0.00    +0.005 C 
BRANCH  31  33
ATOM     33  C   UNL     1     -39.247  35.930   2.159  0.00  0.00    +0.004 C 
BRANCH  33  34
ATOM     34  C   UNL     1     -40.739  35.994   1.770  0.00  0.00    +0.000 C 
ATOM     35  C   UNL     1     -41.556  34.875   2.421  0.00  0.00    +0.000 C 
BRANCH  34  36
ATOM     36  C   UNL     1     -40.914  36.004   0.236  0.00  0.00    +0.000 C 
ATOM     37  C   UNL     1     -42.162  36.711  -0.278  0.00  0.00    +0.000 C 
ENDBRANCH  34  36
ENDBRANCH  33  34
ENDBRANCH  31  33
ENDBRANCH  28  31
ENDBRANCH  26  29
ENDBRANCH  25  27
ENDBRANCH  23  24
ENDBRANCH   6  23
TORSDOF 13
ENDMDL
MODEL 3
REMARK VINA RESULT:      -7.0      1.414      2.309
REMARK  Name = 54691339
REMARK  13 active torsions:
REMARK  status: ('A' for Active; 'I' for Inactive)
REMARK    1  A    between atoms: N_2  and  O_20
REMARK    2  A    between atoms: C_3  and  C_8
REMARK    3  A    between atoms: C_4  and  O_18
REMARK    4  A    between atoms: C_6  and  C_23
REMARK    5  A    between atoms: C_8  and  O_14
REMARK    6  A    between atoms: C_13  and  O_16
REMARK    7  A    between atoms: C_23  and  C_24
REMARK    8  A    between atoms: C_25  and  C_27
REMARK    9  A    between atoms: C_26  and  C_29
REMARK   10  A    between atoms: C_28  and  C_31
REMARK   11  A    between atoms: C_31  and  C_33
REMARK   12  A    between atoms: C_33  and  C_34
REMARK   13  A    between atoms: C_34  and  C_36
REMARK                            x       y       z     vdW  Elec       q    Type
REMARK                         _______ _______ _______ _____ _____    ______ ____
ROOT
ATOM      1  O   UNL     1     -40.278  22.400   1.486  0.00  0.00    -0.267 OA
ATOM      2  N   UNL     1     -38.278  22.575   2.620  0.00  0.00    -0.145 N 
ATOM      3  C   UNL     1     -37.441  24.624   3.383  0.00  0.00    +0.053 C 
ATOM      4  C   UNL     1     -38.658  25.266   2.883  0.00  0.00    +0.141 C 
ATOM      5  C   UNL     1     -37.298  23.299   3.229  0.00  0.00    +0.098 C 
ATOM      6  C   UNL     1     -39.624  24.557   2.256  0.00  0.00    +0.128 C 
ATOM      7  C   UNL     1     -39.435  23.070   2.077  0.00  0.00    +0.281 C 
ENDROOT
BRANCH   3   8
ATOM      8  C   UNL     1     -36.364  25.428   4.052  0.00  0.00    +0.111 C 
ATOM      9  C   UNL     1     -35.650  26.338   3.036  0.00  0.00    +0.034 C 
ATOM     10  C   UNL     1     -35.358  24.500   4.753  0.00  0.00    +0.034 C 
ATOM     11  C   UNL     1     -34.486  27.104   3.666  0.00  0.00    +0.032 C 
ATOM     12  C   UNL     1     -34.193  25.273   5.374  0.00  0.00    +0.032 C 
ATOM     13  C   UNL     1     -33.497  26.164   4.348  0.00  0.00    +0.111 C 
BRANCH   8  14
ATOM     14  O   UNL     1     -36.986  26.240   5.050  0.00  0.00    -0.383 OA
ATOM     15  H   UNL     1     -37.910  25.968   5.159  0.00  0.00    +0.211 HD
ENDBRANCH   8  14
BRANCH  13  16
ATOM     16  O   UNL     1     -32.494  26.923   5.014  0.00  0.00    -0.384 OA
ATOM     17  H   UNL     1     -32.775  27.101   5.925  0.00  0.00    +0.210 HD
ENDBRANCH  13  16
ENDBRANCH   3   8
BRANCH   4  18
ATOM     18  O   UNL     1     -38.792  26.632   3.068  0.00  0.00    -0.505 OA
ATOM     19  H   UNL     1     -38.103  27.120   3.474  0.00  0.00    +0.292 HD
ENDBRANCH   4  18
BRANCH   2  20
ATOM     20  O   UNL     1     -38.086  21.190   2.542  0.00  0.00    -0.287 OA
ATOM     21  H   UNL     1     -38.460  20.627   3.191  0.00  0.00    +0.242 HD
ENDBRANCH   2  20
BRANCH   6  23
ATOM     22  O   UNL     1     -41.049  25.354   0.561  0.00  0.00    -0.286 OA
ATOM     23  C   UNL     1     -40.833  25.237   1.761  0.00  0.00    +0.203 C 
BRANCH  23  24
ATOM     24  C   UNL     1     -41.734  25.752   2.822  0.00  0.00    +0.042 C 
ATOM     25  C   UNL     1     -42.317  26.951   2.680  0.00  0.00    +0.003 C 
BRANCH  25  27
ATOM     26  C   UNL     1     -42.961  28.604   4.408  0.00  0.00    -0.005 C 
ATOM     27  C   UNL     1     -43.235  27.542   3.631  0.00  0.00    -0.000 C 
BRANCH  26  29
ATOM     28  C   UNL     1     -43.456  30.367   5.991  0.00  0.00    -0.031 C 
ATOM     29  C   UNL     1     -43.871  29.248   5.359  0.00  0.00    -0.026 C 
ATOM     30  C   UNL     1     -45.213  28.603   5.588  0.00  0.00    +0.031 C 
BRANCH  28  31
ATOM     31  C   UNL     1     -44.215  31.220   6.988  0.00  0.00    +0.022 C 
ATOM     32  C   UNL     1     -44.226  30.511   8.346  0.00  0.00    +0.005 C 
BRANCH  31  33
ATOM     33  C   UNL     1     -45.638  31.482   6.446  0.00  0.00    +0.004 C 
BRANCH  33  34
ATOM     34  C   UNL     1     -45.771  32.663   5.461  0.00  0.00    +0.000 C 
ATOM     35  C   UNL     1     -46.806  33.690   5.925  0.00  0.00    +0.000 C 
BRANCH  34  36
ATOM     36  C   UNL     1     -46.072  32.162   4.031  0.00  0.00    +0.000 C 
ATOM     37  C   UNL     1     -44.873  32.088   3.095  0.00  0.00    +0.000 C 
ENDBRANCH  34  36
ENDBRANCH  33  34
ENDBRANCH  31  33
ENDBRANCH  28  31
ENDBRANCH  26  29
ENDBRANCH  25  27
ENDBRANCH  23  24
ENDBRANCH   6  23
TORSDOF 13
ENDMDL
MODEL 4
REMARK VINA RESULT:      -7.0      6.357     10.424
REMARK  Name = 54691339
REMARK  13 active torsions:
REMARK  status: ('A' for Active; 'I' for Inactive)
REMARK    1  A    between atoms: N_2  and  O_20
REMARK    2  A    between atoms: C_3  and  C_8
REMARK    3  A    between atoms: C_4  and  O_18
REMARK    4  A    between atoms: C_6  and  C_23
REMARK    5  A    between atoms: C_8  and  O_14
REMARK    6  A    between atoms: C_13  and  O_16
REMARK    7  A    between atoms: C_23  and  C_24
REMARK    8  A    between atoms: C_25  and  C_27
REMARK    9  A    between atoms: C_26  and  C_29
REMARK   10  A    between atoms: C_28  and  C_31
REMARK   11  A    between atoms: C_31  and  C_33
REMARK   12  A    between atoms: C_33  and  C_34
REMARK   13  A    between atoms: C_34  and  C_36
REMARK                            x       y       z     vdW  Elec       q    Type
REMARK                         _______ _______ _______ _____ _____    ______ ____
ROOT
ATOM      1  O   UNL     1     -38.056  24.157   3.746  0.00  0.00    -0.267 OA
ATOM      2  N   UNL     1     -36.830  26.055   3.282  0.00  0.00    -0.145 N 
ATOM      3  C   UNL     1     -34.595  26.299   3.935  0.00  0.00    +0.053 C 
ATOM      4  C   UNL     1     -34.642  24.938   4.472  0.00  0.00    +0.141 C 
ATOM      5  C   UNL     1     -35.697  26.806   3.360  0.00  0.00    +0.098 C 
ATOM      6  C   UNL     1     -35.771  24.195   4.419  0.00  0.00    +0.128 C 
ATOM      7  C   UNL     1     -37.004  24.791   3.785  0.00  0.00    +0.281 C 
ENDROOT
BRANCH   3   8
ATOM      8  C   UNL     1     -33.343  27.122   4.027  0.00  0.00    +0.111 C 
ATOM      9  C   UNL     1     -32.979  27.402   5.495  0.00  0.00    +0.034 C 
ATOM     10  C   UNL     1     -33.506  28.437   3.246  0.00  0.00    +0.034 C 
ATOM     11  C   UNL     1     -31.759  28.315   5.624  0.00  0.00    +0.032 C 
ATOM     12  C   UNL     1     -32.285  29.347   3.385  0.00  0.00    +0.032 C 
ATOM     13  C   UNL     1     -31.946  29.616   4.849  0.00  0.00    +0.111 C 
BRANCH   8  14
ATOM     14  O   UNL     1     -32.288  26.375   3.418  0.00  0.00    -0.383 OA
ATOM     15  H   UNL     1     -31.553  26.282   4.044  0.00  0.00    +0.211 HD
ENDBRANCH   8  14
BRANCH  13  16
ATOM     16  O   UNL     1     -30.748  30.383   4.903  0.00  0.00    -0.384 OA
ATOM     17  H   UNL     1     -30.971  31.327   4.933  0.00  0.00    +0.210 HD
ENDBRANCH  13  16
ENDBRANCH   3   8
BRANCH   4  18
ATOM     18  O   UNL     1     -33.489  24.428   5.046  0.00  0.00    -0.505 OA
ATOM     19  H   UNL     1     -33.534  23.670   5.595  0.00  0.00    +0.292 HD
ENDBRANCH   4  18
BRANCH   2  20
ATOM     20  O   UNL     1     -37.925  26.628   2.622  0.00  0.00    -0.287 OA
ATOM     21  H   UNL     1     -37.932  26.682   1.686  0.00  0.00    +0.242 HD
ENDBRANCH   2  20
BRANCH   6  23
ATOM     22  O   UNL     1     -35.952  22.635   6.172  0.00  0.00    -0.286 OA
ATOM     23  C   UNL     1     -35.783  22.831   4.975  0.00  0.00    +0.203 C 
BRANCH  23  24
ATOM     24  C   UNL     1     -35.574  21.753   3.977  0.00  0.00    +0.042 C 
ATOM     25  C   UNL     1     -35.255  22.065   2.712  0.00  0.00    +0.003 C 
BRANCH  25  27
ATOM     26  C   UNL     1     -34.391  19.915   1.838  0.00  0.00    -0.005 C 
ATOM     27  C   UNL     1     -34.997  21.102   1.663  0.00  0.00    -0.000 C 
BRANCH  26  29
ATOM     28  C   UNL     1     -34.987  18.824  -0.238  0.00  0.00    -0.031 C 
ATOM     29  C   UNL     1     -34.139  18.903   0.810  0.00  0.00    -0.026 C 
ATOM     30  C   UNL     1     -32.951  17.995   0.999  0.00  0.00    +0.031 C 
BRANCH  28  31
ATOM     31  C   UNL     1     -34.925  17.888  -1.429  0.00  0.00    +0.022 C 
ATOM     32  C   UNL     1     -34.398  18.658  -2.644  0.00  0.00    +0.005 C 
BRANCH  31  33
ATOM     33  C   UNL     1     -36.327  17.287  -1.672  0.00  0.00    +0.004 C 
BRANCH  33  34
ATOM     34  C   UNL     1     -37.328  17.432  -0.506  0.00  0.00    +0.000 C 
ATOM     35  C   UNL     1     -37.792  16.076   0.030  0.00  0.00    +0.000 C 
BRANCH  34  36
ATOM     36  C   UNL     1     -38.525  18.322  -0.909  0.00  0.00    +0.000 C 
ATOM     37  C   UNL     1     -38.484  19.752  -0.387  0.00  0.00    +0.000 C 
ENDBRANCH  34  36
ENDBRANCH  33  34
ENDBRANCH  31  33
ENDBRANCH  28  31
ENDBRANCH  26  29
ENDBRANCH  25  27
ENDBRANCH  23  24
ENDBRANCH   6  23
TORSDOF 13
ENDMDL
MODEL 5
REMARK VINA RESULT:      -7.0      6.893     10.775
REMARK  Name = 54691339
REMARK  13 active torsions:
REMARK  status: ('A' for Active; 'I' for Inactive)
REMARK    1  A    between atoms: N_2  and  O_20
REMARK    2  A    between atoms: C_3  and  C_8
REMARK    3  A    between atoms: C_4  and  O_18
REMARK    4  A    between atoms: C_6  and  C_23
REMARK    5  A    between atoms: C_8  and  O_14
REMARK    6  A    between atoms: C_13  and  O_16
REMARK    7  A    between atoms: C_23  and  C_24
REMARK    8  A    between atoms: C_25  and  C_27
REMARK    9  A    between atoms: C_26  and  C_29
REMARK   10  A    between atoms: C_28  and  C_31
REMARK   11  A    between atoms: C_31  and  C_33
REMARK   12  A    between atoms: C_33  and  C_34
REMARK   13  A    between atoms: C_34  and  C_36
REMARK                            x       y       z     vdW  Elec       q    Type
REMARK                         _______ _______ _______ _____ _____    ______ ____
ROOT
ATOM      1  O   UNL     1     -36.581  25.609   3.192  0.00  0.00    -0.267 OA
ATOM      2  N   UNL     1     -36.897  24.000   1.569  0.00  0.00    -0.145 N 
ATOM      3  C   UNL     1     -36.302  21.759   1.888  0.00  0.00    +0.053 C 
ATOM      4  C   UNL     1     -35.902  22.097   3.255  0.00  0.00    +0.141 C 
ATOM      5  C   UNL     1     -36.784  22.728   1.096  0.00  0.00    +0.098 C 
ATOM      6  C   UNL     1     -35.989  23.363   3.724  0.00  0.00    +0.128 C 
ATOM      7  C   UNL     1     -36.517  24.442   2.810  0.00  0.00    +0.281 C 
ENDROOT
BRANCH   3   8
ATOM      8  C   UNL     1     -36.173  20.355   1.373  0.00  0.00    +0.111 C 
ATOM      9  C   UNL     1     -34.694  19.975   1.184  0.00  0.00    +0.034 C 
ATOM     10  C   UNL     1     -36.950  20.193   0.055  0.00  0.00    +0.034 C 
ATOM     11  C   UNL     1     -34.529  18.583   0.573  0.00  0.00    +0.032 C 
ATOM     12  C   UNL     1     -36.774  18.801  -0.553  0.00  0.00    +0.032 C 
ATOM     13  C   UNL     1     -35.300  18.448  -0.736  0.00  0.00    +0.111 C 
BRANCH   8  14
ATOM     14  O   UNL     1     -36.760  19.482   2.341  0.00  0.00    -0.383 OA
ATOM     15  H   UNL     1     -37.726  19.521   2.269  0.00  0.00    +0.211 HD
ENDBRANCH   8  14
BRANCH  13  16
ATOM     16  O   UNL     1     -35.210  17.109  -1.210  0.00  0.00    -0.384 OA
ATOM     17  H   UNL     1     -35.308  16.495  -0.465  0.00  0.00    +0.210 HD
ENDBRANCH  13  16
ENDBRANCH   3   8
BRANCH   4  18
ATOM     18  O   UNL     1     -35.424  21.078   4.061  0.00  0.00    -0.505 OA
ATOM     19  H   UNL     1     -35.641  20.187   3.869  0.00  0.00    +0.292 HD
ENDBRANCH   4  18
BRANCH   2  20
ATOM     20  O   UNL     1     -37.458  24.950   0.705  0.00  0.00    -0.287 OA
ATOM     21  H   UNL     1     -38.334  24.838   0.390  0.00  0.00    +0.242 HD
ENDBRANCH   2  20
BRANCH   6  23
ATOM     22  O   UNL     1     -36.162  23.192   6.065  0.00  0.00    -0.286 OA
ATOM     23  C   UNL     1     -35.572  23.669   5.103  0.00  0.00    +0.203 C 
BRANCH  23  24
ATOM     24  C   UNL     1     -34.408  24.583   5.211  0.00  0.00    +0.042 C 
ATOM     25  C   UNL     1     -34.491  25.684   5.971  0.00  0.00    +0.003 C 
BRANCH  25  27
ATOM     26  C   UNL     1     -32.873  27.401   5.218  0.00  0.00    -0.005 C 
ATOM     27  C   UNL     1     -33.414  26.630   6.177  0.00  0.00    -0.000 C 
BRANCH  26  29
ATOM     28  C   UNL     1     -30.891  28.529   4.406  0.00  0.00    -0.031 C 
ATOM     29  C   UNL     1     -31.804  28.389   5.392  0.00  0.00    -0.026 C 
ATOM     30  C   UNL     1     -31.782  29.175   6.676  0.00  0.00    +0.031 C 
BRANCH  28  31
ATOM     31  C   UNL     1     -29.720  29.490   4.341  0.00  0.00    +0.022 C 
ATOM     32  C   UNL     1     -29.836  30.335   3.070  0.00  0.00    +0.005 C 
BRANCH  31  33
ATOM     33  C   UNL     1     -28.404  28.684   4.398  0.00  0.00    +0.004 C 
BRANCH  33  34
ATOM     34  C   UNL     1     -27.736  28.590   5.787  0.00  0.00    +0.000 C 
ATOM     35  C   UNL     1     -28.131  27.313   6.534  0.00  0.00    +0.000 C 
BRANCH  34  36
ATOM     36  C   UNL     1     -28.026  29.851   6.630  0.00  0.00    +0.000 C 
ATOM     37  C   UNL     1     -28.340  29.601   8.099  0.00  0.00    +0.000 C 
ENDBRANCH  34  36
ENDBRANCH  33  34
ENDBRANCH  31  33
ENDBRANCH  28  31
ENDBRANCH  26  29
ENDBRANCH  25  27
ENDBRANCH  23  24
ENDBRANCH   6  23
TORSDOF 13
ENDMDL
MODEL 6
REMARK VINA RESULT:      -7.0      6.171      8.024
REMARK  Name = 54691339
REMARK  13 active torsions:
REMARK  status: ('A' for Active; 'I' for Inactive)
REMARK    1  A    between atoms: N_2  and  O_20
REMARK    2  A    between atoms: C_3  and  C_8
REMARK    3  A    between atoms: C_4  and  O_18
REMARK    4  A    between atoms: C_6  and  C_23
REMARK    5  A    between atoms: C_8  and  O_14
REMARK    6  A    between atoms: C_13  and  O_16
REMARK    7  A    between atoms: C_23  and  C_24
REMARK    8  A    between atoms: C_25  and  C_27
REMARK    9  A    between atoms: C_26  and  C_29
REMARK   10  A    between atoms: C_28  and  C_31
REMARK   11  A    between atoms: C_31  and  C_33
REMARK   12  A    between atoms: C_33  and  C_34
REMARK   13  A    between atoms: C_34  and  C_36
REMARK                            x       y       z     vdW  Elec       q    Type
REMARK                         _______ _______ _______ _____ _____    ______ ____
ROOT
ATOM      1  O   UNL     1     -32.967  28.222   0.622  0.00  0.00    -0.267 OA
ATOM      2  N   UNL     1     -33.491  26.007   0.998  0.00  0.00    -0.145 N 
ATOM      3  C   UNL     1     -34.698  25.303   2.876  0.00  0.00    +0.053 C 
ATOM      4  C   UNL     1     -34.826  26.706   3.275  0.00  0.00    +0.141 C 
ATOM      5  C   UNL     1     -34.031  25.009   1.749  0.00  0.00    +0.098 C 
ATOM      6  C   UNL     1     -34.271  27.701   2.546  0.00  0.00    +0.128 C 
ATOM      7  C   UNL     1     -33.510  27.346   1.291  0.00  0.00    +0.281 C 
ENDROOT
BRANCH   3   8
ATOM      8  C   UNL     1     -35.295  24.207   3.709  0.00  0.00    +0.111 C 
ATOM      9  C   UNL     1     -34.591  24.112   5.075  0.00  0.00    +0.034 C 
ATOM     10  C   UNL     1     -35.220  22.864   2.964  0.00  0.00    +0.034 C 
ATOM     11  C   UNL     1     -35.113  22.946   5.915  0.00  0.00    +0.032 C 
ATOM     12  C   UNL     1     -35.737  21.702   3.814  0.00  0.00    +0.032 C 
ATOM     13  C   UNL     1     -35.021  21.624   5.159  0.00  0.00    +0.111 C 
BRANCH   8  14
ATOM     14  O   UNL     1     -36.674  24.521   3.916  0.00  0.00    -0.383 OA
ATOM     15  H   UNL     1     -36.747  25.360   4.398  0.00  0.00    +0.211 HD
ENDBRANCH   8  14
BRANCH  13  16
ATOM     16  O   UNL     1     -35.618  20.588   5.931  0.00  0.00    -0.384 OA
ATOM     17  H   UNL     1     -36.502  20.393   5.582  0.00  0.00    +0.210 HD
ENDBRANCH  13  16
ENDBRANCH   3   8
BRANCH   4  18
ATOM     18  O   UNL     1     -35.534  26.988   4.431  0.00  0.00    -0.505 OA
ATOM     19  H   UNL     1     -35.132  27.487   5.116  0.00  0.00    +0.292 HD
ENDBRANCH   4  18
BRANCH   2  20
ATOM     20  O   UNL     1     -32.855  25.631  -0.193  0.00  0.00    -0.287 OA
ATOM     21  H   UNL     1     -33.270  25.793  -1.017  0.00  0.00    +0.242 HD
ENDBRANCH   2  20
BRANCH   6  23
ATOM     22  O   UNL     1     -33.723  29.561   3.880  0.00  0.00    -0.286 OA
ATOM     23  C   UNL     1     -34.415  29.101   2.980  0.00  0.00    +0.203 C 
BRANCH  23  24
ATOM     24  C   UNL     1     -35.449  29.875   2.248  0.00  0.00    +0.042 C 
ATOM     25  C   UNL     1     -35.732  31.131   2.621  0.00  0.00    +0.003 C 
BRANCH  25  27
ATOM     26  C   UNL     1     -37.539  31.602   0.995  0.00  0.00    -0.005 C 
ATOM     27  C   UNL     1     -36.695  31.991   1.965  0.00  0.00    -0.000 C 
BRANCH  26  29
ATOM     28  C   UNL     1     -38.136  33.547  -0.317  0.00  0.00    -0.031 C 
ATOM     29  C   UNL     1     -38.545  32.433   0.328  0.00  0.00    -0.026 C 
ATOM     30  C   UNL     1     -39.984  31.998   0.423  0.00  0.00    +0.031 C 
BRANCH  28  31
ATOM     31  C   UNL     1     -38.973  34.543  -1.095  0.00  0.00    +0.022 C 
ATOM     32  C   UNL     1     -38.380  34.710  -2.497  0.00  0.00    +0.005 C 
BRANCH  31  33
ATOM     33  C   UNL     1     -39.027  35.874  -0.313  0.00  0.00    +0.004 C 
BRANCH  33  34
ATOM     34  C   UNL     1     -38.173  35.931   0.972  0.00  0.00    +0.000 C 
ATOM     35  C   UNL     1     -39.034  36.002   2.236  0.00  0.00    +0.000 C 
BRANCH  34  36
ATOM     36  C   UNL     1     -37.156  37.091   0.913  0.00  0.00    +0.000 C 
ATOM     37  C   UNL     1     -36.056  36.948  -0.131  0.00  0.00    +0.000 C 
ENDBRANCH  34  36
ENDBRANCH  33  34
ENDBRANCH  31  33
ENDBRANCH  28  31
ENDBRANCH  26  29
ENDBRANCH  25  27
ENDBRANCH  23  24
ENDBRANCH   6  23
TORSDOF 13
ENDMDL
MODEL 7
REMARK VINA RESULT:      -6.9      1.342      2.116
REMARK  Name = 54691339
REMARK  13 active torsions:
REMARK  status: ('A' for Active; 'I' for Inactive)
REMARK    1  A    between atoms: N_2  and  O_20
REMARK    2  A    between atoms: C_3  and  C_8
REMARK    3  A    between atoms: C_4  and  O_18
REMARK    4  A    between atoms: C_6  and  C_23
REMARK    5  A    between atoms: C_8  and  O_14
REMARK    6  A    between atoms: C_13  and  O_16
REMARK    7  A    between atoms: C_23  and  C_24
REMARK    8  A    between atoms: C_25  and  C_27
REMARK    9  A    between atoms: C_26  and  C_29
REMARK   10  A    between atoms: C_28  and  C_31
REMARK   11  A    between atoms: C_31  and  C_33
REMARK   12  A    between atoms: C_33  and  C_34
REMARK   13  A    between atoms: C_34  and  C_36
REMARK                            x       y       z     vdW  Elec       q    Type
REMARK                         _______ _______ _______ _____ _____    ______ ____
ROOT
ATOM      1  O   UNL     1     -39.153  22.179   1.682  0.00  0.00    -0.267 OA
ATOM      2  N   UNL     1     -37.313  22.645   2.992  0.00  0.00    -0.145 N 
ATOM      3  C   UNL     1     -36.792  24.813   3.702  0.00  0.00    +0.053 C 
ATOM      4  C   UNL     1     -38.014  25.283   3.047  0.00  0.00    +0.141 C 
ATOM      5  C   UNL     1     -36.488  23.508   3.646  0.00  0.00    +0.098 C 
ATOM      6  C   UNL     1     -38.826  24.434   2.375  0.00  0.00    +0.128 C 
ATOM      7  C   UNL     1     -38.456  22.972   2.309  0.00  0.00    +0.281 C 
ENDROOT
BRANCH   3   8
ATOM      8  C   UNL     1     -35.886  25.770   4.420  0.00  0.00    +0.111 C 
ATOM      9  C   UNL     1     -35.119  26.653   3.420  0.00  0.00    +0.034 C 
ATOM     10  C   UNL     1     -34.910  25.006   5.331  0.00  0.00    +0.034 C 
ATOM     11  C   UNL     1     -34.118  27.578   4.114  0.00  0.00    +0.032 C 
ATOM     12  C   UNL     1     -33.909  25.937   6.016  0.00  0.00    +0.032 C 
ATOM     13  C   UNL     1     -33.156  26.798   5.005  0.00  0.00    +0.111 C 
BRANCH   8  14
ATOM     14  O   UNL     1     -36.702  26.603   5.247  0.00  0.00    -0.383 OA
ATOM     15  H   UNL     1     -36.965  27.394   4.751  0.00  0.00    +0.211 HD
ENDBRANCH   8  14
BRANCH  13  16
ATOM     16  O   UNL     1     -32.319  27.704   5.716  0.00  0.00    -0.384 OA
ATOM     17  H   UNL     1     -32.421  28.596   5.346  0.00  0.00    +0.210 HD
ENDBRANCH  13  16
ENDBRANCH   3   8
BRANCH   4  18
ATOM     18  O   UNL     1     -38.318  26.631   3.132  0.00  0.00    -0.505 OA
ATOM     19  H   UNL     1     -38.793  26.959   3.870  0.00  0.00    +0.292 HD
ENDBRANCH   4  18
BRANCH   2  20
ATOM     20  O   UNL     1     -36.961  21.288   3.020  0.00  0.00    -0.287 OA
ATOM     21  H   UNL     1     -36.573  20.921   3.790  0.00  0.00    +0.242 HD
ENDBRANCH   2  20
BRANCH   6  23
ATOM     22  O   UNL     1     -40.155  24.954   0.503  0.00  0.00    -0.286 OA
ATOM     23  C   UNL     1     -40.045  24.942   1.723  0.00  0.00    +0.203 C 
BRANCH  23  24
ATOM     24  C   UNL     1     -41.092  25.426   2.657  0.00  0.00    +0.042 C 
ATOM     25  C   UNL     1     -42.055  26.247   2.214  0.00  0.00    +0.003 C 
BRANCH  25  27
ATOM     26  C   UNL     1     -43.087  27.868   3.776  0.00  0.00    -0.005 C 
ATOM     27  C   UNL     1     -43.143  26.757   3.022  0.00  0.00    -0.000 C 
BRANCH  26  29
ATOM     28  C   UNL     1     -44.334  29.773   4.600  0.00  0.00    -0.031 C 
ATOM     29  C   UNL     1     -44.173  28.432   4.583  0.00  0.00    -0.026 C 
ATOM     30  C   UNL     1     -45.033  27.473   5.363  0.00  0.00    +0.031 C 
BRANCH  28  31
ATOM     31  C   UNL     1     -45.387  30.584   5.329  0.00  0.00    +0.022 C 
ATOM     32  C   UNL     1     -46.167  31.421   4.311  0.00  0.00    +0.005 C 
BRANCH  31  33
ATOM     33  C   UNL     1     -44.699  31.451   6.406  0.00  0.00    +0.004 C 
BRANCH  33  34
ATOM     34  C   UNL     1     -44.943  31.020   7.868  0.00  0.00    +0.000 C 
ATOM     35  C   UNL     1     -43.708  30.365   8.492  0.00  0.00    +0.000 C 
BRANCH  34  36
ATOM     36  C   UNL     1     -46.184  30.108   7.979  0.00  0.00    +0.000 C 
ATOM     37  C   UNL     1     -45.962  28.782   8.695  0.00  0.00    +0.000 C 
ENDBRANCH  34  36
ENDBRANCH  33  34
ENDBRANCH  31  33
ENDBRANCH  28  31
ENDBRANCH  26  29
ENDBRANCH  25  27
ENDBRANCH  23  24
ENDBRANCH   6  23
TORSDOF 13
ENDMDL
MODEL 8
REMARK VINA RESULT:      -6.8      1.975      3.839
REMARK  Name = 54691339
REMARK  13 active torsions:
REMARK  status: ('A' for Active; 'I' for Inactive)
REMARK    1  A    between atoms: N_2  and  O_20
REMARK    2  A    between atoms: C_3  and  C_8
REMARK    3  A    between atoms: C_4  and  O_18
REMARK    4  A    between atoms: C_6  and  C_23
REMARK    5  A    between atoms: C_8  and  O_14
REMARK    6  A    between atoms: C_13  and  O_16
REMARK    7  A    between atoms: C_23  and  C_24
REMARK    8  A    between atoms: C_25  and  C_27
REMARK    9  A    between atoms: C_26  and  C_29
REMARK   10  A    between atoms: C_28  and  C_31
REMARK   11  A    between atoms: C_31  and  C_33
REMARK   12  A    between atoms: C_33  and  C_34
REMARK   13  A    between atoms: C_34  and  C_36
REMARK                            x       y       z     vdW  Elec       q    Type
REMARK                         _______ _______ _______ _____ _____    ______ ____
ROOT
ATOM      1  O   UNL     1     -37.990  21.642   2.223  0.00  0.00    -0.267 OA
ATOM      2  N   UNL     1     -36.386  22.503   3.640  0.00  0.00    -0.145 N 
ATOM      3  C   UNL     1     -36.093  24.804   3.957  0.00  0.00    +0.053 C 
ATOM      4  C   UNL     1     -37.233  25.034   3.067  0.00  0.00    +0.141 C 
ATOM      5  C   UNL     1     -35.713  23.541   4.208  0.00  0.00    +0.098 C 
ATOM      6  C   UNL     1     -37.891  24.008   2.481  0.00  0.00    +0.128 C 
ATOM      7  C   UNL     1     -37.435  22.597   2.762  0.00  0.00    +0.281 C 
ENDROOT
BRANCH   3   8
ATOM      8  C   UNL     1     -35.355  25.953   4.578  0.00  0.00    +0.111 C 
ATOM      9  C   UNL     1     -34.586  26.751   3.510  0.00  0.00    +0.034 C 
ATOM     10  C   UNL     1     -34.399  25.450   5.673  0.00  0.00    +0.034 C 
ATOM     11  C   UNL     1     -33.749  27.876   4.119  0.00  0.00    +0.032 C 
ATOM     12  C   UNL     1     -33.561  26.579   6.273  0.00  0.00    +0.032 C 
ATOM     13  C   UNL     1     -32.803  27.352   5.196  0.00  0.00    +0.111 C 
BRANCH   8  14
ATOM     14  O   UNL     1     -36.321  26.808   5.194  0.00  0.00    -0.383 OA
ATOM     15  H   UNL     1     -37.207  26.432   5.077  0.00  0.00    +0.211 HD
ENDBRANCH   8  14
BRANCH  13  16
ATOM     16  O   UNL     1     -32.127  28.443   5.813  0.00  0.00    -0.384 OA
ATOM     17  H   UNL     1     -32.777  29.100   6.108  0.00  0.00    +0.210 HD
ENDBRANCH  13  16
ENDBRANCH   3   8
BRANCH   4  18
ATOM     18  O   UNL     1     -37.619  26.344   2.837  0.00  0.00    -0.505 OA
ATOM     19  H   UNL     1     -37.015  26.951   2.457  0.00  0.00    +0.292 HD
ENDBRANCH   4  18
BRANCH   2  20
ATOM     20  O   UNL     1     -35.967  21.212   3.988  0.00  0.00    -0.287 OA
ATOM     21  H   UNL     1     -36.539  20.648   4.471  0.00  0.00    +0.242 HD
ENDBRANCH   2  20
BRANCH   6  23
ATOM     22  O   UNL     1     -38.905  24.233   0.370  0.00  0.00    -0.286 OA
ATOM     23  C   UNL     1     -39.029  24.278   1.587  0.00  0.00    +0.203 C 
BRANCH  23  24
ATOM     24  C   UNL     1     -40.301  24.600   2.282  0.00  0.00    +0.042 C 
ATOM     25  C   UNL     1     -40.926  25.759   2.028  0.00  0.00    +0.003 C 
BRANCH  25  27
ATOM     26  C   UNL     1     -42.340  27.212   3.450  0.00  0.00    -0.005 C 
ATOM     27  C   UNL     1     -42.183  26.167   2.619  0.00  0.00    -0.000 C 
BRANCH  26  29
ATOM     28  C   UNL     1     -44.530  26.754   4.374  0.00  0.00    -0.031 C 
ATOM     29  C   UNL     1     -43.597  27.674   4.045  0.00  0.00    -0.026 C 
ATOM     30  C   UNL     1     -43.776  29.157   4.234  0.00  0.00    +0.031 C 
BRANCH  28  31
ATOM     31  C   UNL     1     -45.884  26.978   5.017  0.00  0.00    +0.022 C 
ATOM     32  C   UNL     1     -45.811  26.570   6.492  0.00  0.00    +0.005 C 
BRANCH  31  33
ATOM     33  C   UNL     1     -46.952  26.182   4.235  0.00  0.00    +0.004 C 
BRANCH  33  34
ATOM     34  C   UNL     1     -46.519  24.784   3.746  0.00  0.00    +0.000 C 
ATOM     35  C   UNL     1     -46.251  24.754   2.239  0.00  0.00    +0.000 C 
BRANCH  34  36
ATOM     36  C   UNL     1     -47.547  23.708   4.159  0.00  0.00    +0.000 C 
ATOM     37  C   UNL     1     -48.300  23.982   5.455  0.00  0.00    +0.000 C 
ENDBRANCH  34  36
ENDBRANCH  33  34
ENDBRANCH  31  33
ENDBRANCH  28  31
ENDBRANCH  26  29
ENDBRANCH  25  27
ENDBRANCH  23  24
ENDBRANCH   6  23
TORSDOF 13
ENDMDL
MODEL 9
REMARK VINA RESULT:      -6.8      4.946     10.555
REMARK  Name = 54691339
REMARK  13 active torsions:
REMARK  status: ('A' for Active; 'I' for Inactive)
REMARK    1  A    between atoms: N_2  and  O_20
REMARK    2  A    between atoms: C_3  and  C_8
REMARK    3  A    between atoms: C_4  and  O_18
REMARK    4  A    between atoms: C_6  and  C_23
REMARK    5  A    between atoms: C_8  and  O_14
REMARK    6  A    between atoms: C_13  and  O_16
REMARK    7  A    between atoms: C_23  and  C_24
REMARK    8  A    between atoms: C_25  and  C_27
REMARK    9  A    between atoms: C_26  and  C_29
REMARK   10  A    between atoms: C_28  and  C_31
REMARK   11  A    between atoms: C_31  and  C_33
REMARK   12  A    between atoms: C_33  and  C_34
REMARK   13  A    between atoms: C_34  and  C_36
REMARK                            x       y       z     vdW  Elec       q    Type
REMARK                         _______ _______ _______ _____ _____    ______ ____
ROOT
ATOM      1  O   UNL     1     -35.178  20.917   3.713  0.00  0.00    -0.267 OA
ATOM      2  N   UNL     1     -36.998  21.533   2.438  0.00  0.00    -0.145 N 
ATOM      3  C   UNL     1     -38.193  23.509   2.825  0.00  0.00    +0.053 C 
ATOM      4  C   UNL     1     -37.239  23.835   3.886  0.00  0.00    +0.141 C 
ATOM      5  C   UNL     1     -38.035  22.365   2.142  0.00  0.00    +0.098 C 
ATOM      6  C   UNL     1     -36.221  23.002   4.202  0.00  0.00    +0.128 C 
ATOM      7  C   UNL     1     -36.072  21.712   3.433  0.00  0.00    +0.281 C 
ENDROOT
BRANCH   3   8
ATOM      8  C   UNL     1     -39.335  24.429   2.505  0.00  0.00    +0.111 C 
ATOM      9  C   UNL     1     -40.383  23.718   1.630  0.00  0.00    +0.034 C 
ATOM     10  C   UNL     1     -38.820  25.702   1.811  0.00  0.00    +0.034 C 
ATOM     11  C   UNL     1     -41.515  24.655   1.209  0.00  0.00    +0.032 C 
ATOM     12  C   UNL     1     -39.959  26.630   1.386  0.00  0.00    +0.032 C 
ATOM     13  C   UNL     1     -40.982  25.905   0.516  0.00  0.00    +0.111 C 
BRANCH   8  14
ATOM     14  O   UNL     1     -39.941  24.814   3.740  0.00  0.00    -0.383 OA
ATOM     15  H   UNL     1     -40.687  25.408   3.564  0.00  0.00    +0.211 HD
ENDBRANCH   8  14
BRANCH  13  16
ATOM     16  O   UNL     1     -42.057  26.797   0.243  0.00  0.00    -0.384 OA
ATOM     17  H   UNL     1     -42.801  26.598   0.834  0.00  0.00    +0.210 HD
ENDBRANCH  13  16
ENDBRANCH   3   8
BRANCH   4  18
ATOM     18  O   UNL     1     -37.411  25.029   4.567  0.00  0.00    -0.505 OA
ATOM     19  H   UNL     1     -36.877  25.224   5.313  0.00  0.00    +0.292 HD
ENDBRANCH   4  18
BRANCH   2  20
ATOM     20  O   UNL     1     -36.864  20.383   1.649  0.00  0.00    -0.287 OA
ATOM     21  H   UNL     1     -36.061  20.218   1.194  0.00  0.00    +0.242 HD
ENDBRANCH   2  20
BRANCH   6  23
ATOM     22  O   UNL     1     -35.336  22.813   6.374  0.00  0.00    -0.286 OA
ATOM     23  C   UNL     1     -35.283  23.360   5.280  0.00  0.00    +0.203 C 
BRANCH  23  24
ATOM     24  C   UNL     1     -34.302  24.415   4.923  0.00  0.00    +0.042 C 
ATOM     25  C   UNL     1     -34.278  25.565   5.612  0.00  0.00    +0.003 C 
BRANCH  25  27
ATOM     26  C   UNL     1     -32.726  27.353   6.340  0.00  0.00    -0.005 C 
ATOM     27  C   UNL     1     -33.349  26.650   5.377  0.00  0.00    -0.000 C 
BRANCH  26  29
ATOM     28  C   UNL     1     -30.931  28.374   5.078  0.00  0.00    -0.031 C 
ATOM     29  C   UNL     1     -31.760  28.436   6.143  0.00  0.00    -0.026 C 
ATOM     30  C   UNL     1     -31.740  29.547   7.159  0.00  0.00    +0.031 C 
BRANCH  28  31
ATOM     31  C   UNL     1     -29.874  29.374   4.651  0.00  0.00    +0.022 C 
ATOM     32  C   UNL     1     -30.313  30.037   3.341  0.00  0.00    +0.005 C 
BRANCH  31  33
ATOM     33  C   UNL     1     -28.517  28.649   4.521  0.00  0.00    +0.004 C 
BRANCH  33  34
ATOM     34  C   UNL     1     -27.606  28.705   5.766  0.00  0.00    +0.000 C 
ATOM     35  C   UNL     1     -27.636  27.400   6.565  0.00  0.00    +0.000 C 
BRANCH  34  36
ATOM     36  C   UNL     1     -27.953  29.920   6.654  0.00  0.00    +0.000 C 
ATOM     37  C   UNL     1     -28.205  29.609   8.123  0.00  0.00    +0.000 C 
ENDBRANCH  34  36
ENDBRANCH  33  34
ENDBRANCH  31  33
ENDBRANCH  28  31
ENDBRANCH  26  29
ENDBRANCH  25  27
ENDBRANCH  23  24
ENDBRANCH   6  23
TORSDOF 13
ENDMDL
