MODEL 1
REMARK VINA RESULT:      -5.4      0.000      0.000
REMARK  Name = 5317993
REMARK  12 active torsions:
REMARK  status: ('A' for Active; 'I' for Inactive)
REMARK    1  A    between atoms: C_3  and  O_10
REMARK    2  A    between atoms: C_6  and  C_17
REMARK    3  A    between atoms: O_10  and  C_12
REMARK    4  A    between atoms: C_12  and  C_13
REMARK    5  A    between atoms: C_17  and  O_18
REMARK    6  A    between atoms: O_18  and  C_20
REMARK    7  A    between atoms: C_20  and  C_21
REMARK    8  A    between atoms: C_21  and  C_22
REMARK    9  A    between atoms: C_21  and  O_27
REMARK   10  A    between atoms: C_21  and  C_29
REMARK   11  A    between atoms: C_22  and  O_25
REMARK   12  A    between atoms: C_29  and  O_31
REMARK                            x       y       z     vdW  Elec       q    Type
REMARK                         _______ _______ _______ _____ _____    ______ ____
ROOT
ATOM      1  N   UNL     1     -40.324  23.231   1.875  0.00  0.00    +0.396 N 
ATOM      2  C   UNL     1     -39.232  23.917   2.632  0.00  0.00    +0.006 C 
ATOM      3  C   UNL     1     -37.993  23.033   2.474  0.00  0.00    +0.152 C 
ATOM      4  C   UNL     1     -38.552  21.709   1.982  0.00  0.00    +0.019 C 
ATOM      5  C   UNL     1     -39.692  22.158   1.092  0.00  0.00    -0.073 C 
ATOM      6  C   UNL     1     -39.119  25.287   2.036  0.00  0.00    -0.023 C 
ATOM      7  C   UNL     1     -40.944  24.262   1.014  0.00  0.00    -0.050 C 
ATOM      8  C   UNL     1     -40.083  25.475   1.131  0.00  0.00    -0.056 C 
ATOM      9  H   UNL     1     -41.045  22.817   2.466  0.00  0.00    -0.079 HD
ENDROOT
BRANCH   3  10
ATOM     10  O   UNL     1     -37.327  22.870   3.713  0.00  0.00    -0.451 OA
BRANCH  10  12
ATOM     11  O   UNL     1     -35.223  23.238   2.855  0.00  0.00    -0.245 OA
ATOM     12  C   UNL     1     -36.033  23.311   3.768  0.00  0.00    +0.337 C 
BRANCH  12  13
ATOM     13  C   UNL     1     -35.747  23.892   5.115  0.00  0.00    +0.049 C 
ATOM     14  C   UNL     1     -35.945  25.365   5.311  0.00  0.00    +0.037 C 
ATOM     15  C   UNL     1     -35.301  23.027   6.044  0.00  0.00    -0.024 C 
ATOM     16  C   UNL     1     -35.061  21.560   5.874  0.00  0.00    +0.031 C 
ENDBRANCH  12  13
ENDBRANCH  10  12
ENDBRANCH   3  10
BRANCH   6  17
ATOM     17  C   UNL     1     -38.093  26.267   2.475  0.00  0.00    +0.229 C 
BRANCH  17  18
ATOM     18  O   UNL     1     -37.047  26.357   1.502  0.00  0.00    -0.442 OA
BRANCH  18  20
ATOM     19  O   UNL     1     -36.900  28.646   1.384  0.00  0.00    -0.247 OA
ATOM     20  C   UNL     1     -36.374  27.542   1.462  0.00  0.00    +0.346 C 
BRANCH  20  21
ATOM     21  C   UNL     1     -34.855  27.314   1.522  0.00  0.00    +0.224 C 
BRANCH  21  22
ATOM     22  C   UNL     1     -34.194  28.082   2.713  0.00  0.00    +0.123 C 
ATOM     23  C   UNL     1     -33.462  29.354   2.245  0.00  0.00    +0.032 C 
ATOM     24  C   UNL     1     -33.185  27.201   3.472  0.00  0.00    +0.032 C 
BRANCH  22  25
ATOM     25  O   UNL     1     -35.193  28.489   3.651  0.00  0.00    -0.384 OA
ATOM     26  H   UNL     1     -35.332  29.446   3.580  0.00  0.00    +0.210 HD
ENDBRANCH  22  25
ENDBRANCH  21  22
BRANCH  21  27
ATOM     27  O   UNL     1     -34.739  25.907   1.832  0.00  0.00    -0.373 OA
ATOM     28  H   UNL     1     -33.831  25.613   1.660  0.00  0.00    +0.211 HD
ENDBRANCH  21  27
BRANCH  21  29
ATOM     29  C   UNL     1     -34.187  27.495   0.129  0.00  0.00    +0.148 C 
ATOM     30  C   UNL     1     -33.097  26.509  -0.272  0.00  0.00    +0.035 C 
BRANCH  29  31
ATOM     31  O   UNL     1     -35.196  27.476  -0.890  0.00  0.00    -0.381 OA
ATOM     32  H   UNL     1     -34.915  28.033  -1.633  0.00  0.00    +0.210 HD
ENDBRANCH  29  31
ENDBRANCH  21  29
ENDBRANCH  20  21
ENDBRANCH  18  20
ENDBRANCH  17  18
ENDBRANCH   6  17
TORSDOF 12
ENDMDL
MODEL 2
REMARK VINA RESULT:      -5.4      2.710      4.960
REMARK  Name = 5317993
REMARK  12 active torsions:
REMARK  status: ('A' for Active; 'I' for Inactive)
REMARK    1  A    between atoms: C_3  and  O_10
REMARK    2  A    between atoms: C_6  and  C_17
REMARK    3  A    between atoms: O_10  and  C_12
REMARK    4  A    between atoms: C_12  and  C_13
REMARK    5  A    between atoms: C_17  and  O_18
REMARK    6  A    between atoms: O_18  and  C_20
REMARK    7  A    between atoms: C_20  and  C_21
REMARK    8  A    between atoms: C_21  and  C_22
REMARK    9  A    between atoms: C_21  and  O_27
REMARK   10  A    between atoms: C_21  and  C_29
REMARK   11  A    between atoms: C_22  and  O_25
REMARK   12  A    between atoms: C_29  and  O_31
REMARK                            x       y       z     vdW  Elec       q    Type
REMARK                         _______ _______ _______ _____ _____    ______ ____
ROOT
ATOM      1  N   UNL     1     -36.251  20.479   0.174  0.00  0.00    +0.396 N 
ATOM      2  C   UNL     1     -36.978  20.839   1.429  0.00  0.00    +0.006 C 
ATOM      3  C   UNL     1     -36.196  21.999   2.050  0.00  0.00    +0.152 C 
ATOM      4  C   UNL     1     -34.861  21.962   1.328  0.00  0.00    +0.019 C 
ATOM      5  C   UNL     1     -35.266  21.544  -0.069  0.00  0.00    -0.073 C 
ATOM      6  C   UNL     1     -38.380  21.164   1.011  0.00  0.00    -0.023 C 
ATOM      7  C   UNL     1     -37.274  20.407  -0.893  0.00  0.00    -0.050 C 
ATOM      8  C   UNL     1     -38.539  20.918  -0.292  0.00  0.00    -0.056 C 
ATOM      9  H   UNL     1     -35.757  19.588   0.219  0.00  0.00    -0.079 HD
ENDROOT
BRANCH   3  10
ATOM     10  O   UNL     1     -36.024  21.805   3.442  0.00  0.00    -0.451 OA
BRANCH  10  12
ATOM     11  O   UNL     1     -37.203  23.660   4.131  0.00  0.00    -0.245 OA
ATOM     12  C   UNL     1     -36.255  22.895   4.237  0.00  0.00    +0.337 C 
BRANCH  12  13
ATOM     13  C   UNL     1     -35.170  23.020   5.258  0.00  0.00    +0.049 C 
ATOM     14  C   UNL     1     -35.213  22.117   6.455  0.00  0.00    +0.037 C 
ATOM     15  C   UNL     1     -34.249  23.972   5.022  0.00  0.00    -0.024 C 
ATOM     16  C   UNL     1     -34.195  24.910   3.858  0.00  0.00    +0.031 C 
ENDBRANCH  12  13
ENDBRANCH  10  12
ENDBRANCH   3  10
BRANCH   6  17
ATOM     17  C   UNL     1     -39.411  21.636   1.971  0.00  0.00    +0.229 C 
BRANCH  17  18
ATOM     18  O   UNL     1     -39.307  23.051   2.153  0.00  0.00    -0.442 OA
BRANCH  18  20
ATOM     19  O   UNL     1     -41.264  23.358   0.991  0.00  0.00    -0.247 OA
ATOM     20  C   UNL     1     -40.250  23.802   1.516  0.00  0.00    +0.346 C 
BRANCH  20  21
ATOM     21  C   UNL     1     -39.872  25.292   1.537  0.00  0.00    +0.224 C 
BRANCH  21  22
ATOM     22  C   UNL     1     -38.467  25.550   0.899  0.00  0.00    +0.123 C 
ATOM     23  C   UNL     1     -38.264  27.032   0.531  0.00  0.00    +0.032 C 
ATOM     24  C   UNL     1     -38.251  24.706  -0.370  0.00  0.00    +0.032 C 
BRANCH  22  25
ATOM     25  O   UNL     1     -37.436  25.198   1.824  0.00  0.00    -0.384 OA
ATOM     26  H   UNL     1     -37.708  25.445   2.721  0.00  0.00    +0.210 HD
ENDBRANCH  22  25
ENDBRANCH  21  22
BRANCH  21  27
ATOM     27  O   UNL     1     -40.838  25.896   0.648  0.00  0.00    -0.373 OA
ATOM     28  H   UNL     1     -41.338  26.575   1.127  0.00  0.00    +0.211 HD
ENDBRANCH  21  27
BRANCH  21  29
ATOM     29  C   UNL     1     -40.124  25.934   2.931  0.00  0.00    +0.148 C 
ATOM     30  C   UNL     1     -41.536  26.406   3.253  0.00  0.00    +0.035 C 
BRANCH  29  31
ATOM     31  O   UNL     1     -39.720  25.018   3.958  0.00  0.00    -0.381 OA
ATOM     32  H   UNL     1     -39.773  24.110   3.621  0.00  0.00    +0.210 HD
ENDBRANCH  29  31
ENDBRANCH  21  29
ENDBRANCH  20  21
ENDBRANCH  18  20
ENDBRANCH  17  18
ENDBRANCH   6  17
TORSDOF 12
ENDMDL
MODEL 3
REMARK VINA RESULT:      -5.3      2.435      5.740
REMARK  Name = 5317993
REMARK  12 active torsions:
REMARK  status: ('A' for Active; 'I' for Inactive)
REMARK    1  A    between atoms: C_3  and  O_10
REMARK    2  A    between atoms: C_6  and  C_17
REMARK    3  A    between atoms: O_10  and  C_12
REMARK    4  A    between atoms: C_12  and  C_13
REMARK    5  A    between atoms: C_17  and  O_18
REMARK    6  A    between atoms: O_18  and  C_20
REMARK    7  A    between atoms: C_20  and  C_21
REMARK    8  A    between atoms: C_21  and  C_22
REMARK    9  A    between atoms: C_21  and  O_27
REMARK   10  A    between atoms: C_21  and  C_29
REMARK   11  A    between atoms: C_22  and  O_25
REMARK   12  A    between atoms: C_29  and  O_31
REMARK                            x       y       z     vdW  Elec       q    Type
REMARK                         _______ _______ _______ _____ _____    ______ ____
ROOT
ATOM      1  N   UNL     1     -33.481  27.141   3.464  0.00  0.00    +0.396 N 
ATOM      2  C   UNL     1     -34.432  26.194   2.805  0.00  0.00    +0.006 C 
ATOM      3  C   UNL     1     -34.910  25.245   3.906  0.00  0.00    +0.152 C 
ATOM      4  C   UNL     1     -33.904  25.452   5.025  0.00  0.00    +0.019 C 
ATOM      5  C   UNL     1     -33.608  26.933   4.915  0.00  0.00    -0.073 C 
ATOM      6  C   UNL     1     -35.499  27.049   2.191  0.00  0.00    -0.023 C 
ATOM      7  C   UNL     1     -33.896  28.500   3.054  0.00  0.00    -0.050 C 
ATOM      8  C   UNL     1     -35.192  28.340   2.333  0.00  0.00    -0.056 C 
ATOM      9  H   UNL     1     -32.505  27.000   3.203  0.00  0.00    -0.079 HD
ENDROOT
BRANCH   3  10
ATOM     10  O   UNL     1     -34.896  23.902   3.457  0.00  0.00    -0.451 OA
BRANCH  10  12
ATOM     11  O   UNL     1     -37.110  23.534   3.969  0.00  0.00    -0.245 OA
ATOM     12  C   UNL     1     -35.966  23.130   3.821  0.00  0.00    +0.337 C 
BRANCH  12  13
ATOM     13  C   UNL     1     -35.531  21.714   4.019  0.00  0.00    +0.049 C 
ATOM     14  C   UNL     1     -35.488  20.810   2.823  0.00  0.00    +0.037 C 
ATOM     15  C   UNL     1     -35.237  21.362   5.284  0.00  0.00    -0.024 C 
ATOM     16  C   UNL     1     -35.301  22.228   6.502  0.00  0.00    +0.031 C 
ENDBRANCH  12  13
ENDBRANCH  10  12
ENDBRANCH   3  10
BRANCH   6  17
ATOM     17  C   UNL     1     -36.678  26.475   1.492  0.00  0.00    +0.229 C 
BRANCH  17  18
ATOM     18  O   UNL     1     -37.871  26.739   2.235  0.00  0.00    -0.442 OA
BRANCH  18  20
ATOM     19  O   UNL     1     -39.228  27.461   0.528  0.00  0.00    -0.247 OA
ATOM     20  C   UNL     1     -39.028  26.760   1.514  0.00  0.00    +0.346 C 
BRANCH  20  21
ATOM     21  C   UNL     1     -40.061  25.787   2.103  0.00  0.00    +0.224 C 
BRANCH  21  22
ATOM     22  C   UNL     1     -40.175  24.473   1.261  0.00  0.00    +0.123 C 
ATOM     23  C   UNL     1     -41.558  24.331   0.597  0.00  0.00    +0.032 C 
ATOM     24  C   UNL     1     -39.925  23.220   2.120  0.00  0.00    +0.032 C 
BRANCH  22  25
ATOM     25  O   UNL     1     -39.202  24.473   0.215  0.00  0.00    -0.384 OA
ATOM     26  H   UNL     1     -38.417  23.982   0.504  0.00  0.00    +0.210 HD
ENDBRANCH  22  25
ENDBRANCH  21  22
BRANCH  21  27
ATOM     27  O   UNL     1     -39.481  25.407   3.370  0.00  0.00    -0.373 OA
ATOM     28  H   UNL     1     -38.518  25.337   3.277  0.00  0.00    +0.211 HD
ENDBRANCH  21  27
BRANCH  21  29
ATOM     29  C   UNL     1     -41.398  26.501   2.449  0.00  0.00    +0.148 C 
ATOM     30  C   UNL     1     -41.745  26.691   3.920  0.00  0.00    +0.035 C 
BRANCH  29  31
ATOM     31  O   UNL     1     -41.428  27.790   1.819  0.00  0.00    -0.381 OA
ATOM     32  H   UNL     1     -40.520  28.095   1.666  0.00  0.00    +0.210 HD
ENDBRANCH  29  31
ENDBRANCH  21  29
ENDBRANCH  20  21
ENDBRANCH  18  20
ENDBRANCH  17  18
ENDBRANCH   6  17
TORSDOF 12
ENDMDL
MODEL 4
REMARK VINA RESULT:      -5.3      3.396      5.378
REMARK  Name = 5317993
REMARK  12 active torsions:
REMARK  status: ('A' for Active; 'I' for Inactive)
REMARK    1  A    between atoms: C_3  and  O_10
REMARK    2  A    between atoms: C_6  and  C_17
REMARK    3  A    between atoms: O_10  and  C_12
REMARK    4  A    between atoms: C_12  and  C_13
REMARK    5  A    between atoms: C_17  and  O_18
REMARK    6  A    between atoms: O_18  and  C_20
REMARK    7  A    between atoms: C_20  and  C_21
REMARK    8  A    between atoms: C_21  and  C_22
REMARK    9  A    between atoms: C_21  and  O_27
REMARK   10  A    between atoms: C_21  and  C_29
REMARK   11  A    between atoms: C_22  and  O_25
REMARK   12  A    between atoms: C_29  and  O_31
REMARK                            x       y       z     vdW  Elec       q    Type
REMARK                         _______ _______ _______ _____ _____    ______ ____
ROOT
ATOM      1  N   UNL     1     -36.290  27.382   2.349  0.00  0.00    +0.396 N 
ATOM      2  C   UNL     1     -35.783  26.587   3.510  0.00  0.00    +0.006 C 
ATOM      3  C   UNL     1     -35.774  25.128   3.048  0.00  0.00    +0.152 C 
ATOM      4  C   UNL     1     -36.649  25.136   1.807  0.00  0.00    +0.019 C 
ATOM      5  C   UNL     1     -36.312  26.477   1.190  0.00  0.00    -0.073 C 
ATOM      6  C   UNL     1     -34.438  27.161   3.841  0.00  0.00    -0.023 C 
ATOM      7  C   UNL     1     -35.343  28.504   2.167  0.00  0.00    -0.050 C 
ATOM      8  C   UNL     1     -34.198  28.235   3.086  0.00  0.00    -0.056 C 
ATOM      9  H   UNL     1     -37.228  27.760   2.481  0.00  0.00    -0.079 HD
ENDROOT
BRANCH   3  10
ATOM     10  O   UNL     1     -36.317  24.280   4.043  0.00  0.00    -0.451 OA
BRANCH  10  12
ATOM     11  O   UNL     1     -37.915  22.802   3.291  0.00  0.00    -0.245 OA
ATOM     12  C   UNL     1     -36.765  23.059   3.619  0.00  0.00    +0.337 C 
BRANCH  12  13
ATOM     13  C   UNL     1     -35.640  22.074   3.620  0.00  0.00    +0.049 C 
ATOM     14  C   UNL     1     -35.171  21.529   2.304  0.00  0.00    +0.037 C 
ATOM     15  C   UNL     1     -35.158  21.735   4.830  0.00  0.00    -0.024 C 
ATOM     16  C   UNL     1     -35.624  22.232   6.162  0.00  0.00    +0.031 C 
ENDBRANCH  12  13
ENDBRANCH  10  12
ENDBRANCH   3  10
BRANCH   6  17
ATOM     17  C   UNL     1     -33.570  26.598   4.907  0.00  0.00    +0.229 C 
BRANCH  17  18
ATOM     18  O   UNL     1     -32.275  27.203   4.861  0.00  0.00    -0.442 OA
BRANCH  18  20
ATOM     19  O   UNL     1     -32.552  28.052   6.977  0.00  0.00    -0.247 OA
ATOM     20  C   UNL     1     -31.971  28.035   5.898  0.00  0.00    +0.346 C 
BRANCH  20  21
ATOM     21  C   UNL     1     -30.799  28.960   5.535  0.00  0.00    +0.224 C 
BRANCH  21  22
ATOM     22  C   UNL     1     -29.467  28.518   6.229  0.00  0.00    +0.123 C 
ATOM     23  C   UNL     1     -29.040  29.501   7.336  0.00  0.00    +0.032 C 
ATOM     24  C   UNL     1     -28.310  28.399   5.221  0.00  0.00    +0.032 C 
BRANCH  22  25
ATOM     25  O   UNL     1     -29.633  27.237   6.840  0.00  0.00    -0.384 OA
ATOM     26  H   UNL     1     -28.932  26.641   6.536  0.00  0.00    +0.210 HD
ENDBRANCH  22  25
ENDBRANCH  21  22
BRANCH  21  27
ATOM     27  O   UNL     1     -30.615  28.731   4.121  0.00  0.00    -0.373 OA
ATOM     28  H   UNL     1     -30.928  27.841   3.894  0.00  0.00    +0.211 HD
ENDBRANCH  21  27
BRANCH  21  29
ATOM     29  C   UNL     1     -31.182  30.461   5.672  0.00  0.00    +0.148 C 
ATOM     30  C   UNL     1     -30.584  31.443   4.673  0.00  0.00    +0.035 C 
BRANCH  29  31
ATOM     31  O   UNL     1     -32.609  30.595   5.623  0.00  0.00    -0.381 OA
ATOM     32  H   UNL     1     -32.986  29.860   5.114  0.00  0.00    +0.210 HD
ENDBRANCH  29  31
ENDBRANCH  21  29
ENDBRANCH  20  21
ENDBRANCH  18  20
ENDBRANCH  17  18
ENDBRANCH   6  17
TORSDOF 12
ENDMDL
MODEL 5
REMARK VINA RESULT:      -5.3      3.506      5.579
REMARK  Name = 5317993
REMARK  12 active torsions:
REMARK  status: ('A' for Active; 'I' for Inactive)
REMARK    1  A    between atoms: C_3  and  O_10
REMARK    2  A    between atoms: C_6  and  C_17
REMARK    3  A    between atoms: O_10  and  C_12
REMARK    4  A    between atoms: C_12  and  C_13
REMARK    5  A    between atoms: C_17  and  O_18
REMARK    6  A    between atoms: O_18  and  C_20
REMARK    7  A    between atoms: C_20  and  C_21
REMARK    8  A    between atoms: C_21  and  C_22
REMARK    9  A    between atoms: C_21  and  O_27
REMARK   10  A    between atoms: C_21  and  C_29
REMARK   11  A    between atoms: C_22  and  O_25
REMARK   12  A    between atoms: C_29  and  O_31
REMARK                            x       y       z     vdW  Elec       q    Type
REMARK                         _______ _______ _______ _____ _____    ______ ____
ROOT
ATOM      1  N   UNL     1     -33.533  25.012   0.363  0.00  0.00    +0.396 N 
ATOM      2  C   UNL     1     -34.087  25.567   1.636  0.00  0.00    +0.006 C 
ATOM      3  C   UNL     1     -34.780  24.397   2.338  0.00  0.00    +0.152 C 
ATOM      4  C   UNL     1     -34.926  23.354   1.244  0.00  0.00    +0.019 C 
ATOM      5  C   UNL     1     -33.652  23.549   0.448  0.00  0.00    -0.073 C 
ATOM      6  C   UNL     1     -32.918  26.151   2.371  0.00  0.00    -0.023 C 
ATOM      7  C   UNL     1     -32.123  25.457   0.295  0.00  0.00    -0.050 C 
ATOM      8  C   UNL     1     -31.821  26.087   1.613  0.00  0.00    -0.056 C 
ATOM      9  H   UNL     1     -34.019  25.327  -0.476  0.00  0.00    -0.079 HD
ENDROOT
BRANCH   3  10
ATOM     10  O   UNL     1     -36.046  24.785   2.838  0.00  0.00    -0.451 OA
BRANCH  10  12
ATOM     11  O   UNL     1     -37.429  23.170   3.721  0.00  0.00    -0.245 OA
ATOM     12  C   UNL     1     -36.559  24.019   3.849  0.00  0.00    +0.337 C 
BRANCH  12  13
ATOM     13  C   UNL     1     -35.903  24.377   5.144  0.00  0.00    +0.049 C 
ATOM     14  C   UNL     1     -35.964  25.804   5.601  0.00  0.00    +0.037 C 
ATOM     15  C   UNL     1     -35.278  23.371   5.783  0.00  0.00    -0.024 C 
ATOM     16  C   UNL     1     -35.169  21.946   5.339  0.00  0.00    +0.031 C 
ENDBRANCH  12  13
ENDBRANCH  10  12
ENDBRANCH   3  10
BRANCH   6  17
ATOM     17  C   UNL     1     -33.043  26.749   3.725  0.00  0.00    +0.229 C 
BRANCH  17  18
ATOM     18  O   UNL     1     -31.799  27.328   4.127  0.00  0.00    -0.442 OA
BRANCH  18  20
ATOM     19  O   UNL     1     -32.660  27.940   6.166  0.00  0.00    -0.247 OA
ATOM     20  C   UNL     1     -31.829  28.065   5.274  0.00  0.00    +0.346 C 
BRANCH  20  21
ATOM     21  C   UNL     1     -30.679  29.084   5.304  0.00  0.00    +0.224 C 
BRANCH  21  22
ATOM     22  C   UNL     1     -29.479  28.589   6.177  0.00  0.00    +0.123 C 
ATOM     23  C   UNL     1     -29.157  29.568   7.322  0.00  0.00    +0.032 C 
ATOM     24  C   UNL     1     -28.203  28.394   5.339  0.00  0.00    +0.032 C 
BRANCH  22  25
ATOM     25  O   UNL     1     -29.793  27.329   6.774  0.00  0.00    -0.384 OA
ATOM     26  H   UNL     1     -30.480  27.452   7.447  0.00  0.00    +0.210 HD
ENDBRANCH  22  25
ENDBRANCH  21  22
BRANCH  21  27
ATOM     27  O   UNL     1     -30.207  29.099   3.938  0.00  0.00    -0.373 OA
ATOM     28  H   UNL     1     -29.326  29.502   3.905  0.00  0.00    +0.211 HD
ENDBRANCH  21  27
BRANCH  21  29
ATOM     29  C   UNL     1     -31.190  30.525   5.588  0.00  0.00    +0.148 C 
ATOM     30  C   UNL     1     -30.640  31.658   4.732  0.00  0.00    +0.035 C 
BRANCH  29  31
ATOM     31  O   UNL     1     -32.621  30.552   5.489  0.00  0.00    -0.381 OA
ATOM     32  H   UNL     1     -33.007  30.524   6.379  0.00  0.00    +0.210 HD
ENDBRANCH  29  31
ENDBRANCH  21  29
ENDBRANCH  20  21
ENDBRANCH  18  20
ENDBRANCH  17  18
ENDBRANCH   6  17
TORSDOF 12
ENDMDL
MODEL 6
REMARK VINA RESULT:      -5.3      3.192      6.047
REMARK  Name = 5317993
REMARK  12 active torsions:
REMARK  status: ('A' for Active; 'I' for Inactive)
REMARK    1  A    between atoms: C_3  and  O_10
REMARK    2  A    between atoms: C_6  and  C_17
REMARK    3  A    between atoms: O_10  and  C_12
REMARK    4  A    between atoms: C_12  and  C_13
REMARK    5  A    between atoms: C_17  and  O_18
REMARK    6  A    between atoms: O_18  and  C_20
REMARK    7  A    between atoms: C_20  and  C_21
REMARK    8  A    between atoms: C_21  and  C_22
REMARK    9  A    between atoms: C_21  and  O_27
REMARK   10  A    between atoms: C_21  and  C_29
REMARK   11  A    between atoms: C_22  and  O_25
REMARK   12  A    between atoms: C_29  and  O_31
REMARK                            x       y       z     vdW  Elec       q    Type
REMARK                         _______ _______ _______ _____ _____    ______ ____
ROOT
ATOM      1  N   UNL     1     -34.842  23.546   3.441  0.00  0.00    +0.396 N 
ATOM      2  C   UNL     1     -34.227  24.867   3.777  0.00  0.00    +0.006 C 
ATOM      3  C   UNL     1     -34.904  25.890   2.863  0.00  0.00    +0.152 C 
ATOM      4  C   UNL     1     -35.565  25.039   1.794  0.00  0.00    +0.019 C 
ATOM      5  C   UNL     1     -36.004  23.823   2.582  0.00  0.00    -0.073 C 
ATOM      6  C   UNL     1     -34.461  25.066   5.244  0.00  0.00    -0.023 C 
ATOM      7  C   UNL     1     -35.231  22.929   4.728  0.00  0.00    -0.050 C 
ATOM      8  C   UNL     1     -35.023  23.976   5.771  0.00  0.00    -0.056 C 
ATOM      9  H   UNL     1     -34.219  22.910   2.945  0.00  0.00    -0.079 HD
ENDROOT
BRANCH   3  10
ATOM     10  O   UNL     1     -33.950  26.767   2.292  0.00  0.00    -0.451 OA
BRANCH  10  12
ATOM     11  O   UNL     1     -34.521  28.728   3.356  0.00  0.00    -0.245 OA
ATOM     12  C   UNL     1     -34.248  28.102   2.342  0.00  0.00    +0.337 C 
BRANCH  12  13
ATOM     13  C   UNL     1     -34.199  28.687   0.967  0.00  0.00    +0.049 C 
ATOM     14  C   UNL     1     -32.862  29.065   0.402  0.00  0.00    +0.037 C 
ATOM     15  C   UNL     1     -35.387  28.854   0.357  0.00  0.00    -0.024 C 
ATOM     16  C   UNL     1     -36.739  28.520   0.904  0.00  0.00    +0.031 C 
ENDBRANCH  12  13
ENDBRANCH  10  12
ENDBRANCH   3  10
BRANCH   6  17
ATOM     17  C   UNL     1     -34.052  26.303   5.957  0.00  0.00    +0.229 C 
BRANCH  17  18
ATOM     18  O   UNL     1     -32.826  26.804   5.416  0.00  0.00    -0.442 OA
BRANCH  18  20
ATOM     19  O   UNL     1     -32.515  28.106   7.282  0.00  0.00    -0.247 OA
ATOM     20  C   UNL     1     -32.217  27.788   6.136  0.00  0.00    +0.346 C 
BRANCH  20  21
ATOM     21  C   UNL     1     -31.101  28.458   5.319  0.00  0.00    +0.224 C 
BRANCH  21  22
ATOM     22  C   UNL     1     -29.700  28.294   5.995  0.00  0.00    +0.123 C 
ATOM     23  C   UNL     1     -29.277  29.561   6.762  0.00  0.00    +0.032 C 
ATOM     24  C   UNL     1     -28.603  27.968   4.965  0.00  0.00    +0.032 C 
BRANCH  22  25
ATOM     25  O   UNL     1     -29.732  27.219   6.936  0.00  0.00    -0.384 OA
ATOM     26  H   UNL     1     -29.608  27.570   7.832  0.00  0.00    +0.210 HD
ENDBRANCH  22  25
ENDBRANCH  21  22
BRANCH  21  27
ATOM     27  O   UNL     1     -31.059  27.677   4.104  0.00  0.00    -0.373 OA
ATOM     28  H   UNL     1     -31.029  28.272   3.338  0.00  0.00    +0.211 HD
ENDBRANCH  21  27
BRANCH  21  29
ATOM     29  C   UNL     1     -31.489  29.898   4.880  0.00  0.00    +0.148 C 
ATOM     30  C   UNL     1     -31.203  30.307   3.441  0.00  0.00    +0.035 C 
BRANCH  29  31
ATOM     31  O   UNL     1     -32.886  30.113   5.130  0.00  0.00    -0.381 OA
ATOM     32  H   UNL     1     -33.407  29.721   4.412  0.00  0.00    +0.210 HD
ENDBRANCH  29  31
ENDBRANCH  21  29
ENDBRANCH  20  21
ENDBRANCH  18  20
ENDBRANCH  17  18
ENDBRANCH   6  17
TORSDOF 12
ENDMDL
MODEL 7
REMARK VINA RESULT:      -5.3      3.326      5.562
REMARK  Name = 5317993
REMARK  12 active torsions:
REMARK  status: ('A' for Active; 'I' for Inactive)
REMARK    1  A    between atoms: C_3  and  O_10
REMARK    2  A    between atoms: C_6  and  C_17
REMARK    3  A    between atoms: O_10  and  C_12
REMARK    4  A    between atoms: C_12  and  C_13
REMARK    5  A    between atoms: C_17  and  O_18
REMARK    6  A    between atoms: O_18  and  C_20
REMARK    7  A    between atoms: C_20  and  C_21
REMARK    8  A    between atoms: C_21  and  C_22
REMARK    9  A    between atoms: C_21  and  O_27
REMARK   10  A    between atoms: C_21  and  C_29
REMARK   11  A    between atoms: C_22  and  O_25
REMARK   12  A    between atoms: C_29  and  O_31
REMARK                            x       y       z     vdW  Elec       q    Type
REMARK                         _______ _______ _______ _____ _____    ______ ____
ROOT
ATOM      1  N   UNL     1     -33.471  25.204   0.566  0.00  0.00    +0.396 N 
ATOM      2  C   UNL     1     -34.138  25.648   1.828  0.00  0.00    +0.006 C 
ATOM      3  C   UNL     1     -34.815  24.403   2.405  0.00  0.00    +0.152 C 
ATOM      4  C   UNL     1     -34.832  23.427   1.241  0.00  0.00    +0.019 C 
ATOM      5  C   UNL     1     -33.519  23.734   0.552  0.00  0.00    -0.073 C 
ATOM      6  C   UNL     1     -33.055  26.238   2.678  0.00  0.00    -0.023 C 
ATOM      7  C   UNL     1     -32.085  25.718   0.625  0.00  0.00    -0.050 C 
ATOM      8  C   UNL     1     -31.906  26.276   1.998  0.00  0.00    -0.056 C 
ATOM      9  H   UNL     1     -33.915  25.549  -0.285  0.00  0.00    -0.079 HD
ENDROOT
BRANCH   3  10
ATOM     10  O   UNL     1     -36.132  24.697   2.836  0.00  0.00    -0.451 OA
BRANCH  10  12
ATOM     11  O   UNL     1     -37.465  23.039   3.715  0.00  0.00    -0.245 OA
ATOM     12  C   UNL     1     -36.626  23.918   3.846  0.00  0.00    +0.337 C 
BRANCH  12  13
ATOM     13  C   UNL     1     -35.994  24.304   5.145  0.00  0.00    +0.049 C 
ATOM     14  C   UNL     1     -36.101  25.732   5.591  0.00  0.00    +0.037 C 
ATOM     15  C   UNL     1     -35.347  23.321   5.797  0.00  0.00    -0.024 C 
ATOM     16  C   UNL     1     -35.192  21.897   5.366  0.00  0.00    +0.031 C 
ENDBRANCH  12  13
ENDBRANCH  10  12
ENDBRANCH   3  10
BRANCH   6  17
ATOM     17  C   UNL     1     -33.303  26.740   4.054  0.00  0.00    +0.229 C 
BRANCH  17  18
ATOM     18  O   UNL     1     -32.075  27.157   4.657  0.00  0.00    -0.442 OA
BRANCH  18  20
ATOM     19  O   UNL     1     -32.944  27.463   6.760  0.00  0.00    -0.247 OA
ATOM     20  C   UNL     1     -32.189  27.798   5.855  0.00  0.00    +0.346 C 
BRANCH  20  21
ATOM     21  C   UNL     1     -31.244  29.008   5.924  0.00  0.00    +0.224 C 
BRANCH  21  22
ATOM     22  C   UNL     1     -31.499  30.018   4.756  0.00  0.00    +0.123 C 
ATOM     23  C   UNL     1     -30.647  29.692   3.515  0.00  0.00    +0.032 C 
ATOM     24  C   UNL     1     -31.198  31.468   5.177  0.00  0.00    +0.032 C 
BRANCH  22  25
ATOM     25  O   UNL     1     -32.869  29.968   4.353  0.00  0.00    -0.384 OA
ATOM     26  H   UNL     1     -32.934  29.555   3.479  0.00  0.00    +0.210 HD
ENDBRANCH  22  25
ENDBRANCH  21  22
BRANCH  21  27
ATOM     27  O   UNL     1     -31.648  29.681   7.137  0.00  0.00    -0.373 OA
ATOM     28  H   UNL     1     -30.861  29.933   7.644  0.00  0.00    +0.211 HD
ENDBRANCH  21  27
BRANCH  21  29
ATOM     29  C   UNL     1     -29.768  28.578   6.153  0.00  0.00    +0.148 C 
ATOM     30  C   UNL     1     -28.869  29.512   6.953  0.00  0.00    +0.035 C 
BRANCH  29  31
ATOM     31  O   UNL     1     -29.738  27.290   6.783  0.00  0.00    -0.381 OA
ATOM     32  H   UNL     1     -30.559  27.156   7.282  0.00  0.00    +0.210 HD
ENDBRANCH  29  31
ENDBRANCH  21  29
ENDBRANCH  20  21
ENDBRANCH  18  20
ENDBRANCH  17  18
ENDBRANCH   6  17
TORSDOF 12
ENDMDL
MODEL 8
REMARK VINA RESULT:      -5.3      0.977      2.414
REMARK  Name = 5317993
REMARK  12 active torsions:
REMARK  status: ('A' for Active; 'I' for Inactive)
REMARK    1  A    between atoms: C_3  and  O_10
REMARK    2  A    between atoms: C_6  and  C_17
REMARK    3  A    between atoms: O_10  and  C_12
REMARK    4  A    between atoms: C_12  and  C_13
REMARK    5  A    between atoms: C_17  and  O_18
REMARK    6  A    between atoms: O_18  and  C_20
REMARK    7  A    between atoms: C_20  and  C_21
REMARK    8  A    between atoms: C_21  and  C_22
REMARK    9  A    between atoms: C_21  and  O_27
REMARK   10  A    between atoms: C_21  and  C_29
REMARK   11  A    between atoms: C_22  and  O_25
REMARK   12  A    between atoms: C_29  and  O_31
REMARK                            x       y       z     vdW  Elec       q    Type
REMARK                         _______ _______ _______ _____ _____    ______ ____
ROOT
ATOM      1  N   UNL     1     -40.324  23.150   1.752  0.00  0.00    +0.396 N 
ATOM      2  C   UNL     1     -39.334  23.866   2.614  0.00  0.00    +0.006 C 
ATOM      3  C   UNL     1     -38.013  23.109   2.455  0.00  0.00    +0.152 C 
ATOM      4  C   UNL     1     -38.427  21.785   1.836  0.00  0.00    +0.019 C 
ATOM      5  C   UNL     1     -39.562  22.202   0.925  0.00  0.00    -0.073 C 
ATOM      6  C   UNL     1     -39.320  25.284   2.129  0.00  0.00    -0.023 C 
ATOM      7  C   UNL     1     -40.996  24.188   0.940  0.00  0.00    -0.050 C 
ATOM      8  C   UNL     1     -40.255  25.458   1.192  0.00  0.00    -0.056 C 
ATOM      9  H   UNL     1     -41.029  22.629   2.272  0.00  0.00    -0.079 HD
ENDROOT
BRANCH   3  10
ATOM     10  O   UNL     1     -37.392  22.907   3.711  0.00  0.00    -0.451 OA
BRANCH  10  12
ATOM     11  O   UNL     1     -35.243  23.010   2.890  0.00  0.00    -0.245 OA
ATOM     12  C   UNL     1     -36.058  23.204   3.781  0.00  0.00    +0.337 C 
BRANCH  12  13
ATOM     13  C   UNL     1     -35.735  23.796   5.115  0.00  0.00    +0.049 C 
ATOM     14  C   UNL     1     -35.905  25.275   5.297  0.00  0.00    +0.037 C 
ATOM     15  C   UNL     1     -35.284  22.934   6.046  0.00  0.00    -0.024 C 
ATOM     16  C   UNL     1     -35.071  21.462   5.889  0.00  0.00    +0.031 C 
ENDBRANCH  12  13
ENDBRANCH  10  12
ENDBRANCH   3  10
BRANCH   6  17
ATOM     17  C   UNL     1     -38.407  26.312   2.693  0.00  0.00    +0.229 C 
BRANCH  17  18
ATOM     18  O   UNL     1     -37.815  27.078   1.640  0.00  0.00    -0.442 OA
BRANCH  18  20
ATOM     19  O   UNL     1     -35.710  26.188   1.860  0.00  0.00    -0.247 OA
ATOM     20  C   UNL     1     -36.453  27.138   1.642  0.00  0.00    +0.346 C 
BRANCH  20  21
ATOM     21  C   UNL     1     -35.964  28.563   1.339  0.00  0.00    +0.224 C 
BRANCH  21  22
ATOM     22  C   UNL     1     -35.391  28.690  -0.111  0.00  0.00    +0.123 C 
ATOM     23  C   UNL     1     -33.851  28.753  -0.119  0.00  0.00    +0.032 C 
ATOM     24  C   UNL     1     -35.925  29.942  -0.830  0.00  0.00    +0.032 C 
BRANCH  22  25
ATOM     25  O   UNL     1     -35.772  27.556  -0.891  0.00  0.00    -0.384 OA
ATOM     26  H   UNL     1     -35.120  26.848  -0.773  0.00  0.00    +0.210 HD
ENDBRANCH  22  25
ENDBRANCH  21  22
BRANCH  21  27
ATOM     27  O   UNL     1     -37.177  29.347   1.366  0.00  0.00    -0.373 OA
ATOM     28  H   UNL     1     -37.332  29.732   0.489  0.00  0.00    +0.211 HD
ENDBRANCH  21  27
BRANCH  21  29
ATOM     29  C   UNL     1     -35.074  29.126   2.484  0.00  0.00    +0.148 C 
ATOM     30  C   UNL     1     -35.268  30.582   2.887  0.00  0.00    +0.035 C 
BRANCH  29  31
ATOM     31  O   UNL     1     -35.239  28.317   3.657  0.00  0.00    -0.381 OA
ATOM     32  H   UNL     1     -35.112  27.383   3.427  0.00  0.00    +0.210 HD
ENDBRANCH  29  31
ENDBRANCH  21  29
ENDBRANCH  20  21
ENDBRANCH  18  20
ENDBRANCH  17  18
ENDBRANCH   6  17
TORSDOF 12
ENDMDL
MODEL 9
REMARK VINA RESULT:      -5.3      2.679      6.329
REMARK  Name = 5317993
REMARK  12 active torsions:
REMARK  status: ('A' for Active; 'I' for Inactive)
REMARK    1  A    between atoms: C_3  and  O_10
REMARK    2  A    between atoms: C_6  and  C_17
REMARK    3  A    between atoms: O_10  and  C_12
REMARK    4  A    between atoms: C_12  and  C_13
REMARK    5  A    between atoms: C_17  and  O_18
REMARK    6  A    between atoms: O_18  and  C_20
REMARK    7  A    between atoms: C_20  and  C_21
REMARK    8  A    between atoms: C_21  and  C_22
REMARK    9  A    between atoms: C_21  and  O_27
REMARK   10  A    between atoms: C_21  and  C_29
REMARK   11  A    between atoms: C_22  and  O_25
REMARK   12  A    between atoms: C_29  and  O_31
REMARK                            x       y       z     vdW  Elec       q    Type
REMARK                         _______ _______ _______ _____ _____    ______ ____
ROOT
ATOM      1  N   UNL     1     -31.111  25.477   0.658  0.00  0.00    +0.396 N 
ATOM      2  C   UNL     1     -32.256  25.797   1.564  0.00  0.00    +0.006 C 
ATOM      3  C   UNL     1     -31.864  27.080   2.299  0.00  0.00    +0.152 C 
ATOM      4  C   UNL     1     -30.367  27.187   2.068  0.00  0.00    +0.019 C 
ATOM      5  C   UNL     1     -30.225  26.651   0.659  0.00  0.00    -0.073 C 
ATOM      6  C   UNL     1     -33.459  25.911   0.678  0.00  0.00    -0.023 C 
ATOM      7  C   UNL     1     -31.696  25.217  -0.676  0.00  0.00    -0.050 C 
ATOM      8  C   UNL     1     -33.138  25.583  -0.576  0.00  0.00    -0.056 C 
ATOM      9  H   UNL     1     -30.567  24.663   0.945  0.00  0.00    -0.079 HD
ENDROOT
BRANCH   3  10
ATOM     10  O   UNL     1     -32.155  26.980   3.682  0.00  0.00    -0.451 OA
BRANCH  10  12
ATOM     11  O   UNL     1     -34.016  28.306   3.966  0.00  0.00    -0.245 OA
ATOM     12  C   UNL     1     -32.857  28.019   4.229  0.00  0.00    +0.337 C 
BRANCH  12  13
ATOM     13  C   UNL     1     -31.995  28.764   5.198  0.00  0.00    +0.049 C 
ATOM     14  C   UNL     1     -31.206  29.935   4.693  0.00  0.00    +0.037 C 
ATOM     15  C   UNL     1     -31.982  28.288   6.457  0.00  0.00    -0.024 C 
ATOM     16  C   UNL     1     -32.729  27.105   6.985  0.00  0.00    +0.031 C 
ENDBRANCH  12  13
ENDBRANCH  10  12
ENDBRANCH   3  10
BRANCH   6  17
ATOM     17  C   UNL     1     -34.800  26.287   1.195  0.00  0.00    +0.229 C 
BRANCH  17  18
ATOM     18  O   UNL     1     -35.438  25.152   1.787  0.00  0.00    -0.442 OA
BRANCH  18  20
ATOM     19  O   UNL     1     -37.257  26.377   2.471  0.00  0.00    -0.247 OA
ATOM     20  C   UNL     1     -36.497  25.424   2.602  0.00  0.00    +0.346 C 
BRANCH  20  21
ATOM     21  C   UNL     1     -36.614  24.375   3.719  0.00  0.00    +0.224 C 
BRANCH  21  22
ATOM     22  C   UNL     1     -35.537  24.584   4.834  0.00  0.00    +0.123 C 
ATOM     23  C   UNL     1     -35.461  23.383   5.796  0.00  0.00    +0.032 C 
ATOM     24  C   UNL     1     -35.813  25.849   5.667  0.00  0.00    +0.032 C 
BRANCH  22  25
ATOM     25  O   UNL     1     -34.244  24.737   4.245  0.00  0.00    -0.384 OA
ATOM     26  H   UNL     1     -34.335  25.120   3.359  0.00  0.00    +0.210 HD
ENDBRANCH  22  25
ENDBRANCH  21  22
BRANCH  21  27
ATOM     27  O   UNL     1     -37.890  24.674   4.328  0.00  0.00    -0.373 OA
ATOM     28  H   UNL     1     -38.600  24.512   3.687  0.00  0.00    +0.211 HD
ENDBRANCH  21  27
BRANCH  21  29
ATOM     29  C   UNL     1     -36.747  22.934   3.150  0.00  0.00    +0.148 C 
ATOM     30  C   UNL     1     -37.877  22.657   2.167  0.00  0.00    +0.035 C 
BRANCH  29  31
ATOM     31  O   UNL     1     -35.513  22.554   2.523  0.00  0.00    -0.381 OA
ATOM     32  H   UNL     1     -34.870  23.275   2.612  0.00  0.00    +0.210 HD
ENDBRANCH  29  31
ENDBRANCH  21  29
ENDBRANCH  20  21
ENDBRANCH  18  20
ENDBRANCH  17  18
ENDBRANCH   6  17
TORSDOF 12
ENDMDL
