MODEL 1
REMARK VINA RESULT:      -6.4      0.000      0.000
REMARK  Name = 191112
REMARK  4 active torsions:
REMARK  status: ('A' for Active; 'I' for Inactive)
REMARK    1  A    between atoms: N_2  and  C_10
REMARK    2  A    between atoms: C_3  and  C_17
REMARK    3  A    between atoms: C_17  and  O_18
REMARK    4  A    between atoms: O_18  and  C_19
REMARK                            x       y       z     vdW  Elec       q    Type
REMARK                         _______ _______ _______ _____ _____    ______ ____
ROOT
ATOM      1  O   UNL     1     -38.154  24.365   3.879  0.00  0.00    -0.271 OA
ATOM      2  N   UNL     1     -36.086  23.571   3.177  0.00  0.00    -0.293 N 
ATOM      3  C   UNL     1     -36.931  24.466   3.832  0.00  0.00    +0.267 C 
ATOM      4  H   UNL     1     -35.116  23.739   3.197  0.00  0.00    +0.150 HD
ENDROOT
BRANCH   2  10
ATOM      5  S   UNL     1     -35.288  23.609   0.194  0.00  0.00    -0.049 S 
ATOM      6  O   UNL     1     -35.165  20.502   3.462  0.00  0.00    -0.273 OA
ATOM      7  O   UNL     1     -33.068  22.705  -0.936  0.00  0.00    -0.278 OA
ATOM      8  N   UNL     1     -35.431  21.196   1.220  0.00  0.00    -0.244 N 
ATOM      9  C   UNL     1     -36.330  22.315   0.944  0.00  0.00    +0.162 C 
ATOM     10  C   UNL     1     -36.575  22.393   2.463  0.00  0.00    +0.179 C 
ATOM     11  C   UNL     1     -35.643  21.158   2.566  0.00  0.00    +0.251 C 
ATOM     12  C   UNL     1     -34.228  21.215   0.575  0.00  0.00    +0.092 C 
ATOM     13  C   UNL     1     -34.001  22.466  -0.189  0.00  0.00    +0.236 C 
ATOM     14  C   UNL     1     -33.287  20.273   0.675  0.00  0.00    -0.026 C 
ATOM     15  C   UNL     1     -33.506  19.003   1.447  0.00  0.00    +0.028 C 
ATOM     16  C   UNL     1     -31.941  20.419   0.022  0.00  0.00    +0.028 C 
ENDBRANCH   2  10
BRANCH   3  17
ATOM     17  C   UNL     1     -36.170  25.596   4.493  0.00  0.00    +0.289 C 
BRANCH  17  18
ATOM     18  O   UNL     1     -34.828  25.614   4.055  0.00  0.00    -0.466 OA
BRANCH  18  19
ATOM     19  C   UNL     1     -33.946  26.392   4.768  0.00  0.00    +0.139 C 
ATOM     20  C   UNL     1     -33.197  27.356   4.105  0.00  0.00    +0.037 C 
ATOM     21  C   UNL     1     -33.817  26.202   6.136  0.00  0.00    +0.037 C 
ATOM     22  C   UNL     1     -32.301  28.145   4.828  0.00  0.00    +0.003 C 
ATOM     23  C   UNL     1     -32.921  26.991   6.858  0.00  0.00    +0.003 C 
ATOM     24  C   UNL     1     -32.164  27.962   6.203  0.00  0.00    +0.000 C 
ENDBRANCH  18  19
ENDBRANCH  17  18
ENDBRANCH   3  17
TORSDOF 4
ENDMDL
MODEL 2
REMARK VINA RESULT:      -6.3      1.647      2.501
REMARK  Name = 191112
REMARK  4 active torsions:
REMARK  status: ('A' for Active; 'I' for Inactive)
REMARK    1  A    between atoms: N_2  and  C_10
REMARK    2  A    between atoms: C_3  and  C_17
REMARK    3  A    between atoms: C_17  and  O_18
REMARK    4  A    between atoms: O_18  and  C_19
REMARK                            x       y       z     vdW  Elec       q    Type
REMARK                         _______ _______ _______ _____ _____    ______ ____
ROOT
ATOM      1  O   UNL     1     -35.955  26.543   5.318  0.00  0.00    -0.271 OA
ATOM      2  N   UNL     1     -34.883  24.517   4.935  0.00  0.00    -0.293 N 
ATOM      3  C   UNL     1     -34.971  25.817   5.433  0.00  0.00    +0.267 C 
ATOM      4  H   UNL     1     -34.049  24.014   5.079  0.00  0.00    +0.150 HD
ENDROOT
BRANCH   2  10
ATOM      5  S   UNL     1     -34.775  25.104   1.906  0.00  0.00    -0.049 S 
ATOM      6  O   UNL     1     -35.366  21.384   4.388  0.00  0.00    -0.273 OA
ATOM      7  O   UNL     1     -33.458  23.796   0.013  0.00  0.00    -0.278 OA
ATOM      8  N   UNL     1     -35.750  22.737   2.490  0.00  0.00    -0.244 N 
ATOM      9  C   UNL     1     -36.102  24.141   2.700  0.00  0.00    +0.162 C 
ATOM     10  C   UNL     1     -35.973  23.867   4.210  0.00  0.00    +0.179 C 
ATOM     11  C   UNL     1     -35.678  22.399   3.808  0.00  0.00    +0.251 C 
ATOM     12  C   UNL     1     -34.820  22.487   1.523  0.00  0.00    +0.092 C 
ATOM     13  C   UNL     1     -34.228  23.722   0.955  0.00  0.00    +0.236 C 
ATOM     14  C   UNL     1     -34.389  21.274   1.166  0.00  0.00    -0.026 C 
ATOM     15  C   UNL     1     -34.982  20.016   1.735  0.00  0.00    +0.028 C 
ATOM     16  C   UNL     1     -33.281  21.084   0.170  0.00  0.00    +0.028 C 
ENDBRANCH   2  10
BRANCH   3  17
ATOM     17  C   UNL     1     -33.706  26.248   6.143  0.00  0.00    +0.289 C 
BRANCH  17  18
ATOM     18  O   UNL     1     -32.765  26.752   5.219  0.00  0.00    -0.466 OA
BRANCH  18  19
ATOM     19  C   UNL     1     -32.403  28.073   5.348  0.00  0.00    +0.139 C 
ATOM     20  C   UNL     1     -31.932  28.535   6.570  0.00  0.00    +0.037 C 
ATOM     21  C   UNL     1     -32.515  28.922   4.257  0.00  0.00    +0.037 C 
ATOM     22  C   UNL     1     -31.566  29.876   6.702  0.00  0.00    +0.003 C 
ATOM     23  C   UNL     1     -32.148  30.262   4.388  0.00  0.00    +0.003 C 
ATOM     24  C   UNL     1     -31.674  30.738   5.611  0.00  0.00    +0.000 C 
ENDBRANCH  18  19
ENDBRANCH  17  18
ENDBRANCH   3  17
TORSDOF 4
ENDMDL
MODEL 3
REMARK VINA RESULT:      -6.3      3.908      7.651
REMARK  Name = 191112
REMARK  4 active torsions:
REMARK  status: ('A' for Active; 'I' for Inactive)
REMARK    1  A    between atoms: N_2  and  C_10
REMARK    2  A    between atoms: C_3  and  C_17
REMARK    3  A    between atoms: C_17  and  O_18
REMARK    4  A    between atoms: O_18  and  C_19
REMARK                            x       y       z     vdW  Elec       q    Type
REMARK                         _______ _______ _______ _____ _____    ______ ____
ROOT
ATOM      1  O   UNL     1     -33.293  25.556   4.497  0.00  0.00    -0.271 OA
ATOM      2  N   UNL     1     -34.563  27.465   4.119  0.00  0.00    -0.293 N 
ATOM      3  C   UNL     1     -34.280  26.246   4.736  0.00  0.00    +0.267 C 
ATOM      4  H   UNL     1     -35.382  27.946   4.380  0.00  0.00    +0.150 HD
ENDROOT
BRANCH   2  10
ATOM      5  S   UNL     1     -36.045  27.911   1.448  0.00  0.00    -0.049 S 
ATOM      6  O   UNL     1     -33.316  30.428   4.009  0.00  0.00    -0.273 OA
ATOM      7  O   UNL     1     -37.481  30.003   0.681  0.00  0.00    -0.278 OA
ATOM      8  N   UNL     1     -34.188  29.701   1.938  0.00  0.00    -0.244 N 
ATOM      9  C   UNL     1     -34.274  28.263   1.690  0.00  0.00    +0.162 C 
ATOM     10  C   UNL     1     -33.698  28.062   3.104  0.00  0.00    +0.179 C 
ATOM     11  C   UNL     1     -33.617  29.609   3.172  0.00  0.00    +0.251 C 
ATOM     12  C   UNL     1     -35.281  30.439   1.588  0.00  0.00    +0.092 C 
ATOM     13  C   UNL     1     -36.426  29.607   1.145  0.00  0.00    +0.236 C 
ATOM     14  C   UNL     1     -35.385  31.765   1.711  0.00  0.00    -0.026 C 
ATOM     15  C   UNL     1     -34.232  32.619   2.159  0.00  0.00    +0.028 C 
ATOM     16  C   UNL     1     -36.663  32.496   1.410  0.00  0.00    +0.028 C 
ENDBRANCH   2  10
BRANCH   3  17
ATOM     17  C   UNL     1     -35.335  25.856   5.749  0.00  0.00    +0.289 C 
BRANCH  17  18
ATOM     18  O   UNL     1     -36.292  24.999   5.165  0.00  0.00    -0.466 OA
BRANCH  18  19
ATOM     19  C   UNL     1     -35.918  23.693   4.952  0.00  0.00    +0.139 C 
ATOM     20  C   UNL     1     -35.434  22.939   6.013  0.00  0.00    +0.037 C 
ATOM     21  C   UNL     1     -36.028  23.149   3.679  0.00  0.00    +0.037 C 
ATOM     22  C   UNL     1     -35.054  21.614   5.796  0.00  0.00    +0.003 C 
ATOM     23  C   UNL     1     -35.649  21.824   3.464  0.00  0.00    +0.003 C 
ATOM     24  C   UNL     1     -35.161  21.057   4.522  0.00  0.00    +0.000 C 
ENDBRANCH  18  19
ENDBRANCH  17  18
ENDBRANCH   3  17
TORSDOF 4
ENDMDL
MODEL 4
REMARK VINA RESULT:      -6.2      2.243      6.900
REMARK  Name = 191112
REMARK  4 active torsions:
REMARK  status: ('A' for Active; 'I' for Inactive)
REMARK    1  A    between atoms: N_2  and  C_10
REMARK    2  A    between atoms: C_3  and  C_17
REMARK    3  A    between atoms: C_17  and  O_18
REMARK    4  A    between atoms: O_18  and  C_19
REMARK                            x       y       z     vdW  Elec       q    Type
REMARK                         _______ _______ _______ _____ _____    ______ ____
ROOT
ATOM      1  O   UNL     1     -37.272  21.530   1.723  0.00  0.00    -0.271 OA
ATOM      2  N   UNL     1     -36.139  22.808   3.298  0.00  0.00    -0.293 N 
ATOM      3  C   UNL     1     -36.329  21.684   2.495  0.00  0.00    +0.267 C 
ATOM      4  H   UNL     1     -35.349  22.839   3.886  0.00  0.00    +0.150 HD
ENDROOT
BRANCH   2  10
ATOM      5  S   UNL     1     -35.475  24.820   5.545  0.00  0.00    -0.049 S 
ATOM      6  O   UNL     1     -36.442  25.187   1.154  0.00  0.00    -0.273 OA
ATOM      7  O   UNL     1     -33.797  26.872   5.486  0.00  0.00    -0.278 OA
ATOM      8  N   UNL     1     -36.492  25.933   3.395  0.00  0.00    -0.244 N 
ATOM      9  C   UNL     1     -36.906  24.988   4.430  0.00  0.00    +0.162 C 
ATOM     10  C   UNL     1     -37.058  23.944   3.308  0.00  0.00    +0.179 C 
ATOM     11  C   UNL     1     -36.662  25.088   2.340  0.00  0.00    +0.251 C 
ATOM     12  C   UNL     1     -35.391  26.690   3.676  0.00  0.00    +0.092 C 
ATOM     13  C   UNL     1     -34.729  26.302   4.944  0.00  0.00    +0.236 C 
ATOM     14  C   UNL     1     -34.874  27.624   2.872  0.00  0.00    -0.026 C 
ATOM     15  C   UNL     1     -35.537  28.025   1.584  0.00  0.00    +0.028 C 
ATOM     16  C   UNL     1     -33.594  28.338   3.201  0.00  0.00    +0.028 C 
ENDBRANCH   2  10
BRANCH   3  17
ATOM     17  C   UNL     1     -35.233  20.657   2.674  0.00  0.00    +0.289 C 
BRANCH  17  18
ATOM     18  O   UNL     1     -35.056  19.907   1.491  0.00  0.00    -0.466 OA
BRANCH  18  19
ATOM     19  C   UNL     1     -33.763  19.650   1.098  0.00  0.00    +0.139 C 
ATOM     20  C   UNL     1     -33.085  20.585   0.328  0.00  0.00    +0.037 C 
ATOM     21  C   UNL     1     -33.157  18.460   1.476  0.00  0.00    +0.037 C 
ATOM     22  C   UNL     1     -31.773  20.325  -0.071  0.00  0.00    +0.003 C 
ATOM     23  C   UNL     1     -31.846  18.200   1.077  0.00  0.00    +0.003 C 
ATOM     24  C   UNL     1     -31.155  19.132   0.303  0.00  0.00    +0.000 C 
ENDBRANCH  18  19
ENDBRANCH  17  18
ENDBRANCH   3  17
TORSDOF 4
ENDMDL
MODEL 5
REMARK VINA RESULT:      -6.1      4.006      7.652
REMARK  Name = 191112
REMARK  4 active torsions:
REMARK  status: ('A' for Active; 'I' for Inactive)
REMARK    1  A    between atoms: N_2  and  C_10
REMARK    2  A    between atoms: C_3  and  C_17
REMARK    3  A    between atoms: C_17  and  O_18
REMARK    4  A    between atoms: O_18  and  C_19
REMARK                            x       y       z     vdW  Elec       q    Type
REMARK                         _______ _______ _______ _____ _____    ______ ____
ROOT
ATOM      1  O   UNL     1     -34.882  27.005   2.969  0.00  0.00    -0.271 OA
ATOM      2  N   UNL     1     -33.361  27.632   4.610  0.00  0.00    -0.293 N 
ATOM      3  C   UNL     1     -34.484  26.958   4.130  0.00  0.00    +0.267 C 
ATOM      4  H   UNL     1     -33.121  27.530   5.560  0.00  0.00    +0.150 HD
ENDROOT
BRANCH   2  10
ATOM      5  S   UNL     1     -31.736  29.669   6.267  0.00  0.00    -0.049 S 
ATOM      6  O   UNL     1     -30.759  26.840   2.892  0.00  0.00    -0.273 OA
ATOM      7  O   UNL     1     -29.356  29.362   7.394  0.00  0.00    -0.278 OA
ATOM      8  N   UNL     1     -30.512  28.861   4.088  0.00  0.00    -0.244 N 
ATOM      9  C   UNL     1     -31.718  29.606   4.446  0.00  0.00    +0.162 C 
ATOM     10  C   UNL     1     -32.521  28.481   3.767  0.00  0.00    +0.179 C 
ATOM     11  C   UNL     1     -31.145  27.860   3.415  0.00  0.00    +0.251 C 
ATOM     12  C   UNL     1     -29.572  28.730   5.069  0.00  0.00    +0.092 C 
ATOM     13  C   UNL     1     -30.024  29.256   6.380  0.00  0.00    +0.236 C 
ATOM     14  C   UNL     1     -28.397  28.110   4.930  0.00  0.00    -0.026 C 
ATOM     15  C   UNL     1     -27.929  27.573   3.607  0.00  0.00    +0.028 C 
ATOM     16  C   UNL     1     -27.461  27.907   6.088  0.00  0.00    +0.028 C 
ENDBRANCH   2  10
BRANCH   3  17
ATOM     17  C   UNL     1     -35.173  26.149   5.207  0.00  0.00    +0.289 C 
BRANCH  17  18
ATOM     18  O   UNL     1     -36.073  25.224   4.634  0.00  0.00    -0.466 OA
BRANCH  18  19
ATOM     19  C   UNL     1     -35.765  23.890   4.756  0.00  0.00    +0.139 C 
ATOM     20  C   UNL     1     -35.847  23.066   3.641  0.00  0.00    +0.037 C 
ATOM     21  C   UNL     1     -35.378  23.387   5.991  0.00  0.00    +0.037 C 
ATOM     22  C   UNL     1     -35.535  21.711   3.765  0.00  0.00    +0.003 C 
ATOM     23  C   UNL     1     -35.066  22.033   6.113  0.00  0.00    +0.003 C 
ATOM     24  C   UNL     1     -35.145  21.195   5.000  0.00  0.00    +0.000 C 
ENDBRANCH  18  19
ENDBRANCH  17  18
ENDBRANCH   3  17
TORSDOF 4
ENDMDL
MODEL 6
REMARK VINA RESULT:      -6.1      1.600      2.342
REMARK  Name = 191112
REMARK  4 active torsions:
REMARK  status: ('A' for Active; 'I' for Inactive)
REMARK    1  A    between atoms: N_2  and  C_10
REMARK    2  A    between atoms: C_3  and  C_17
REMARK    3  A    between atoms: C_17  and  O_18
REMARK    4  A    between atoms: O_18  and  C_19
REMARK                            x       y       z     vdW  Elec       q    Type
REMARK                         _______ _______ _______ _____ _____    ______ ____
ROOT
ATOM      1  O   UNL     1     -39.751  22.825   2.189  0.00  0.00    -0.271 OA
ATOM      2  N   UNL     1     -37.443  22.552   2.210  0.00  0.00    -0.293 N 
ATOM      3  C   UNL     1     -38.625  23.269   2.397  0.00  0.00    +0.267 C 
ATOM      4  H   UNL     1     -36.586  22.998   2.405  0.00  0.00    +0.150 HD
ENDROOT
BRANCH   2  10
ATOM      5  S   UNL     1     -36.442  22.336  -0.703  0.00  0.00    -0.049 S 
ATOM      6  O   UNL     1     -35.528  20.136   3.127  0.00  0.00    -0.273 OA
ATOM      7  O   UNL     1     -33.952  22.114  -1.585  0.00  0.00    -0.278 OA
ATOM      8  N   UNL     1     -35.817  20.266   0.786  0.00  0.00    -0.244 N 
ATOM      9  C   UNL     1     -37.023  20.912   0.272  0.00  0.00    +0.162 C 
ATOM     10  C   UNL     1     -37.417  21.169   1.739  0.00  0.00    +0.179 C 
ATOM     11  C   UNL     1     -36.123  20.399   2.107  0.00  0.00    +0.251 C 
ATOM     12  C   UNL     1     -34.645  20.605   0.174  0.00  0.00    +0.092 C 
ATOM     13  C   UNL     1     -34.804  21.691  -0.823  0.00  0.00    +0.236 C 
ATOM     14  C   UNL     1     -33.444  20.105   0.480  0.00  0.00    -0.026 C 
ATOM     15  C   UNL     1     -33.271  19.004   1.488  0.00  0.00    +0.028 C 
ATOM     16  C   UNL     1     -32.184  20.609  -0.162  0.00  0.00    +0.028 C 
ENDBRANCH   2  10
BRANCH   3  17
ATOM     17  C   UNL     1     -38.371  24.677   2.892  0.00  0.00    +0.289 C 
BRANCH  17  18
ATOM     18  O   UNL     1     -37.882  24.657   4.216  0.00  0.00    -0.466 OA
BRANCH  18  19
ATOM     19  C   UNL     1     -36.606  25.127   4.421  0.00  0.00    +0.139 C 
ATOM     20  C   UNL     1     -35.784  24.492   5.342  0.00  0.00    +0.037 C 
ATOM     21  C   UNL     1     -36.160  26.230   3.706  0.00  0.00    +0.037 C 
ATOM     22  C   UNL     1     -34.489  24.969   5.551  0.00  0.00    +0.003 C 
ATOM     23  C   UNL     1     -34.866  26.707   3.915  0.00  0.00    +0.003 C 
ATOM     24  C   UNL     1     -34.031  26.076   4.838  0.00  0.00    +0.000 C 
ENDBRANCH  18  19
ENDBRANCH  17  18
ENDBRANCH   3  17
TORSDOF 4
ENDMDL
MODEL 7
REMARK VINA RESULT:      -6.0      2.088      6.809
REMARK  Name = 191112
REMARK  4 active torsions:
REMARK  status: ('A' for Active; 'I' for Inactive)
REMARK    1  A    between atoms: N_2  and  C_10
REMARK    2  A    between atoms: C_3  and  C_17
REMARK    3  A    between atoms: C_17  and  O_18
REMARK    4  A    between atoms: O_18  and  C_19
REMARK                            x       y       z     vdW  Elec       q    Type
REMARK                         _______ _______ _______ _____ _____    ______ ____
ROOT
ATOM      1  O   UNL     1     -31.310  25.119   0.016  0.00  0.00    -0.271 OA
ATOM      2  N   UNL     1     -33.477  24.318   0.272  0.00  0.00    -0.293 N 
ATOM      3  C   UNL     1     -32.146  24.231  -0.135  0.00  0.00    +0.267 C 
ATOM      4  H   UNL     1     -34.071  23.550   0.106  0.00  0.00    +0.150 HD
ENDROOT
BRANCH   2  10
ATOM      5  S   UNL     1     -36.310  23.801   1.385  0.00  0.00    -0.049 S 
ATOM      6  O   UNL     1     -32.567  25.710   3.025  0.00  0.00    -0.273 OA
ATOM      7  O   UNL     1     -37.006  22.816   3.746  0.00  0.00    -0.278 OA
ATOM      8  N   UNL     1     -34.910  25.508   2.807  0.00  0.00    -0.244 N 
ATOM      9  C   UNL     1     -35.476  25.419   1.462  0.00  0.00    +0.162 C 
ATOM     10  C   UNL     1     -34.031  25.498   0.934  0.00  0.00    +0.179 C 
ATOM     11  C   UNL     1     -33.612  25.646   2.419  0.00  0.00    +0.251 C 
ATOM     12  C   UNL     1     -35.407  24.630   3.728  0.00  0.00    +0.092 C 
ATOM     13  C   UNL     1     -36.342  23.641   3.141  0.00  0.00    +0.236 C 
ATOM     14  C   UNL     1     -35.039  24.573   5.012  0.00  0.00    -0.026 C 
ATOM     15  C   UNL     1     -34.092  25.571   5.617  0.00  0.00    +0.028 C 
ATOM     16  C   UNL     1     -35.548  23.506   5.939  0.00  0.00    +0.028 C 
ENDBRANCH   2  10
BRANCH   3  17
ATOM     17  C   UNL     1     -31.830  22.905  -0.792  0.00  0.00    +0.289 C 
BRANCH  17  18
ATOM     18  O   UNL     1     -32.923  22.019  -0.671  0.00  0.00    -0.466 OA
BRANCH  18  19
ATOM     19  C   UNL     1     -32.690  20.817  -0.044  0.00  0.00    +0.139 C 
ATOM     20  C   UNL     1     -31.463  20.188  -0.207  0.00  0.00    +0.037 C 
ATOM     21  C   UNL     1     -33.686  20.251   0.740  0.00  0.00    +0.037 C 
ATOM     22  C   UNL     1     -31.227  18.968   0.429  0.00  0.00    +0.003 C 
ATOM     23  C   UNL     1     -33.449  19.032   1.376  0.00  0.00    +0.003 C 
ATOM     24  C   UNL     1     -32.220  18.391   1.219  0.00  0.00    +0.000 C 
ENDBRANCH  18  19
ENDBRANCH  17  18
ENDBRANCH   3  17
TORSDOF 4
ENDMDL
MODEL 8
REMARK VINA RESULT:      -5.8      2.631      6.794
REMARK  Name = 191112
REMARK  4 active torsions:
REMARK  status: ('A' for Active; 'I' for Inactive)
REMARK    1  A    between atoms: N_2  and  C_10
REMARK    2  A    between atoms: C_3  and  C_17
REMARK    3  A    between atoms: C_17  and  O_18
REMARK    4  A    between atoms: O_18  and  C_19
REMARK                            x       y       z     vdW  Elec       q    Type
REMARK                         _______ _______ _______ _____ _____    ______ ____
ROOT
ATOM      1  O   UNL     1     -35.625  21.382  -1.910  0.00  0.00    -0.271 OA
ATOM      2  N   UNL     1     -34.863  22.455   0.005  0.00  0.00    -0.293 N 
ATOM      3  C   UNL     1     -34.702  21.765  -1.196  0.00  0.00    +0.267 C 
ATOM      4  H   UNL     1     -34.059  22.720   0.508  0.00  0.00    +0.150 HD
ENDROOT
BRANCH   2  10
ATOM      5  S   UNL     1     -35.699  20.573   2.306  0.00  0.00    -0.049 S 
ATOM      6  O   UNL     1     -35.720  25.044   1.711  0.00  0.00    -0.273 OA
ATOM      7  O   UNL     1     -35.162  20.782   4.894  0.00  0.00    -0.278 OA
ATOM      8  N   UNL     1     -36.600  23.025   2.566  0.00  0.00    -0.244 N 
ATOM      9  C   UNL     1     -36.763  21.898   1.650  0.00  0.00    +0.162 C 
ATOM     10  C   UNL     1     -36.173  22.804   0.553  0.00  0.00    +0.179 C 
ATOM     11  C   UNL     1     -36.130  23.908   1.641  0.00  0.00    +0.251 C 
ATOM     12  C   UNL     1     -36.053  22.738   3.783  0.00  0.00    +0.092 C 
ATOM     13  C   UNL     1     -35.589  21.334   3.894  0.00  0.00    +0.236 C 
ATOM     14  C   UNL     1     -35.849  23.623   4.763  0.00  0.00    -0.026 C 
ATOM     15  C   UNL     1     -36.314  25.048   4.662  0.00  0.00    +0.028 C 
ATOM     16  C   UNL     1     -35.138  23.254   6.034  0.00  0.00    +0.028 C 
ENDBRANCH   2  10
BRANCH   3  17
ATOM     17  C   UNL     1     -33.245  21.532  -1.535  0.00  0.00    +0.289 C 
BRANCH  17  18
ATOM     18  O   UNL     1     -32.457  21.530  -0.363  0.00  0.00    -0.466 OA
BRANCH  18  19
ATOM     19  C   UNL     1     -31.874  20.338  -0.001  0.00  0.00    +0.139 C 
ATOM     20  C   UNL     1     -30.578  20.059  -0.416  0.00  0.00    +0.037 C 
ATOM     21  C   UNL     1     -32.589  19.433   0.770  0.00  0.00    +0.037 C 
ATOM     22  C   UNL     1     -29.986  18.849  -0.049  0.00  0.00    +0.003 C 
ATOM     23  C   UNL     1     -31.997  18.224   1.137  0.00  0.00    +0.003 C 
ATOM     24  C   UNL     1     -30.696  17.933   0.726  0.00  0.00    +0.000 C 
ENDBRANCH  18  19
ENDBRANCH  17  18
ENDBRANCH   3  17
TORSDOF 4
ENDMDL
MODEL 9
REMARK VINA RESULT:      -5.7      4.841      7.345
REMARK  Name = 191112
REMARK  4 active torsions:
REMARK  status: ('A' for Active; 'I' for Inactive)
REMARK    1  A    between atoms: N_2  and  C_10
REMARK    2  A    between atoms: C_3  and  C_17
REMARK    3  A    between atoms: C_17  and  O_18
REMARK    4  A    between atoms: O_18  and  C_19
REMARK                            x       y       z     vdW  Elec       q    Type
REMARK                         _______ _______ _______ _____ _____    ______ ____
ROOT
ATOM      1  O   UNL     1     -39.555  26.995   1.236  0.00  0.00    -0.271 OA
ATOM      2  N   UNL     1     -39.085  25.032   2.389  0.00  0.00    -0.293 N 
ATOM      3  C   UNL     1     -39.842  26.166   2.096  0.00  0.00    +0.267 C 
ATOM      4  H   UNL     1     -39.400  24.426   3.098  0.00  0.00    +0.150 HD
ENDROOT
BRANCH   2  10
ATOM      5  S   UNL     1     -36.588  25.700   4.078  0.00  0.00    -0.049 S 
ATOM      6  O   UNL     1     -37.895  22.141   1.634  0.00  0.00    -0.273 OA
ATOM      7  O   UNL     1     -35.349  24.187   5.868  0.00  0.00    -0.278 OA
ATOM      8  N   UNL     1     -36.274  23.624   2.500  0.00  0.00    -0.244 N 
ATOM      9  C   UNL     1     -36.512  25.061   2.373  0.00  0.00    +0.162 C 
ATOM     10  C   UNL     1     -37.844  24.702   1.690  0.00  0.00    +0.179 C 
ATOM     11  C   UNL     1     -37.402  23.224   1.850  0.00  0.00    +0.251 C 
ATOM     12  C   UNL     1     -35.825  23.193   3.715  0.00  0.00    +0.092 C 
ATOM     13  C   UNL     1     -35.799  24.266   4.738  0.00  0.00    +0.236 C 
ATOM     14  C   UNL     1     -35.525  21.927   4.019  0.00  0.00    -0.026 C 
ATOM     15  C   UNL     1     -35.549  20.832   2.991  0.00  0.00    +0.028 C 
ATOM     16  C   UNL     1     -35.145  21.511   5.411  0.00  0.00    +0.028 C 
ENDBRANCH   2  10
BRANCH   3  17
ATOM     17  C   UNL     1     -41.079  26.272   2.963  0.00  0.00    +0.289 C 
BRANCH  17  18
ATOM     18  O   UNL     1     -42.230  26.449   2.166  0.00  0.00    -0.466 OA
BRANCH  18  19
ATOM     19  C   UNL     1     -43.450  26.267   2.775  0.00  0.00    +0.139 C 
ATOM     20  C   UNL     1     -43.700  26.876   3.998  0.00  0.00    +0.037 C 
ATOM     21  C   UNL     1     -44.411  25.477   2.159  0.00  0.00    +0.037 C 
ATOM     22  C   UNL     1     -44.937  26.690   4.616  0.00  0.00    +0.003 C 
ATOM     23  C   UNL     1     -45.647  25.292   2.778  0.00  0.00    +0.003 C 
ATOM     24  C   UNL     1     -45.910  25.899   4.007  0.00  0.00    +0.000 C 
ENDBRANCH  18  19
ENDBRANCH  17  18
ENDBRANCH   3  17
TORSDOF 4
ENDMDL
