MODEL 1
REMARK VINA RESULT:      -6.9      0.000      0.000
REMARK  Name = 5489486
REMARK  7 active torsions:
REMARK  status: ('A' for Active; 'I' for Inactive)
REMARK    1  A    between atoms: C_7  and  C_29
REMARK    2  A    between atoms: C_10  and  C_24
REMARK    3  A    between atoms: C_11  and  O_19
REMARK    4  A    between atoms: C_13  and  C_28
REMARK    5  A    between atoms: C_17  and  O_21
REMARK    6  A    between atoms: C_24  and  O_25
REMARK    7  A    between atoms: C_29  and  O_30
REMARK                            x       y       z     vdW  Elec       q    Type
REMARK                         _______ _______ _______ _____ _____    ______ ____
ROOT
ATOM      1  O   UNL     1     -36.055  24.630   2.114  0.00  0.00    -0.450 OA
ATOM      2  O   UNL     1     -37.165  21.989   2.417  0.00  0.00    -0.418 OA
ATOM      3  O   UNL     1     -35.399  20.869   3.345  0.00  0.00    -0.244 OA
ATOM      4  C   UNL     1     -37.386  24.384   1.909  0.00  0.00    +0.176 A 
ATOM      5  C   UNL     1     -37.942  23.121   2.076  0.00  0.00    +0.184 A 
ATOM      6  C   UNL     1     -38.187  25.440   1.471  0.00  0.00    +0.025 A 
ATOM      7  C   UNL     1     -39.294  22.895   1.823  0.00  0.00    +0.079 A 
ATOM      8  C   UNL     1     -35.644  23.122   3.969  0.00  0.00    +0.107 C 
ATOM      9  C   UNL     1     -35.652  24.397   3.404  0.00  0.00    +0.157 C 
ATOM     10  C   UNL     1     -39.544  25.226   1.229  0.00  0.00    +0.108 A 
ATOM     11  C   UNL     1     -40.098  23.956   1.406  0.00  0.00    +0.141 A 
ATOM     12  C   UNL     1     -35.185  22.952   5.281  0.00  0.00    -0.010 C 
ATOM     13  C   UNL     1     -35.192  25.496   4.135  0.00  0.00    +0.110 C 
ATOM     14  C   UNL     1     -36.025  21.914   3.214  0.00  0.00    +0.348 C 
ATOM     15  C   UNL     1     -37.592  26.795   1.255  0.00  0.00    +0.035 C 
ATOM     16  C   UNL     1     -34.746  24.053   6.017  0.00  0.00    +0.033 C 
ATOM     17  C   UNL     1     -34.747  25.324   5.444  0.00  0.00    +0.139 C 
ATOM     18  C   UNL     1     -35.168  21.624   5.968  0.00  0.00    +0.031 C 
ENDROOT
BRANCH  11  19
ATOM     19  O   UNL     1     -41.424  23.747   1.160  0.00  0.00    -0.505 OA
ATOM     20  H   UNL     1     -41.860  23.009   1.539  0.00  0.00    +0.292 HD
ENDBRANCH  11  19
BRANCH  17  21
ATOM     21  O   UNL     1     -34.300  26.381   6.180  0.00  0.00    -0.505 OA
ATOM     22  H   UNL     1     -33.596  26.263   6.788  0.00  0.00    +0.292 HD
ENDBRANCH  17  21
BRANCH  10  24
ATOM     23  O   UNL     1     -40.834  27.223   1.501  0.00  0.00    -0.245 OA
ATOM     24  C   UNL     1     -40.393  26.326   0.779  0.00  0.00    +0.341 C 
BRANCH  24  25
ATOM     25  O   UNL     1     -40.656  26.263  -0.552  0.00  0.00    -0.477 OA
ATOM     26  H   UNL     1     -40.628  25.439  -0.998  0.00  0.00    +0.295 HD
ENDBRANCH  24  25
ENDBRANCH  10  24
BRANCH  13  28
ATOM     27  O   UNL     1     -34.289  27.658   3.801  0.00  0.00    -0.283 OA
ATOM     28  C   UNL     1     -35.162  26.829   3.542  0.00  0.00    +0.240 C 
ENDBRANCH  13  28
BRANCH   7  29
ATOM     29  C   UNL     1     -39.880  21.530   1.986  0.00  0.00    +0.170 C 
BRANCH  29  30
ATOM     30  O   UNL     1     -39.346  20.667   0.990  0.00  0.00    -0.377 OA
ATOM     31  H   UNL     1     -40.057  20.125   0.616  0.00  0.00    +0.211 HD
ENDBRANCH  29  30
ENDBRANCH   7  29
TORSDOF 7
ENDMDL
MODEL 2
REMARK VINA RESULT:      -6.5      3.631      5.791
REMARK  Name = 5489486
REMARK  7 active torsions:
REMARK  status: ('A' for Active; 'I' for Inactive)
REMARK    1  A    between atoms: C_7  and  C_29
REMARK    2  A    between atoms: C_10  and  C_24
REMARK    3  A    between atoms: C_11  and  O_19
REMARK    4  A    between atoms: C_13  and  C_28
REMARK    5  A    between atoms: C_17  and  O_21
REMARK    6  A    between atoms: C_24  and  O_25
REMARK    7  A    between atoms: C_29  and  O_30
REMARK                            x       y       z     vdW  Elec       q    Type
REMARK                         _______ _______ _______ _____ _____    ______ ____
ROOT
ATOM      1  O   UNL     1     -34.604  23.205   0.751  0.00  0.00    -0.450 OA
ATOM      2  O   UNL     1     -35.666  21.388   2.718  0.00  0.00    -0.418 OA
ATOM      3  O   UNL     1     -35.846  19.464   1.494  0.00  0.00    -0.244 OA
ATOM      4  C   UNL     1     -34.685  23.548   2.074  0.00  0.00    +0.176 A 
ATOM      5  C   UNL     1     -35.170  22.674   3.039  0.00  0.00    +0.184 A 
ATOM      6  C   UNL     1     -34.307  24.841   2.439  0.00  0.00    +0.025 A 
ATOM      7  C   UNL     1     -35.276  23.067   4.373  0.00  0.00    +0.079 A 
ATOM      8  C   UNL     1     -34.027  20.859   0.975  0.00  0.00    +0.107 C 
ATOM      9  C   UNL     1     -33.761  22.149   0.515  0.00  0.00    +0.157 C 
ATOM     10  C   UNL     1     -34.396  25.239   3.773  0.00  0.00    +0.108 A 
ATOM     11  C   UNL     1     -34.878  24.353   4.740  0.00  0.00    +0.141 A 
ATOM     12  C   UNL     1     -33.141  19.820   0.665  0.00  0.00    -0.010 C 
ATOM     13  C   UNL     1     -32.626  22.402  -0.262  0.00  0.00    +0.110 C 
ATOM     14  C   UNL     1     -35.255  20.515   1.713  0.00  0.00    +0.348 C 
ATOM     15  C   UNL     1     -33.815  25.801   1.403  0.00  0.00    +0.035 C 
ATOM     16  C   UNL     1     -31.997  20.078  -0.093  0.00  0.00    +0.033 C 
ATOM     17  C   UNL     1     -31.741  21.367  -0.558  0.00  0.00    +0.139 C 
ATOM     18  C   UNL     1     -33.340  18.417   1.141  0.00  0.00    +0.031 C 
ENDROOT
BRANCH  11  19
ATOM     19  O   UNL     1     -34.972  24.746   6.043  0.00  0.00    -0.505 OA
ATOM     20  H   UNL     1     -34.247  24.619   6.624  0.00  0.00    +0.292 HD
ENDBRANCH  11  19
BRANCH  17  21
ATOM     21  O   UNL     1     -30.624  21.589  -1.307  0.00  0.00    -0.505 OA
ATOM     22  H   UNL     1     -30.583  21.275  -2.189  0.00  0.00    +0.292 HD
ENDBRANCH  17  21
BRANCH  10  24
ATOM     23  O   UNL     1     -32.837  26.944   4.394  0.00  0.00    -0.245 OA
ATOM     24  C   UNL     1     -33.995  26.586   4.167  0.00  0.00    +0.341 C 
BRANCH  24  25
ATOM     25  O   UNL     1     -35.053  27.433   4.261  0.00  0.00    -0.477 OA
ATOM     26  H   UNL     1     -35.027  28.152   4.861  0.00  0.00    +0.295 HD
ENDBRANCH  24  25
ENDBRANCH  10  24
BRANCH  13  28
ATOM     27  O   UNL     1     -31.315  24.350  -0.545  0.00  0.00    -0.283 OA
ATOM     28  C   UNL     1     -32.357  23.740  -0.779  0.00  0.00    +0.240 C 
ENDBRANCH  13  28
BRANCH   7  29
ATOM     29  C   UNL     1     -35.818  22.128   5.401  0.00  0.00    +0.170 C 
BRANCH  29  30
ATOM     30  O   UNL     1     -35.060  20.925   5.384  0.00  0.00    -0.377 OA
ATOM     31  H   UNL     1     -35.116  20.520   4.504  0.00  0.00    +0.211 HD
ENDBRANCH  29  30
ENDBRANCH   7  29
TORSDOF 7
ENDMDL
MODEL 3
REMARK VINA RESULT:      -6.2      3.396      5.432
REMARK  Name = 5489486
REMARK  7 active torsions:
REMARK  status: ('A' for Active; 'I' for Inactive)
REMARK    1  A    between atoms: C_7  and  C_29
REMARK    2  A    between atoms: C_10  and  C_24
REMARK    3  A    between atoms: C_11  and  O_19
REMARK    4  A    between atoms: C_13  and  C_28
REMARK    5  A    between atoms: C_17  and  O_21
REMARK    6  A    between atoms: C_24  and  O_25
REMARK    7  A    between atoms: C_29  and  O_30
REMARK                            x       y       z     vdW  Elec       q    Type
REMARK                         _______ _______ _______ _____ _____    ______ ____
ROOT
ATOM      1  O   UNL     1     -36.355  21.444   0.565  0.00  0.00    -0.450 OA
ATOM      2  O   UNL     1     -34.860  20.399   2.795  0.00  0.00    -0.418 OA
ATOM      3  O   UNL     1     -33.684  18.713   1.789  0.00  0.00    -0.244 OA
ATOM      4  C   UNL     1     -36.328  22.086   1.774  0.00  0.00    +0.176 A 
ATOM      5  C   UNL     1     -35.591  21.609   2.851  0.00  0.00    +0.184 A 
ATOM      6  C   UNL     1     -37.111  23.231   1.924  0.00  0.00    +0.025 A 
ATOM      7  C   UNL     1     -35.614  22.265   4.081  0.00  0.00    +0.079 A 
ATOM      8  C   UNL     1     -34.071  20.630   0.486  0.00  0.00    +0.107 C 
ATOM      9  C   UNL     1     -35.126  21.375  -0.041  0.00  0.00    +0.157 C 
ATOM     10  C   UNL     1     -37.130  23.902   3.147  0.00  0.00    +0.108 A 
ATOM     11  C   UNL     1     -36.381  23.422   4.224  0.00  0.00    +0.141 A 
ATOM     12  C   UNL     1     -32.854  20.574  -0.205  0.00  0.00    -0.010 C 
ATOM     13  C   UNL     1     -34.977  22.049  -1.256  0.00  0.00    +0.110 C 
ATOM     14  C   UNL     1     -34.201  19.821   1.711  0.00  0.00    +0.348 C 
ATOM     15  C   UNL     1     -37.935  23.734   0.782  0.00  0.00    +0.035 C 
ATOM     16  C   UNL     1     -32.700  21.265  -1.408  0.00  0.00    +0.033 C 
ATOM     17  C   UNL     1     -33.761  22.000  -1.935  0.00  0.00    +0.139 C 
ATOM     18  C   UNL     1     -31.667  19.821   0.304  0.00  0.00    +0.031 C 
ENDROOT
BRANCH  11  19
ATOM     19  O   UNL     1     -36.407  24.075   5.422  0.00  0.00    -0.505 OA
ATOM     20  H   UNL     1     -37.129  24.632   5.636  0.00  0.00    +0.292 HD
ENDBRANCH  11  19
BRANCH  17  21
ATOM     21  O   UNL     1     -33.588  22.655  -3.118  0.00  0.00    -0.505 OA
ATOM     22  H   UNL     1     -32.825  23.182  -3.254  0.00  0.00    +0.292 HD
ENDBRANCH  17  21
BRANCH  10  24
ATOM     23  O   UNL     1     -37.630  26.230   2.913  0.00  0.00    -0.245 OA
ATOM     24  C   UNL     1     -37.939  25.106   3.313  0.00  0.00    +0.341 C 
BRANCH  24  25
ATOM     25  O   UNL     1     -39.103  24.859   3.970  0.00  0.00    -0.477 OA
ATOM     26  H   UNL     1     -39.271  24.007   4.322  0.00  0.00    +0.295 HD
ENDBRANCH  24  25
ENDBRANCH  10  24
BRANCH  13  28
ATOM     27  O   UNL     1     -36.006  23.994  -2.125  0.00  0.00    -0.283 OA
ATOM     28  C   UNL     1     -36.086  22.801  -1.835  0.00  0.00    +0.240 C 
ENDBRANCH  13  28
BRANCH   7  29
ATOM     29  C   UNL     1     -34.834  21.735   5.240  0.00  0.00    +0.170 C 
BRANCH  29  30
ATOM     30  O   UNL     1     -35.493  20.589   5.765  0.00  0.00    -0.377 OA
ATOM     31  H   UNL     1     -36.083  20.219   5.091  0.00  0.00    +0.211 HD
ENDBRANCH  29  30
ENDBRANCH   7  29
TORSDOF 7
ENDMDL
MODEL 4
REMARK VINA RESULT:      -6.1      2.139      5.434
REMARK  Name = 5489486
REMARK  7 active torsions:
REMARK  status: ('A' for Active; 'I' for Inactive)
REMARK    1  A    between atoms: C_7  and  C_29
REMARK    2  A    between atoms: C_10  and  C_24
REMARK    3  A    between atoms: C_11  and  O_19
REMARK    4  A    between atoms: C_13  and  C_28
REMARK    5  A    between atoms: C_17  and  O_21
REMARK    6  A    between atoms: C_24  and  O_25
REMARK    7  A    between atoms: C_29  and  O_30
REMARK                            x       y       z     vdW  Elec       q    Type
REMARK                         _______ _______ _______ _____ _____    ______ ____
ROOT
ATOM      1  O   UNL     1     -35.565  26.726   4.320  0.00  0.00    -0.450 OA
ATOM      2  O   UNL     1     -37.290  26.349   2.044  0.00  0.00    -0.418 OA
ATOM      3  O   UNL     1     -37.291  28.449   1.135  0.00  0.00    -0.244 OA
ATOM      4  C   UNL     1     -35.981  25.480   3.935  0.00  0.00    +0.176 A 
ATOM      5  C   UNL     1     -36.791  25.278   2.823  0.00  0.00    +0.184 A 
ATOM      6  C   UNL     1     -35.607  24.391   4.724  0.00  0.00    +0.025 A 
ATOM      7  C   UNL     1     -37.229  24.000   2.479  0.00  0.00    +0.079 A 
ATOM      8  C   UNL     1     -35.284  27.753   2.141  0.00  0.00    +0.107 C 
ATOM      9  C   UNL     1     -34.786  27.353   3.381  0.00  0.00    +0.157 C 
ATOM     10  C   UNL     1     -36.029  23.107   4.378  0.00  0.00    +0.108 A 
ATOM     11  C   UNL     1     -36.837  22.911   3.256  0.00  0.00    +0.141 A 
ATOM     12  C   UNL     1     -34.441  28.422   1.244  0.00  0.00    -0.010 C 
ATOM     13  C   UNL     1     -33.463  27.631   3.735  0.00  0.00    +0.110 C 
ATOM     14  C   UNL     1     -36.694  27.574   1.753  0.00  0.00    +0.348 C 
ATOM     15  C   UNL     1     -34.762  24.600   5.941  0.00  0.00    +0.035 C 
ATOM     16  C   UNL     1     -33.114  28.680   1.589  0.00  0.00    +0.033 C 
ATOM     17  C   UNL     1     -32.625  28.286   2.835  0.00  0.00    +0.139 C 
ATOM     18  C   UNL     1     -34.888  28.861  -0.114  0.00  0.00    +0.031 C 
ENDROOT
BRANCH  11  19
ATOM     19  O   UNL     1     -37.256  21.655   2.925  0.00  0.00    -0.505 OA
ATOM     20  H   UNL     1     -36.798  20.907   3.254  0.00  0.00    +0.292 HD
ENDBRANCH  11  19
BRANCH  17  21
ATOM     21  O   UNL     1     -31.329  28.563   3.153  0.00  0.00    -0.505 OA
ATOM     22  H   UNL     1     -30.999  28.346   4.003  0.00  0.00    +0.292 HD
ENDBRANCH  17  21
BRANCH  10  24
ATOM     23  O   UNL     1     -34.898  21.046   4.821  0.00  0.00    -0.245 OA
ATOM     24  C   UNL     1     -35.636  21.960   5.192  0.00  0.00    +0.341 C 
BRANCH  24  25
ATOM     25  O   UNL     1     -36.178  22.002   6.437  0.00  0.00    -0.477 OA
ATOM     26  H   UNL     1     -36.359  21.205   6.897  0.00  0.00    +0.295 HD
ENDBRANCH  24  25
ENDBRANCH  10  24
BRANCH  13  28
ATOM     27  O   UNL     1     -32.561  28.071   5.877  0.00  0.00    -0.283 OA
ATOM     28  C   UNL     1     -32.943  27.250   5.044  0.00  0.00    +0.240 C 
ENDBRANCH  13  28
BRANCH   7  29
ATOM     29  C   UNL     1     -38.117  23.795   1.294  0.00  0.00    +0.170 C 
BRANCH  29  30
ATOM     30  O   UNL     1     -39.375  23.298   1.730  0.00  0.00    -0.377 OA
ATOM     31  H   UNL     1     -39.252  22.767   2.533  0.00  0.00    +0.211 HD
ENDBRANCH  29  30
ENDBRANCH   7  29
TORSDOF 7
ENDMDL
MODEL 5
REMARK VINA RESULT:      -6.1      1.630      5.213
REMARK  Name = 5489486
REMARK  7 active torsions:
REMARK  status: ('A' for Active; 'I' for Inactive)
REMARK    1  A    between atoms: C_7  and  C_29
REMARK    2  A    between atoms: C_10  and  C_24
REMARK    3  A    between atoms: C_11  and  O_19
REMARK    4  A    between atoms: C_13  and  C_28
REMARK    5  A    between atoms: C_17  and  O_21
REMARK    6  A    between atoms: C_24  and  O_25
REMARK    7  A    between atoms: C_29  and  O_30
REMARK                            x       y       z     vdW  Elec       q    Type
REMARK                         _______ _______ _______ _____ _____    ______ ____
ROOT
ATOM      1  O   UNL     1     -36.722  25.462   3.828  0.00  0.00    -0.450 OA
ATOM      2  O   UNL     1     -39.062  24.776   2.294  0.00  0.00    -0.418 OA
ATOM      3  O   UNL     1     -39.935  26.847   1.866  0.00  0.00    -0.244 OA
ATOM      4  C   UNL     1     -36.940  24.185   3.387  0.00  0.00    +0.176 A 
ATOM      5  C   UNL     1     -38.050  23.843   2.623  0.00  0.00    +0.184 A 
ATOM      6  C   UNL     1     -36.030  23.197   3.766  0.00  0.00    +0.025 A 
ATOM      7  C   UNL     1     -38.264  22.525   2.221  0.00  0.00    +0.079 A 
ATOM      8  C   UNL     1     -37.590  26.702   1.932  0.00  0.00    +0.107 C 
ATOM      9  C   UNL     1     -36.559  26.368   2.811  0.00  0.00    +0.157 C 
ATOM     10  C   UNL     1     -36.229  21.878   3.356  0.00  0.00    +0.108 A 
ATOM     11  C   UNL     1     -37.342  21.542   2.582  0.00  0.00    +0.141 A 
ATOM     12  C   UNL     1     -37.364  27.663   0.939  0.00  0.00    -0.010 C 
ATOM     13  C   UNL     1     -35.315  26.998   2.713  0.00  0.00    +0.110 C 
ATOM     14  C   UNL     1     -38.949  26.143   2.049  0.00  0.00    +0.348 C 
ATOM     15  C   UNL     1     -34.850  23.548   4.615  0.00  0.00    +0.035 C 
ATOM     16  C   UNL     1     -36.115  28.276   0.828  0.00  0.00    +0.033 C 
ATOM     17  C   UNL     1     -35.092  27.946   1.716  0.00  0.00    +0.139 C 
ATOM     18  C   UNL     1     -38.406  28.058  -0.058  0.00  0.00    +0.031 C 
ENDROOT
BRANCH  11  19
ATOM     19  O   UNL     1     -37.539  20.251   2.189  0.00  0.00    -0.505 OA
ATOM     20  H   UNL     1     -38.375  19.845   2.313  0.00  0.00    +0.292 HD
ENDBRANCH  11  19
BRANCH  17  21
ATOM     21  O   UNL     1     -33.886  28.569   1.595  0.00  0.00    -0.505 OA
ATOM     22  H   UNL     1     -33.307  28.337   0.895  0.00  0.00    +0.292 HD
ENDBRANCH  17  21
BRANCH  10  24
ATOM     23  O   UNL     1     -34.604  20.168   2.954  0.00  0.00    -0.245 OA
ATOM     24  C   UNL     1     -35.278  20.838   3.739  0.00  0.00    +0.341 C 
BRANCH  24  25
ATOM     25  O   UNL     1     -35.205  20.678   5.087  0.00  0.00    -0.477 OA
ATOM     26  H   UNL     1     -34.763  19.935   5.447  0.00  0.00    +0.295 HD
ENDBRANCH  24  25
ENDBRANCH  10  24
BRANCH  13  28
ATOM     27  O   UNL     1     -33.124  26.317   3.289  0.00  0.00    -0.283 OA
ATOM     28  C   UNL     1     -34.242  26.684   3.651  0.00  0.00    +0.240 C 
ENDBRANCH  13  28
BRANCH   7  29
ATOM     29  C   UNL     1     -39.470  22.162   1.417  0.00  0.00    +0.170 C 
BRANCH  29  30
ATOM     30  O   UNL     1     -40.168  21.109   2.067  0.00  0.00    -0.377 OA
ATOM     31  H   UNL     1     -39.596  20.328   2.125  0.00  0.00    +0.211 HD
ENDBRANCH  29  30
ENDBRANCH   7  29
TORSDOF 7
ENDMDL
MODEL 6
REMARK VINA RESULT:      -6.1      2.567      5.467
REMARK  Name = 5489486
REMARK  7 active torsions:
REMARK  status: ('A' for Active; 'I' for Inactive)
REMARK    1  A    between atoms: C_7  and  C_29
REMARK    2  A    between atoms: C_10  and  C_24
REMARK    3  A    between atoms: C_11  and  O_19
REMARK    4  A    between atoms: C_13  and  C_28
REMARK    5  A    between atoms: C_17  and  O_21
REMARK    6  A    between atoms: C_24  and  O_25
REMARK    7  A    between atoms: C_29  and  O_30
REMARK                            x       y       z     vdW  Elec       q    Type
REMARK                         _______ _______ _______ _____ _____    ______ ____
ROOT
ATOM      1  O   UNL     1     -38.183  21.383   1.846  0.00  0.00    -0.450 OA
ATOM      2  O   UNL     1     -35.818  21.775   3.444  0.00  0.00    -0.418 OA
ATOM      3  O   UNL     1     -34.627  19.887   2.945  0.00  0.00    -0.244 OA
ATOM      4  C   UNL     1     -37.937  22.570   2.482  0.00  0.00    +0.176 A 
ATOM      5  C   UNL     1     -36.789  22.784   3.235  0.00  0.00    +0.184 A 
ATOM      6  C   UNL     1     -38.906  23.570   2.400  0.00  0.00    +0.025 A 
ATOM      7  C   UNL     1     -36.585  23.991   3.903  0.00  0.00    +0.079 A 
ATOM      8  C   UNL     1     -35.921  20.790   1.203  0.00  0.00    +0.107 C 
ATOM      9  C   UNL     1     -37.249  21.076   0.889  0.00  0.00    +0.157 C 
ATOM     10  C   UNL     1     -38.705  24.787   3.053  0.00  0.00    +0.108 A 
ATOM     11  C   UNL     1     -37.545  24.998   3.802  0.00  0.00    +0.141 A 
ATOM     12  C   UNL     1     -35.029  20.449   0.178  0.00  0.00    -0.010 C 
ATOM     13  C   UNL     1     -37.694  21.008  -0.434  0.00  0.00    +0.110 C 
ATOM     14  C   UNL     1     -35.420  20.751   2.588  0.00  0.00    +0.348 C 
ATOM     15  C   UNL     1     -40.162  23.338   1.620  0.00  0.00    +0.035 C 
ATOM     16  C   UNL     1     -35.469  20.402  -1.146  0.00  0.00    +0.033 C 
ATOM     17  C   UNL     1     -36.800  20.679  -1.452  0.00  0.00    +0.139 C 
ATOM     18  C   UNL     1     -33.584  20.154   0.426  0.00  0.00    +0.031 C 
ENDROOT
BRANCH  11  19
ATOM     19  O   UNL     1     -37.354  26.185   4.447  0.00  0.00    -0.505 OA
ATOM     20  H   UNL     1     -37.926  26.437   5.145  0.00  0.00    +0.292 HD
ENDBRANCH  11  19
BRANCH  17  21
ATOM     21  O   UNL     1     -37.207  20.613  -2.751  0.00  0.00    -0.505 OA
ATOM     22  H   UNL     1     -37.894  21.173  -3.056  0.00  0.00    +0.292 HD
ENDBRANCH  17  21
BRANCH  10  24
ATOM     23  O   UNL     1     -39.786  26.675   2.059  0.00  0.00    -0.245 OA
ATOM     24  C   UNL     1     -39.709  25.843   2.965  0.00  0.00    +0.341 C 
BRANCH  24  25
ATOM     25  O   UNL     1     -40.576  25.818   4.011  0.00  0.00    -0.477 OA
ATOM     26  H   UNL     1     -40.270  25.595   4.868  0.00  0.00    +0.295 HD
ENDBRANCH  24  25
ENDBRANCH  10  24
BRANCH  13  28
ATOM     27  O   UNL     1     -39.874  20.383  -1.106  0.00  0.00    -0.283 OA
ATOM     28  C   UNL     1     -39.090  21.269  -0.769  0.00  0.00    +0.240 C 
ENDBRANCH  13  28
BRANCH   7  29
ATOM     29  C   UNL     1     -35.357  24.206   4.727  0.00  0.00    +0.170 C 
BRANCH  29  30
ATOM     30  O   UNL     1     -35.399  23.354   5.864  0.00  0.00    -0.377 OA
ATOM     31  H   UNL     1     -34.523  22.964   6.008  0.00  0.00    +0.211 HD
ENDBRANCH  29  30
ENDBRANCH   7  29
TORSDOF 7
ENDMDL
MODEL 7
REMARK VINA RESULT:      -5.9      3.649      6.726
REMARK  Name = 5489486
REMARK  7 active torsions:
REMARK  status: ('A' for Active; 'I' for Inactive)
REMARK    1  A    between atoms: C_7  and  C_29
REMARK    2  A    between atoms: C_10  and  C_24
REMARK    3  A    between atoms: C_11  and  O_19
REMARK    4  A    between atoms: C_13  and  C_28
REMARK    5  A    between atoms: C_17  and  O_21
REMARK    6  A    between atoms: C_24  and  O_25
REMARK    7  A    between atoms: C_29  and  O_30
REMARK                            x       y       z     vdW  Elec       q    Type
REMARK                         _______ _______ _______ _____ _____    ______ ____
ROOT
ATOM      1  O   UNL     1     -35.299  23.542   1.592  0.00  0.00    -0.450 OA
ATOM      2  O   UNL     1     -33.953  26.067   1.923  0.00  0.00    -0.418 OA
ATOM      3  O   UNL     1     -35.193  27.017   3.594  0.00  0.00    -0.244 OA
ATOM      4  C   UNL     1     -34.108  23.805   0.972  0.00  0.00    +0.176 A 
ATOM      5  C   UNL     1     -33.432  25.008   1.141  0.00  0.00    +0.184 A 
ATOM      6  C   UNL     1     -33.593  22.840   0.106  0.00  0.00    +0.025 A 
ATOM      7  C   UNL     1     -32.239  25.261   0.465  0.00  0.00    +0.079 A 
ATOM      8  C   UNL     1     -34.921  24.684   3.698  0.00  0.00    +0.107 C 
ATOM      9  C   UNL     1     -35.209  23.536   2.961  0.00  0.00    +0.157 C 
ATOM     10  C   UNL     1     -32.393  23.079  -0.564  0.00  0.00    +0.108 A 
ATOM     11  C   UNL     1     -31.715  24.287  -0.384  0.00  0.00    +0.141 A 
ATOM     12  C   UNL     1     -34.881  24.613   5.097  0.00  0.00    -0.010 C 
ATOM     13  C   UNL     1     -35.469  22.326   3.610  0.00  0.00    +0.110 C 
ATOM     14  C   UNL     1     -34.735  26.006   3.074  0.00  0.00    +0.348 C 
ATOM     15  C   UNL     1     -34.329  21.555  -0.111  0.00  0.00    +0.035 C 
ATOM     16  C   UNL     1     -35.120  23.400   5.744  0.00  0.00    +0.033 C 
ATOM     17  C   UNL     1     -35.417  22.257   5.001  0.00  0.00    +0.139 C 
ATOM     18  C   UNL     1     -34.555  25.791   5.959  0.00  0.00    +0.031 C 
ENDROOT
BRANCH  11  19
ATOM     19  O   UNL     1     -30.546  24.522  -1.046  0.00  0.00    -0.505 OA
ATOM     20  H   UNL     1     -30.131  23.830  -1.523  0.00  0.00    +0.292 HD
ENDBRANCH  11  19
BRANCH  17  21
ATOM     21  O   UNL     1     -35.660  21.088   5.658  0.00  0.00    -0.505 OA
ATOM     22  H   UNL     1     -35.808  21.093   6.583  0.00  0.00    +0.292 HD
ENDBRANCH  17  21
BRANCH  10  24
ATOM     23  O   UNL     1     -32.211  21.876  -2.625  0.00  0.00    -0.245 OA
ATOM     24  C   UNL     1     -31.841  22.071  -1.466  0.00  0.00    +0.341 C 
BRANCH  24  25
ATOM     25  O   UNL     1     -30.849  21.347  -0.884  0.00  0.00    -0.477 OA
ATOM     26  H   UNL     1     -29.974  21.683  -0.864  0.00  0.00    +0.295 HD
ENDBRANCH  24  25
ENDBRANCH  10  24
BRANCH  13  28
ATOM     27  O   UNL     1     -35.121  20.106   2.871  0.00  0.00    -0.283 OA
ATOM     28  C   UNL     1     -35.807  21.127   2.850  0.00  0.00    +0.240 C 
ENDBRANCH  13  28
BRANCH   7  29
ATOM     29  C   UNL     1     -31.530  26.565   0.638  0.00  0.00    +0.170 C 
BRANCH  29  30
ATOM     30  O   UNL     1     -30.289  26.342   1.293  0.00  0.00    -0.377 OA
ATOM     31  H   UNL     1     -30.268  25.439   1.648  0.00  0.00    +0.211 HD
ENDBRANCH  29  30
ENDBRANCH   7  29
TORSDOF 7
ENDMDL
MODEL 8
REMARK VINA RESULT:      -5.9      1.889      4.980
REMARK  Name = 5489486
REMARK  7 active torsions:
REMARK  status: ('A' for Active; 'I' for Inactive)
REMARK    1  A    between atoms: C_7  and  C_29
REMARK    2  A    between atoms: C_10  and  C_24
REMARK    3  A    between atoms: C_11  and  O_19
REMARK    4  A    between atoms: C_13  and  C_28
REMARK    5  A    between atoms: C_17  and  O_21
REMARK    6  A    between atoms: C_24  and  O_25
REMARK    7  A    between atoms: C_29  and  O_30
REMARK                            x       y       z     vdW  Elec       q    Type
REMARK                         _______ _______ _______ _____ _____    ______ ____
ROOT
ATOM      1  O   UNL     1     -37.000  24.973   3.512  0.00  0.00    -0.450 OA
ATOM      2  O   UNL     1     -38.304  25.373   0.974  0.00  0.00    -0.418 OA
ATOM      3  O   UNL     1     -38.779  27.609   1.067  0.00  0.00    -0.244 OA
ATOM      4  C   UNL     1     -37.017  23.996   2.553  0.00  0.00    +0.176 A 
ATOM      5  C   UNL     1     -37.619  24.182   1.314  0.00  0.00    +0.184 A 
ATOM      6  C   UNL     1     -36.447  22.761   2.866  0.00  0.00    +0.025 A 
ATOM      7  C   UNL     1     -37.653  23.154   0.373  0.00  0.00    +0.079 A 
ATOM      8  C   UNL     1     -36.778  26.929   2.094  0.00  0.00    +0.107 C 
ATOM      9  C   UNL     1     -36.326  26.103   3.123  0.00  0.00    +0.157 C 
ATOM     10  C   UNL     1     -36.465  21.731   1.925  0.00  0.00    +0.108 A 
ATOM     11  C   UNL     1     -37.065  21.927   0.679  0.00  0.00    +0.141 A 
ATOM     12  C   UNL     1     -36.059  28.088   1.775  0.00  0.00    -0.010 C 
ATOM     13  C   UNL     1     -35.173  26.435   3.841  0.00  0.00    +0.110 C 
ATOM     14  C   UNL     1     -38.037  26.682   1.369  0.00  0.00    +0.348 C 
ATOM     15  C   UNL     1     -35.827  22.539   4.209  0.00  0.00    +0.035 C 
ATOM     16  C   UNL     1     -34.896  28.407   2.478  0.00  0.00    +0.033 C 
ATOM     17  C   UNL     1     -34.455  27.582   3.512  0.00  0.00    +0.139 C 
ATOM     18  C   UNL     1     -36.460  29.012   0.670  0.00  0.00    +0.031 C 
ENDROOT
BRANCH  11  19
ATOM     19  O   UNL     1     -37.088  20.916  -0.237  0.00  0.00    -0.505 OA
ATOM     20  H   UNL     1     -37.793  20.857  -0.851  0.00  0.00    +0.292 HD
ENDBRANCH  11  19
BRANCH  17  21
ATOM     21  O   UNL     1     -33.324  27.924   4.193  0.00  0.00    -0.505 OA
ATOM     22  H   UNL     1     -33.388  28.388   5.005  0.00  0.00    +0.292 HD
ENDBRANCH  17  21
BRANCH  10  24
ATOM     23  O   UNL     1     -34.659  20.181   2.178  0.00  0.00    -0.245 OA
ATOM     24  C   UNL     1     -35.863  20.438   2.240  0.00  0.00    +0.341 C 
BRANCH  24  25
ATOM     25  O   UNL     1     -36.789  19.518   2.619  0.00  0.00    -0.477 OA
ATOM     26  H   UNL     1     -37.156  19.550   3.480  0.00  0.00    +0.295 HD
ENDBRANCH  24  25
ENDBRANCH  10  24
BRANCH  13  28
ATOM     27  O   UNL     1     -33.589  25.096   4.979  0.00  0.00    -0.283 OA
ATOM     28  C   UNL     1     -34.712  25.597   4.944  0.00  0.00    +0.240 C 
ENDBRANCH  13  28
BRANCH   7  29
ATOM     29  C   UNL     1     -38.320  23.357  -0.949  0.00  0.00    +0.170 C 
BRANCH  29  30
ATOM     30  O   UNL     1     -39.457  22.508  -1.037  0.00  0.00    -0.377 OA
ATOM     31  H   UNL     1     -40.051  22.833  -1.731  0.00  0.00    +0.211 HD
ENDBRANCH  29  30
ENDBRANCH   7  29
TORSDOF 7
ENDMDL
MODEL 9
REMARK VINA RESULT:      -5.8     11.851     14.571
REMARK  Name = 5489486
REMARK  7 active torsions:
REMARK  status: ('A' for Active; 'I' for Inactive)
REMARK    1  A    between atoms: C_7  and  C_29
REMARK    2  A    between atoms: C_10  and  C_24
REMARK    3  A    between atoms: C_11  and  O_19
REMARK    4  A    between atoms: C_13  and  C_28
REMARK    5  A    between atoms: C_17  and  O_21
REMARK    6  A    between atoms: C_24  and  O_25
REMARK    7  A    between atoms: C_29  and  O_30
REMARK                            x       y       z     vdW  Elec       q    Type
REMARK                         _______ _______ _______ _____ _____    ______ ____
ROOT
ATOM      1  O   UNL     1     -39.881  36.123  -1.882  0.00  0.00    -0.450 OA
ATOM      2  O   UNL     1     -42.411  36.785  -0.675  0.00  0.00    -0.418 OA
ATOM      3  O   UNL     1     -42.635  35.090   0.845  0.00  0.00    -0.244 OA
ATOM      4  C   UNL     1     -40.506  37.313  -2.137  0.00  0.00    +0.176 A 
ATOM      5  C   UNL     1     -41.714  37.660  -1.542  0.00  0.00    +0.184 A 
ATOM      6  C   UNL     1     -39.920  38.176  -3.064  0.00  0.00    +0.025 A 
ATOM      7  C   UNL     1     -42.345  38.864  -1.852  0.00  0.00    +0.079 A 
ATOM      8  C   UNL     1     -40.448  35.859   0.461  0.00  0.00    +0.107 C 
ATOM      9  C   UNL     1     -39.514  35.972  -0.569  0.00  0.00    +0.157 C 
ATOM     10  C   UNL     1     -40.537  39.389  -3.369  0.00  0.00    +0.108 A 
ATOM     11  C   UNL     1     -41.747  39.734  -2.763  0.00  0.00    +0.141 A 
ATOM     12  C   UNL     1     -40.003  35.670   1.776  0.00  0.00    -0.010 C 
ATOM     13  C   UNL     1     -38.146  35.882  -0.297  0.00  0.00    +0.110 C 
ATOM     14  C   UNL     1     -41.902  35.849   0.222  0.00  0.00    +0.348 C 
ATOM     15  C   UNL     1     -38.637  37.799  -3.735  0.00  0.00    +0.035 C 
ATOM     16  C   UNL     1     -38.636  35.601   2.050  0.00  0.00    +0.033 C 
ATOM     17  C   UNL     1     -37.708  35.705   1.014  0.00  0.00    +0.139 C 
ATOM     18  C   UNL     1     -40.936  35.566   2.940  0.00  0.00    +0.031 C 
ENDROOT
BRANCH  11  19
ATOM     19  O   UNL     1     -42.353  40.918  -3.069  0.00  0.00    -0.505 OA
ATOM     20  H   UNL     1     -42.095  41.392  -3.834  0.00  0.00    +0.292 HD
ENDBRANCH  11  19
BRANCH  17  21
ATOM     21  O   UNL     1     -36.379  35.621   1.307  0.00  0.00    -0.505 OA
ATOM     22  H   UNL     1     -36.097  35.156   2.070  0.00  0.00    +0.292 HD
ENDBRANCH  17  21
BRANCH  10  24
ATOM     23  O   UNL     1     -40.023  40.211  -5.557  0.00  0.00    -0.245 OA
ATOM     24  C   UNL     1     -39.927  40.303  -4.331  0.00  0.00    +0.341 C 
BRANCH  24  25
ATOM     25  O   UNL     1     -39.224  41.295  -3.725  0.00  0.00    -0.477 OA
ATOM     26  H   UNL     1     -38.298  41.360  -3.854  0.00  0.00    +0.295 HD
ENDBRANCH  24  25
ENDBRANCH  10  24
BRANCH  13  28
ATOM     27  O   UNL     1     -36.221  36.753  -1.360  0.00  0.00    -0.283 OA
ATOM     28  C   UNL     1     -37.163  35.961  -1.372  0.00  0.00    +0.240 C 
ENDBRANCH  13  28
BRANCH   7  29
ATOM     29  C   UNL     1     -43.654  39.219  -1.223  0.00  0.00    +0.170 C 
BRANCH  29  30
ATOM     30  O   UNL     1     -43.426  39.698   0.096  0.00  0.00    -0.377 OA
ATOM     31  H   UNL     1     -42.626  40.245   0.108  0.00  0.00    +0.211 HD
ENDBRANCH  29  30
ENDBRANCH   7  29
TORSDOF 7
ENDMDL
