MODEL 1
REMARK VINA RESULT:      -5.1      0.000      0.000
REMARK  Name = 5462265
REMARK  15 active torsions:
REMARK  status: ('A' for Active; 'I' for Inactive)
REMARK    1  A    between atoms: C_1  and  N_3
REMARK    2  A    between atoms: C_1  and  C_15
REMARK    3  A    between atoms: C_1  and  C_18
REMARK    4  A    between atoms: C_4  and  C_6
REMARK    5  A    between atoms: C_6  and  C_7
REMARK    6  A    between atoms: C_7  and  C_8
REMARK    7  A    between atoms: C_8  and  C_9
REMARK    8  A    between atoms: C_9  and  C_10
REMARK    9  A    between atoms: C_10  and  C_11
REMARK   10  A    between atoms: C_11  and  S_12
REMARK   11  A    between atoms: C_15  and  O_16
REMARK   12  A    between atoms: C_18  and  O_20
REMARK   13  A    between atoms: O_20  and  P_21
REMARK   14  A    between atoms: P_21  and  O_23
REMARK   15  A    between atoms: P_21  and  O_25
REMARK                            x       y       z     vdW  Elec       q    Type
REMARK                         _______ _______ _______ _____ _____    ______ ____
ROOT
ATOM      1  C   UNK A   1     -36.670  23.133   3.719  0.00  0.00    +0.199 C 
ENDROOT
BRANCH   1   3
ATOM      2  O   UNK A   0     -35.650  20.517   3.022  0.00  0.00    -0.275 OA
ATOM      3  N   UNK A   1     -35.810  22.797   2.607  0.00  0.00    -0.295 N 
ATOM      4  C   UNK A   0     -35.370  21.507   2.352  0.00  0.00    +0.223 C 
ATOM      5  H   UNK A   1     -35.523  23.519   2.003  0.00  0.00    +0.150 HD
BRANCH   4   6
ATOM      6  C   UNK A   0     -34.489  21.452   1.115  0.00  0.00    +0.085 C 
BRANCH   6   7
ATOM      7  C   UNK A   0     -33.720  20.137   1.006  0.00  0.00    +0.010 C 
BRANCH   7   8
ATOM      8  C   UNK A   0     -32.410  20.261   0.224  0.00  0.00    +0.001 C 
BRANCH   8   9
ATOM      9  C   UNK A   0     -31.457  19.084   0.444  0.00  0.00    +0.001 C 
BRANCH   9  10
ATOM     10  C   UNK A   0     -32.161  17.928   1.162  0.00  0.00    +0.011 C 
BRANCH  10  11
ATOM     11  C   UNK A   0     -32.316  16.725   0.236  0.00  0.00    +0.053 C 
BRANCH  11  12
ATOM     12  S   UNK A   0     -34.058  16.493  -0.219  0.00  0.00    -0.168 S 
ATOM     13  H   UNK A   0     -34.850  16.817   0.837  0.00  0.00    +0.102 HD
ENDBRANCH  11  12
ENDBRANCH  10  11
ENDBRANCH   9  10
ENDBRANCH   8   9
ENDBRANCH   7   8
ENDBRANCH   6   7
ENDBRANCH   4   6
ENDBRANCH   1   3
BRANCH   1  15
ATOM     14  O   UNK A   1     -38.237  23.919   2.026  0.00  0.00    -0.248 OA
ATOM     15  C   UNK A   1     -37.804  23.978   3.169  0.00  0.00    +0.334 C 
BRANCH  15  16
ATOM     16  O   UNK A   1     -38.270  24.863   4.088  0.00  0.00    -0.479 OA
ATOM     17  H   UNK A   1     -38.908  25.504   3.840  0.00  0.00    +0.295 HD
ENDBRANCH  15  16
ENDBRANCH   1  15
BRANCH   1  18
ATOM     18  C   UNK A   1     -35.933  23.862   4.847  0.00  0.00    +0.155 C 
ATOM     19  C   UNK A   1     -35.209  22.909   5.791  0.00  0.00    +0.035 C 
BRANCH  18  20
ATOM     20  O   UNK A   1     -34.987  24.785   4.310  0.00  0.00    -0.274 OA
BRANCH  20  21
ATOM     21  P   UNK A   1     -34.963  26.286   4.907  0.00  0.00    +0.473 P 
ATOM     22  O   UNK A   1     -34.597  27.358   3.921  0.00  0.00    -0.227 OA
BRANCH  21  23
ATOM     23  O   UNK A   1     -36.436  26.431   5.558  0.00  0.00    -0.303 OA
ATOM     24  H   UNK A   1     -36.544  25.771   6.260  0.00  0.00    +0.222 HD
ENDBRANCH  21  23
BRANCH  21  25
ATOM     25  O   UNK A   1     -33.994  26.173   6.196  0.00  0.00    -0.303 OA
ATOM     26  H   UNK A   1     -34.264  25.416   6.738  0.00  0.00    +0.222 HD
ENDBRANCH  21  25
ENDBRANCH  20  21
ENDBRANCH  18  20
ENDBRANCH   1  18
TORSDOF 15
ENDMDL
MODEL 2
REMARK VINA RESULT:      -5.0      1.406      1.814
REMARK  Name = 5462265
REMARK  15 active torsions:
REMARK  status: ('A' for Active; 'I' for Inactive)
REMARK    1  A    between atoms: C_1  and  N_3
REMARK    2  A    between atoms: C_1  and  C_15
REMARK    3  A    between atoms: C_1  and  C_18
REMARK    4  A    between atoms: C_4  and  C_6
REMARK    5  A    between atoms: C_6  and  C_7
REMARK    6  A    between atoms: C_7  and  C_8
REMARK    7  A    between atoms: C_8  and  C_9
REMARK    8  A    between atoms: C_9  and  C_10
REMARK    9  A    between atoms: C_10  and  C_11
REMARK   10  A    between atoms: C_11  and  S_12
REMARK   11  A    between atoms: C_15  and  O_16
REMARK   12  A    between atoms: C_18  and  O_20
REMARK   13  A    between atoms: O_20  and  P_21
REMARK   14  A    between atoms: P_21  and  O_23
REMARK   15  A    between atoms: P_21  and  O_25
REMARK                            x       y       z     vdW  Elec       q    Type
REMARK                         _______ _______ _______ _____ _____    ______ ____
ROOT
ATOM      1  C   UNK A   1     -36.577  23.043   3.793  0.00  0.00    +0.199 C 
ENDROOT
BRANCH   1   3
ATOM      2  O   UNK A   0     -35.857  20.359   2.987  0.00  0.00    -0.275 OA
ATOM      3  N   UNK A   1     -35.674  22.661   2.732  0.00  0.00    -0.295 N 
ATOM      4  C   UNK A   0     -35.389  21.341   2.417  0.00  0.00    +0.223 C 
ATOM      5  H   UNK A   1     -35.241  23.373   2.207  0.00  0.00    +0.150 HD
BRANCH   4   6
ATOM      6  C   UNK A   0     -34.417  21.242   1.254  0.00  0.00    +0.085 C 
BRANCH   6   7
ATOM      7  C   UNK A   0     -34.102  19.795   0.880  0.00  0.00    +0.010 C 
BRANCH   7   8
ATOM      8  C   UNK A   0     -32.603  19.510   0.756  0.00  0.00    +0.001 C 
BRANCH   8   9
ATOM      9  C   UNK A   0     -32.200  18.136   1.294  0.00  0.00    +0.001 C 
BRANCH   9  10
ATOM     10  C   UNK A   0     -31.091  17.510   0.442  0.00  0.00    +0.011 C 
BRANCH  10  11
ATOM     11  C   UNK A   0     -29.879  18.433   0.359  0.00  0.00    +0.053 C 
BRANCH  11  12
ATOM     12  S   UNK A   0     -28.439  17.666   1.154  0.00  0.00    -0.168 S 
ATOM     13  H   UNK A   0     -28.753  16.399   1.535  0.00  0.00    +0.102 HD
ENDBRANCH  11  12
ENDBRANCH  10  11
ENDBRANCH   9  10
ENDBRANCH   8   9
ENDBRANCH   7   8
ENDBRANCH   6   7
ENDBRANCH   4   6
ENDBRANCH   1   3
BRANCH   1  15
ATOM     14  O   UNK A   1     -37.962  23.949   2.005  0.00  0.00    -0.248 OA
ATOM     15  C   UNK A   1     -37.630  23.949   3.182  0.00  0.00    +0.334 C 
BRANCH  15  16
ATOM     16  O   UNK A   1     -38.147  24.814   4.093  0.00  0.00    -0.479 OA
ATOM     17  H   UNK A   1     -38.580  25.594   3.805  0.00  0.00    +0.295 HD
ENDBRANCH  15  16
ENDBRANCH   1  15
BRANCH   1  18
ATOM     18  C   UNK A   1     -35.868  23.731   4.965  0.00  0.00    +0.155 C 
ATOM     19  C   UNK A   1     -35.136  22.748   5.871  0.00  0.00    +0.035 C 
BRANCH  18  20
ATOM     20  O   UNK A   1     -34.934  24.697   4.484  0.00  0.00    -0.274 OA
BRANCH  20  21
ATOM     21  P   UNK A   1     -34.879  26.135   5.217  0.00  0.00    +0.473 P 
ATOM     22  O   UNK A   1     -33.848  26.260   6.300  0.00  0.00    -0.227 OA
BRANCH  21  23
ATOM     23  O   UNK A   1     -34.693  27.156   3.976  0.00  0.00    -0.303 OA
ATOM     24  H   UNK A   1     -35.551  27.547   3.749  0.00  0.00    +0.222 HD
ENDBRANCH  21  23
BRANCH  21  25
ATOM     25  O   UNK A   1     -36.406  26.389   5.683  0.00  0.00    -0.303 OA
ATOM     26  H   UNK A   1     -36.939  25.602   5.487  0.00  0.00    +0.222 HD
ENDBRANCH  21  25
ENDBRANCH  20  21
ENDBRANCH  18  20
ENDBRANCH   1  18
TORSDOF 15
ENDMDL
MODEL 3
REMARK VINA RESULT:      -4.8      4.298      6.362
REMARK  Name = 5462265
REMARK  15 active torsions:
REMARK  status: ('A' for Active; 'I' for Inactive)
REMARK    1  A    between atoms: C_1  and  N_3
REMARK    2  A    between atoms: C_1  and  C_15
REMARK    3  A    between atoms: C_1  and  C_18
REMARK    4  A    between atoms: C_4  and  C_6
REMARK    5  A    between atoms: C_6  and  C_7
REMARK    6  A    between atoms: C_7  and  C_8
REMARK    7  A    between atoms: C_8  and  C_9
REMARK    8  A    between atoms: C_9  and  C_10
REMARK    9  A    between atoms: C_10  and  C_11
REMARK   10  A    between atoms: C_11  and  S_12
REMARK   11  A    between atoms: C_15  and  O_16
REMARK   12  A    between atoms: C_18  and  O_20
REMARK   13  A    between atoms: O_20  and  P_21
REMARK   14  A    between atoms: P_21  and  O_23
REMARK   15  A    between atoms: P_21  and  O_25
REMARK                            x       y       z     vdW  Elec       q    Type
REMARK                         _______ _______ _______ _____ _____    ______ ____
ROOT
ATOM      1  C   UNK A   1     -35.738  22.487   3.642  0.00  0.00    +0.199 C 
ENDROOT
BRANCH   1   3
ATOM      2  O   UNK A   0     -37.141  21.696   1.238  0.00  0.00    -0.275 OA
ATOM      3  N   UNK A   1     -37.165  22.512   3.414  0.00  0.00    -0.295 N 
ATOM      4  C   UNK A   0     -37.749  22.111   2.221  0.00  0.00    +0.223 C 
ATOM      5  H   UNK A   1     -37.750  22.828   4.140  0.00  0.00    +0.150 HD
BRANCH   4   6
ATOM      6  C   UNK A   0     -39.262  22.235   2.271  0.00  0.00    +0.085 C 
BRANCH   6   7
ATOM      7  C   UNK A   0     -39.789  23.312   1.324  0.00  0.00    +0.010 C 
BRANCH   7   8
ATOM      8  C   UNK A   0     -39.415  24.733   1.749  0.00  0.00    +0.001 C 
BRANCH   8   9
ATOM      9  C   UNK A   0     -39.829  25.067   3.184  0.00  0.00    +0.001 C 
BRANCH   9  10
ATOM     10  C   UNK A   0     -40.953  26.108   3.209  0.00  0.00    +0.011 C 
BRANCH  10  11
ATOM     11  C   UNK A   0     -41.401  26.461   1.793  0.00  0.00    +0.053 C 
BRANCH  11  12
ATOM     12  S   UNK A   0     -43.070  25.821   1.476  0.00  0.00    -0.168 S 
ATOM     13  H   UNK A   0     -43.991  26.711   1.934  0.00  0.00    +0.102 HD
ENDBRANCH  11  12
ENDBRANCH  10  11
ENDBRANCH   9  10
ENDBRANCH   8   9
ENDBRANCH   7   8
ENDBRANCH   6   7
ENDBRANCH   4   6
ENDBRANCH   1   3
BRANCH   1  15
ATOM     14  O   UNK A   1     -35.008  20.885   5.327  0.00  0.00    -0.248 OA
ATOM     15  C   UNK A   1     -35.518  21.962   5.049  0.00  0.00    +0.334 C 
BRANCH  15  16
ATOM     16  O   UNK A   1     -36.001  22.814   5.990  0.00  0.00    -0.479 OA
ATOM     17  H   UNK A   1     -35.475  23.037   6.734  0.00  0.00    +0.295 HD
ENDBRANCH  15  16
ENDBRANCH   1  15
BRANCH   1  18
ATOM     18  C   UNK A   1     -35.078  23.857   3.453  0.00  0.00    +0.155 C 
ATOM     19  C   UNK A   1     -34.618  24.097   2.019  0.00  0.00    +0.035 C 
BRANCH  18  20
ATOM     20  O   UNK A   1     -35.976  24.900   3.828  0.00  0.00    -0.274 OA
BRANCH  20  21
ATOM     21  P   UNK A   1     -35.400  26.119   4.717  0.00  0.00    +0.473 P 
ATOM     22  O   UNK A   1     -34.774  27.237   3.936  0.00  0.00    -0.227 OA
BRANCH  21  23
ATOM     23  O   UNK A   1     -36.682  26.542   5.608  0.00  0.00    -0.303 OA
ATOM     24  H   UNK A   1     -36.793  25.909   6.334  0.00  0.00    +0.222 HD
ENDBRANCH  21  23
BRANCH  21  25
ATOM     25  O   UNK A   1     -34.428  25.392   5.785  0.00  0.00    -0.303 OA
ATOM     26  H   UNK A   1     -34.503  24.430   5.689  0.00  0.00    +0.222 HD
ENDBRANCH  21  25
ENDBRANCH  20  21
ENDBRANCH  18  20
ENDBRANCH   1  18
TORSDOF 15
ENDMDL
MODEL 4
REMARK VINA RESULT:      -4.8      3.866      6.169
REMARK  Name = 5462265
REMARK  15 active torsions:
REMARK  status: ('A' for Active; 'I' for Inactive)
REMARK    1  A    between atoms: C_1  and  N_3
REMARK    2  A    between atoms: C_1  and  C_15
REMARK    3  A    between atoms: C_1  and  C_18
REMARK    4  A    between atoms: C_4  and  C_6
REMARK    5  A    between atoms: C_6  and  C_7
REMARK    6  A    between atoms: C_7  and  C_8
REMARK    7  A    between atoms: C_8  and  C_9
REMARK    8  A    between atoms: C_9  and  C_10
REMARK    9  A    between atoms: C_10  and  C_11
REMARK   10  A    between atoms: C_11  and  S_12
REMARK   11  A    between atoms: C_15  and  O_16
REMARK   12  A    between atoms: C_18  and  O_20
REMARK   13  A    between atoms: O_20  and  P_21
REMARK   14  A    between atoms: P_21  and  O_23
REMARK   15  A    between atoms: P_21  and  O_25
REMARK                            x       y       z     vdW  Elec       q    Type
REMARK                         _______ _______ _______ _____ _____    ______ ____
ROOT
ATOM      1  C   UNK A   1     -32.573  27.726   4.464  0.00  0.00    +0.199 C 
ENDROOT
BRANCH   1   3
ATOM      2  O   UNK A   0     -33.347  24.938   4.440  0.00  0.00    -0.275 OA
ATOM      3  N   UNK A   1     -33.742  27.138   5.077  0.00  0.00    -0.295 N 
ATOM      4  C   UNK A   0     -34.031  25.783   5.012  0.00  0.00    +0.223 C 
ATOM      5  H   UNK A   1     -34.361  27.727   5.565  0.00  0.00    +0.150 HD
BRANCH   4   6
ATOM      6  C   UNK A   0     -35.315  25.450   5.754  0.00  0.00    +0.085 C 
BRANCH   6   7
ATOM      7  C   UNK A   0     -35.950  24.150   5.264  0.00  0.00    +0.010 C 
BRANCH   7   8
ATOM      8  C   UNK A   0     -35.470  22.913   6.027  0.00  0.00    +0.001 C 
BRANCH   8   9
ATOM      9  C   UNK A   0     -35.193  21.711   5.121  0.00  0.00    +0.001 C 
BRANCH   9  10
ATOM     10  C   UNK A   0     -35.608  21.998   3.675  0.00  0.00    +0.011 C 
BRANCH  10  11
ATOM     11  C   UNK A   0     -35.450  20.755   2.804  0.00  0.00    +0.053 C 
BRANCH  11  12
ATOM     12  S   UNK A   0     -36.764  20.682   1.555  0.00  0.00    -0.168 S 
ATOM     13  H   UNK A   0     -36.768  19.453   0.972  0.00  0.00    +0.102 HD
ENDBRANCH  11  12
ENDBRANCH  10  11
ENDBRANCH   9  10
ENDBRANCH   8   9
ENDBRANCH   7   8
ENDBRANCH   6   7
ENDBRANCH   4   6
ENDBRANCH   1   3
BRANCH   1  15
ATOM     14  O   UNK A   1     -32.304  29.691   5.879  0.00  0.00    -0.248 OA
ATOM     15  C   UNK A   1     -31.904  28.594   5.513  0.00  0.00    +0.334 C 
BRANCH  15  16
ATOM     16  O   UNK A   1     -30.760  28.033   5.983  0.00  0.00    -0.479 OA
ATOM     17  H   UNK A   1     -30.756  27.606   6.818  0.00  0.00    +0.295 HD
ENDBRANCH  15  16
ENDBRANCH   1  15
BRANCH   1  18
ATOM     18  C   UNK A   1     -32.901  28.534   3.204  0.00  0.00    +0.155 C 
ATOM     19  C   UNK A   1     -32.711  27.731   1.922  0.00  0.00    +0.035 C 
BRANCH  18  20
ATOM     20  O   UNK A   1     -34.245  29.011   3.253  0.00  0.00    -0.274 OA
BRANCH  20  21
ATOM     21  P   UNK A   1     -34.517  30.561   2.889  0.00  0.00    +0.473 P 
ATOM     22  O   UNK A   1     -34.834  30.831   1.447  0.00  0.00    -0.227 OA
BRANCH  21  23
ATOM     23  O   UNK A   1     -35.683  30.968   3.934  0.00  0.00    -0.303 OA
ATOM     24  H   UNK A   1     -35.323  30.972   4.833  0.00  0.00    +0.222 HD
ENDBRANCH  21  23
BRANCH  21  25
ATOM     25  O   UNK A   1     -33.216  31.327   3.466  0.00  0.00    -0.303 OA
ATOM     26  H   UNK A   1     -32.443  30.745   3.402  0.00  0.00    +0.222 HD
ENDBRANCH  21  25
ENDBRANCH  20  21
ENDBRANCH  18  20
ENDBRANCH   1  18
TORSDOF 15
ENDMDL
MODEL 5
REMARK VINA RESULT:      -4.7      2.000      2.489
REMARK  Name = 5462265
REMARK  15 active torsions:
REMARK  status: ('A' for Active; 'I' for Inactive)
REMARK    1  A    between atoms: C_1  and  N_3
REMARK    2  A    between atoms: C_1  and  C_15
REMARK    3  A    between atoms: C_1  and  C_18
REMARK    4  A    between atoms: C_4  and  C_6
REMARK    5  A    between atoms: C_6  and  C_7
REMARK    6  A    between atoms: C_7  and  C_8
REMARK    7  A    between atoms: C_8  and  C_9
REMARK    8  A    between atoms: C_9  and  C_10
REMARK    9  A    between atoms: C_10  and  C_11
REMARK   10  A    between atoms: C_11  and  S_12
REMARK   11  A    between atoms: C_15  and  O_16
REMARK   12  A    between atoms: C_18  and  O_20
REMARK   13  A    between atoms: O_20  and  P_21
REMARK   14  A    between atoms: P_21  and  O_23
REMARK   15  A    between atoms: P_21  and  O_25
REMARK                            x       y       z     vdW  Elec       q    Type
REMARK                         _______ _______ _______ _____ _____    ______ ____
ROOT
ATOM      1  C   UNK A   1     -36.636  23.109   3.735  0.00  0.00    +0.199 C 
ENDROOT
BRANCH   1   3
ATOM      2  O   UNK A   0     -35.863  20.385   3.141  0.00  0.00    -0.275 OA
ATOM      3  N   UNK A   1     -35.776  22.658   2.665  0.00  0.00    -0.295 N 
ATOM      4  C   UNK A   0     -35.461  21.324   2.458  0.00  0.00    +0.223 C 
ATOM      5  H   UNK A   1     -35.397  23.330   2.054  0.00  0.00    +0.150 HD
BRANCH   4   6
ATOM      6  C   UNK A   0     -34.547  21.146   1.257  0.00  0.00    +0.085 C 
BRANCH   6   7
ATOM      7  C   UNK A   0     -33.830  19.797   1.265  0.00  0.00    +0.010 C 
BRANCH   7   8
ATOM      8  C   UNK A   0     -34.440  18.777   0.300  0.00  0.00    +0.001 C 
BRANCH   8   9
ATOM      9  C   UNK A   0     -35.677  19.300  -0.435  0.00  0.00    +0.001 C 
BRANCH   9  10
ATOM     10  C   UNK A   0     -36.940  18.554   0.006  0.00  0.00    +0.011 C 
BRANCH  10  11
ATOM     11  C   UNK A   0     -38.192  19.223  -0.555  0.00  0.00    +0.053 C 
BRANCH  11  12
ATOM     12  S   UNK A   0     -38.493  20.807   0.278  0.00  0.00    -0.168 S 
ATOM     13  H   UNK A   0     -37.947  20.777   1.522  0.00  0.00    +0.102 HD
ENDBRANCH  11  12
ENDBRANCH  10  11
ENDBRANCH   9  10
ENDBRANCH   8   9
ENDBRANCH   7   8
ENDBRANCH   6   7
ENDBRANCH   4   6
ENDBRANCH   1   3
BRANCH   1  15
ATOM     14  O   UNK A   1     -37.959  24.065   1.926  0.00  0.00    -0.248 OA
ATOM     15  C   UNK A   1     -37.683  24.017   3.117  0.00  0.00    +0.334 C 
BRANCH  15  16
ATOM     16  O   UNK A   1     -38.265  24.824   4.041  0.00  0.00    -0.479 OA
ATOM     17  H   UNK A   1     -38.157  25.754   3.986  0.00  0.00    +0.295 HD
ENDBRANCH  15  16
ENDBRANCH   1  15
BRANCH   1  18
ATOM     18  C   UNK A   1     -35.873  23.826   4.854  0.00  0.00    +0.155 C 
ATOM     19  C   UNK A   1     -35.106  22.865   5.755  0.00  0.00    +0.035 C 
BRANCH  18  20
ATOM     20  O   UNK A   1     -34.957  24.773   4.306  0.00  0.00    -0.274 OA
BRANCH  20  21
ATOM     21  P   UNK A   1     -34.962  26.274   4.904  0.00  0.00    +0.473 P 
ATOM     22  O   UNK A   1     -34.628  27.354   3.917  0.00  0.00    -0.227 OA
BRANCH  21  23
ATOM     23  O   UNK A   1     -36.433  26.385   5.568  0.00  0.00    -0.303 OA
ATOM     24  H   UNK A   1     -36.564  27.281   5.911  0.00  0.00    +0.222 HD
ENDBRANCH  21  23
BRANCH  21  25
ATOM     25  O   UNK A   1     -33.981  26.180   6.186  0.00  0.00    -0.303 OA
ATOM     26  H   UNK A   1     -33.596  27.053   6.363  0.00  0.00    +0.222 HD
ENDBRANCH  21  25
ENDBRANCH  20  21
ENDBRANCH  18  20
ENDBRANCH   1  18
TORSDOF 15
ENDMDL
MODEL 6
REMARK VINA RESULT:      -4.7      1.886      2.663
REMARK  Name = 5462265
REMARK  15 active torsions:
REMARK  status: ('A' for Active; 'I' for Inactive)
REMARK    1  A    between atoms: C_1  and  N_3
REMARK    2  A    between atoms: C_1  and  C_15
REMARK    3  A    between atoms: C_1  and  C_18
REMARK    4  A    between atoms: C_4  and  C_6
REMARK    5  A    between atoms: C_6  and  C_7
REMARK    6  A    between atoms: C_7  and  C_8
REMARK    7  A    between atoms: C_8  and  C_9
REMARK    8  A    between atoms: C_9  and  C_10
REMARK    9  A    between atoms: C_10  and  C_11
REMARK   10  A    between atoms: C_11  and  S_12
REMARK   11  A    between atoms: C_15  and  O_16
REMARK   12  A    between atoms: C_18  and  O_20
REMARK   13  A    between atoms: O_20  and  P_21
REMARK   14  A    between atoms: P_21  and  O_23
REMARK   15  A    between atoms: P_21  and  O_25
REMARK                            x       y       z     vdW  Elec       q    Type
REMARK                         _______ _______ _______ _____ _____    ______ ____
ROOT
ATOM      1  C   UNK A   1     -36.587  24.846   4.643  0.00  0.00    +0.199 C 
ENDROOT
BRANCH   1   3
ATOM      2  O   UNK A   0     -35.942  22.459   6.146  0.00  0.00    -0.275 OA
ATOM      3  N   UNK A   1     -36.057  23.604   4.127  0.00  0.00    -0.295 N 
ATOM      4  C   UNK A   0     -35.778  22.508   4.930  0.00  0.00    +0.223 C 
ATOM      5  H   UNK A   1     -35.887  23.534   3.160  0.00  0.00    +0.150 HD
BRANCH   4   6
ATOM      6  C   UNK A   0     -35.241  21.343   4.116  0.00  0.00    +0.085 C 
BRANCH   6   7
ATOM      7  C   UNK A   0     -35.822  21.302   2.704  0.00  0.00    +0.010 C 
BRANCH   7   8
ATOM      8  C   UNK A   0     -34.770  21.054   1.620  0.00  0.00    +0.001 C 
BRANCH   8   9
ATOM      9  C   UNK A   0     -34.730  19.604   1.133  0.00  0.00    +0.001 C 
BRANCH   9  10
ATOM     10  C   UNK A   0     -33.384  18.948   1.455  0.00  0.00    +0.011 C 
BRANCH  10  11
ATOM     11  C   UNK A   0     -33.228  17.628   0.706  0.00  0.00    +0.053 C 
BRANCH  11  12
ATOM     12  S   UNK A   0     -31.568  17.499  -0.018  0.00  0.00    -0.168 S 
ATOM     13  H   UNK A   0     -31.058  16.264   0.232  0.00  0.00    +0.102 HD
ENDBRANCH  11  12
ENDBRANCH  10  11
ENDBRANCH   9  10
ENDBRANCH   8   9
ENDBRANCH   7   8
ENDBRANCH   6   7
ENDBRANCH   4   6
ENDBRANCH   1   3
BRANCH   1  15
ATOM     14  O   UNK A   1     -38.658  24.363   3.452  0.00  0.00    -0.248 OA
ATOM     15  C   UNK A   1     -37.826  25.176   3.830  0.00  0.00    +0.334 C 
BRANCH  15  16
ATOM     16  O   UNK A   1     -37.891  26.497   3.519  0.00  0.00    -0.479 OA
ATOM     17  H   UNK A   1     -37.131  26.940   3.192  0.00  0.00    +0.295 HD
ENDBRANCH  15  16
ENDBRANCH   1  15
BRANCH   1  18
ATOM     18  C   UNK A   1     -35.574  25.994   4.598  0.00  0.00    +0.155 C 
ATOM     19  C   UNK A   1     -34.583  25.951   5.756  0.00  0.00    +0.035 C 
BRANCH  18  20
ATOM     20  O   UNK A   1     -34.847  25.970   3.370  0.00  0.00    -0.274 OA
BRANCH  20  21
ATOM     21  P   UNK A   1     -34.482  27.381   2.673  0.00  0.00    +0.473 P 
ATOM     22  O   UNK A   1     -33.025  27.741   2.687  0.00  0.00    -0.227 OA
BRANCH  21  23
ATOM     23  O   UNK A   1     -35.133  27.225   1.200  0.00  0.00    -0.303 OA
ATOM     24  H   UNK A   1     -36.047  26.911   1.283  0.00  0.00    +0.222 HD
ENDBRANCH  21  23
BRANCH  21  25
ATOM     25  O   UNK A   1     -35.463  28.438   3.404  0.00  0.00    -0.303 OA
ATOM     26  H   UNK A   1     -35.036  29.308   3.435  0.00  0.00    +0.222 HD
ENDBRANCH  21  25
ENDBRANCH  20  21
ENDBRANCH  18  20
ENDBRANCH   1  18
TORSDOF 15
ENDMDL
MODEL 7
REMARK VINA RESULT:      -4.7      4.205      5.906
REMARK  Name = 5462265
REMARK  15 active torsions:
REMARK  status: ('A' for Active; 'I' for Inactive)
REMARK    1  A    between atoms: C_1  and  N_3
REMARK    2  A    between atoms: C_1  and  C_15
REMARK    3  A    between atoms: C_1  and  C_18
REMARK    4  A    between atoms: C_4  and  C_6
REMARK    5  A    between atoms: C_6  and  C_7
REMARK    6  A    between atoms: C_7  and  C_8
REMARK    7  A    between atoms: C_8  and  C_9
REMARK    8  A    between atoms: C_9  and  C_10
REMARK    9  A    between atoms: C_10  and  C_11
REMARK   10  A    between atoms: C_11  and  S_12
REMARK   11  A    between atoms: C_15  and  O_16
REMARK   12  A    between atoms: C_18  and  O_20
REMARK   13  A    between atoms: O_20  and  P_21
REMARK   14  A    between atoms: P_21  and  O_23
REMARK   15  A    between atoms: P_21  and  O_25
REMARK                            x       y       z     vdW  Elec       q    Type
REMARK                         _______ _______ _______ _____ _____    ______ ____
ROOT
ATOM      1  C   UNK A   1     -37.116  22.121   2.670  0.00  0.00    +0.199 C 
ENDROOT
BRANCH   1   3
ATOM      2  O   UNK A   0     -35.199  20.902   4.462  0.00  0.00    -0.275 OA
ATOM      3  N   UNK A   1     -36.534  22.705   3.857  0.00  0.00    -0.295 N 
ATOM      4  C   UNK A   0     -35.618  22.040   4.658  0.00  0.00    +0.223 C 
ATOM      5  H   UNK A   1     -36.801  23.619   4.108  0.00  0.00    +0.150 HD
BRANCH   4   6
ATOM      6  C   UNK A   0     -35.171  22.900   5.828  0.00  0.00    +0.085 C 
BRANCH   6   7
ATOM      7  C   UNK A   0     -35.575  24.364   5.663  0.00  0.00    +0.010 C 
BRANCH   7   8
ATOM      8  C   UNK A   0     -34.384  25.323   5.613  0.00  0.00    +0.001 C 
BRANCH   8   9
ATOM      9  C   UNK A   0     -34.407  26.258   4.401  0.00  0.00    +0.001 C 
BRANCH   9  10
ATOM     10  C   UNK A   0     -34.372  25.467   3.090  0.00  0.00    +0.011 C 
BRANCH  10  11
ATOM     11  C   UNK A   0     -34.451  26.403   1.887  0.00  0.00    +0.053 C 
BRANCH  11  12
ATOM     12  S   UNK A   0     -35.192  27.990   2.362  0.00  0.00    -0.168 S 
ATOM     13  H   UNK A   0     -34.990  28.900   1.373  0.00  0.00    +0.102 HD
ENDBRANCH  11  12
ENDBRANCH  10  11
ENDBRANCH   9  10
ENDBRANCH   8   9
ENDBRANCH   7   8
ENDBRANCH   6   7
ENDBRANCH   4   6
ENDBRANCH   1   3
BRANCH   1  15
ATOM     14  O   UNK A   1     -35.844  23.182   0.883  0.00  0.00    -0.248 OA
ATOM     15  C   UNK A   1     -36.070  22.198   1.574  0.00  0.00    +0.334 C 
BRANCH  15  16
ATOM     16  O   UNK A   1     -35.426  21.014   1.402  0.00  0.00    -0.479 OA
ATOM     17  H   UNK A   1     -35.391  20.618   0.553  0.00  0.00    +0.295 HD
ENDBRANCH  15  16
ENDBRANCH   1  15
BRANCH   1  18
ATOM     18  C   UNK A   1     -38.418  22.806   2.242  0.00  0.00    +0.155 C 
ATOM     19  C   UNK A   1     -39.578  21.829   2.095  0.00  0.00    +0.035 C 
BRANCH  18  20
ATOM     20  O   UNK A   1     -38.783  23.815   3.183  0.00  0.00    -0.274 OA
BRANCH  20  21
ATOM     21  P   UNK A   1     -38.824  25.349   2.680  0.00  0.00    +0.473 P 
ATOM     22  O   UNK A   1     -40.197  25.902   2.432  0.00  0.00    -0.227 OA
BRANCH  21  23
ATOM     23  O   UNK A   1     -37.972  26.117   3.820  0.00  0.00    -0.303 OA
ATOM     24  H   UNK A   1     -38.096  27.074   3.725  0.00  0.00    +0.222 HD
ENDBRANCH  21  23
BRANCH  21  25
ATOM     25  O   UNK A   1     -37.833  25.362   1.402  0.00  0.00    -0.303 OA
ATOM     26  H   UNK A   1     -37.039  24.843   1.604  0.00  0.00    +0.222 HD
ENDBRANCH  21  25
ENDBRANCH  20  21
ENDBRANCH  18  20
ENDBRANCH   1  18
TORSDOF 15
ENDMDL
MODEL 8
REMARK VINA RESULT:      -4.7      4.693      7.170
REMARK  Name = 5462265
REMARK  15 active torsions:
REMARK  status: ('A' for Active; 'I' for Inactive)
REMARK    1  A    between atoms: C_1  and  N_3
REMARK    2  A    between atoms: C_1  and  C_15
REMARK    3  A    between atoms: C_1  and  C_18
REMARK    4  A    between atoms: C_4  and  C_6
REMARK    5  A    between atoms: C_6  and  C_7
REMARK    6  A    between atoms: C_7  and  C_8
REMARK    7  A    between atoms: C_8  and  C_9
REMARK    8  A    between atoms: C_9  and  C_10
REMARK    9  A    between atoms: C_10  and  C_11
REMARK   10  A    between atoms: C_11  and  S_12
REMARK   11  A    between atoms: C_15  and  O_16
REMARK   12  A    between atoms: C_18  and  O_20
REMARK   13  A    between atoms: O_20  and  P_21
REMARK   14  A    between atoms: P_21  and  O_23
REMARK   15  A    between atoms: P_21  and  O_25
REMARK                            x       y       z     vdW  Elec       q    Type
REMARK                         _______ _______ _______ _____ _____    ______ ____
ROOT
ATOM      1  C   UNK A   1     -36.803  21.991   3.258  0.00  0.00    +0.199 C 
ENDROOT
BRANCH   1   3
ATOM      2  O   UNK A   0     -35.976  22.611   5.961  0.00  0.00    -0.275 OA
ATOM      3  N   UNK A   1     -35.816  22.963   3.669  0.00  0.00    -0.295 N 
ATOM      4  C   UNK A   0     -35.484  23.191   4.996  0.00  0.00    +0.223 C 
ATOM      5  H   UNK A   1     -35.356  23.486   2.974  0.00  0.00    +0.150 HD
BRANCH   4   6
ATOM      6  C   UNK A   0     -34.411  24.259   5.128  0.00  0.00    +0.085 C 
BRANCH   6   7
ATOM      7  C   UNK A   0     -34.971  25.589   5.628  0.00  0.00    +0.010 C 
BRANCH   7   8
ATOM      8  C   UNK A   0     -35.577  26.450   4.517  0.00  0.00    +0.001 C 
BRANCH   8   9
ATOM      9  C   UNK A   0     -34.708  26.519   3.259  0.00  0.00    +0.001 C 
BRANCH   9  10
ATOM     10  C   UNK A   0     -35.509  27.036   2.060  0.00  0.00    +0.011 C 
BRANCH  10  11
ATOM     11  C   UNK A   0     -34.827  28.248   1.431  0.00  0.00    +0.053 C 
BRANCH  11  12
ATOM     12  S   UNK A   0     -34.931  29.682   2.538  0.00  0.00    -0.168 S 
ATOM     13  H   UNK A   0     -36.226  30.081   2.644  0.00  0.00    +0.102 HD
ENDBRANCH  11  12
ENDBRANCH  10  11
ENDBRANCH   9  10
ENDBRANCH   8   9
ENDBRANCH   7   8
ENDBRANCH   6   7
ENDBRANCH   4   6
ENDBRANCH   1   3
BRANCH   1  15
ATOM     14  O   UNK A   1     -35.037  21.099   1.836  0.00  0.00    -0.248 OA
ATOM     15  C   UNK A   1     -36.078  20.927   2.455  0.00  0.00    +0.334 C 
BRANCH  15  16
ATOM     16  O   UNK A   1     -36.748  19.745   2.457  0.00  0.00    -0.479 OA
ATOM     17  H   UNK A   1     -37.405  19.580   3.105  0.00  0.00    +0.295 HD
ENDBRANCH  15  16
ENDBRANCH   1  15
BRANCH   1  18
ATOM     18  C   UNK A   1     -37.950  22.608   2.451  0.00  0.00    +0.155 C 
ATOM     19  C   UNK A   1     -37.806  24.116   2.279  0.00  0.00    +0.035 C 
BRANCH  18  20
ATOM     20  O   UNK A   1     -38.033  22.004   1.161  0.00  0.00    -0.274 OA
BRANCH  20  21
ATOM     21  P   UNK A   1     -39.440  21.347   0.716  0.00  0.00    +0.473 P 
ATOM     22  O   UNK A   1     -40.232  22.148  -0.276  0.00  0.00    -0.227 OA
BRANCH  21  23
ATOM     23  O   UNK A   1     -38.999  19.876   0.210  0.00  0.00    -0.303 OA
ATOM     24  H   UNK A   1     -38.069  19.895  -0.064  0.00  0.00    +0.222 HD
ENDBRANCH  21  23
BRANCH  21  25
ATOM     25  O   UNK A   1     -40.188  21.050   2.118  0.00  0.00    -0.303 OA
ATOM     26  H   UNK A   1     -41.006  21.569   2.165  0.00  0.00    +0.222 HD
ENDBRANCH  21  25
ENDBRANCH  20  21
ENDBRANCH  18  20
ENDBRANCH   1  18
TORSDOF 15
ENDMDL
MODEL 9
REMARK VINA RESULT:      -4.7      4.866      7.448
REMARK  Name = 5462265
REMARK  15 active torsions:
REMARK  status: ('A' for Active; 'I' for Inactive)
REMARK    1  A    between atoms: C_1  and  N_3
REMARK    2  A    between atoms: C_1  and  C_15
REMARK    3  A    between atoms: C_1  and  C_18
REMARK    4  A    between atoms: C_4  and  C_6
REMARK    5  A    between atoms: C_6  and  C_7
REMARK    6  A    between atoms: C_7  and  C_8
REMARK    7  A    between atoms: C_8  and  C_9
REMARK    8  A    between atoms: C_9  and  C_10
REMARK    9  A    between atoms: C_10  and  C_11
REMARK   10  A    between atoms: C_11  and  S_12
REMARK   11  A    between atoms: C_15  and  O_16
REMARK   12  A    between atoms: C_18  and  O_20
REMARK   13  A    between atoms: O_20  and  P_21
REMARK   14  A    between atoms: P_21  and  O_23
REMARK   15  A    between atoms: P_21  and  O_25
REMARK                            x       y       z     vdW  Elec       q    Type
REMARK                         _______ _______ _______ _____ _____    ______ ____
ROOT
ATOM      1  C   UNK A   1     -36.788  22.063   3.231  0.00  0.00    +0.199 C 
ENDROOT
BRANCH   1   3
ATOM      2  O   UNK A   0     -36.064  22.652   5.970  0.00  0.00    -0.275 OA
ATOM      3  N   UNK A   1     -35.811  23.024   3.690  0.00  0.00    -0.295 N 
ATOM      4  C   UNK A   0     -35.531  23.238   5.031  0.00  0.00    +0.223 C 
ATOM      5  H   UNK A   1     -35.322  23.551   3.018  0.00  0.00    +0.150 HD
BRANCH   4   6
ATOM      6  C   UNK A   0     -34.457  24.297   5.215  0.00  0.00    +0.085 C 
BRANCH   6   7
ATOM      7  C   UNK A   0     -34.352  25.235   4.014  0.00  0.00    +0.010 C 
BRANCH   7   8
ATOM      8  C   UNK A   0     -34.330  26.716   4.398  0.00  0.00    +0.001 C 
BRANCH   8   9
ATOM      9  C   UNK A   0     -32.924  27.249   4.683  0.00  0.00    +0.001 C 
BRANCH   9  10
ATOM     10  C   UNK A   0     -32.695  27.434   6.186  0.00  0.00    +0.011 C 
BRANCH  10  11
ATOM     11  C   UNK A   0     -31.621  28.486   6.449  0.00  0.00    +0.053 C 
BRANCH  11  12
ATOM     12  S   UNK A   0     -31.900  29.951   5.414  0.00  0.00    -0.168 S 
ATOM     13  H   UNK A   0     -33.232  30.218   5.356  0.00  0.00    +0.102 HD
ENDBRANCH  11  12
ENDBRANCH  10  11
ENDBRANCH   9  10
ENDBRANCH   8   9
ENDBRANCH   7   8
ENDBRANCH   6   7
ENDBRANCH   4   6
ENDBRANCH   1   3
BRANCH   1  15
ATOM     14  O   UNK A   1     -34.978  21.124   1.896  0.00  0.00    -0.248 OA
ATOM     15  C   UNK A   1     -36.031  20.970   2.499  0.00  0.00    +0.334 C 
BRANCH  15  16
ATOM     16  O   UNK A   1     -36.686  19.781   2.545  0.00  0.00    -0.479 OA
ATOM     17  H   UNK A   1     -37.560  19.714   2.211  0.00  0.00    +0.295 HD
ENDBRANCH  15  16
ENDBRANCH   1  15
BRANCH   1  18
ATOM     18  C   UNK A   1     -37.865  22.685   2.336  0.00  0.00    +0.155 C 
ATOM     19  C   UNK A   1     -37.534  24.113   1.919  0.00  0.00    +0.035 C 
BRANCH  18  20
ATOM     20  O   UNK A   1     -38.056  21.895   1.163  0.00  0.00    -0.274 OA
BRANCH  20  21
ATOM     21  P   UNK A   1     -39.553  21.405   0.808  0.00  0.00    +0.473 P 
ATOM     22  O   UNK A   1     -40.358  22.365  -0.018  0.00  0.00    -0.227 OA
BRANCH  21  23
ATOM     23  O   UNK A   1     -39.300  19.961   0.126  0.00  0.00    -0.303 OA
ATOM     24  H   UNK A   1     -39.968  19.806  -0.559  0.00  0.00    +0.222 HD
ENDBRANCH  21  23
BRANCH  21  25
ATOM     25  O   UNK A   1     -40.188  21.031   2.248  0.00  0.00    -0.303 OA
ATOM     26  H   UNK A   1     -39.727  21.526   2.943  0.00  0.00    +0.222 HD
ENDBRANCH  21  25
ENDBRANCH  20  21
ENDBRANCH  18  20
ENDBRANCH   1  18
TORSDOF 15
ENDMDL
