MODEL 1
REMARK VINA RESULT:      -6.7      0.000      0.000
REMARK  Name = 60196289
REMARK  6 active torsions:
REMARK  status: ('A' for Active; 'I' for Inactive)
REMARK    1  A    between atoms: C_16  and  O_20
REMARK    2  A    between atoms: O_20  and  C_22
REMARK    3  A    between atoms: C_22  and  C_23
REMARK    4  A    between atoms: C_23  and  C_24
REMARK    5  A    between atoms: C_24  and  C_26
REMARK    6  A    between atoms: C_26  and  O_27
REMARK                            x       y       z     vdW  Elec       q    Type
REMARK                         _______ _______ _______ _____ _____    ______ ____
ROOT
ATOM      1  O   UNL     1     -36.820  24.954   4.731  0.00  0.00    -0.218 OA
ATOM      2  O   UNL     1     -35.470  22.675   3.538  0.00  0.00    -0.306 OA
ATOM      3  O   UNL     1     -37.773  22.607   3.203  0.00  0.00    -0.293 OA
ATOM      4  O   UNL     1     -36.511  23.692   5.398  0.00  0.00    -0.197 OA
ATOM      5  C   UNL     1     -36.660  24.812   3.294  0.00  0.00    +0.178 C 
ATOM      6  C   UNL     1     -35.374  25.639   2.969  0.00  0.00    +0.033 C 
ATOM      7  C   UNL     1     -37.926  25.466   2.671  0.00  0.00    +0.039 C 
ATOM      8  C   UNL     1     -35.238  25.973   1.461  0.00  0.00    +0.003 C 
ATOM      9  C   UNL     1     -36.571  23.320   2.884  0.00  0.00    +0.268 C 
ATOM     10  C   UNL     1     -37.741  25.791   1.182  0.00  0.00    +0.003 C 
ATOM     11  C   UNL     1     -39.173  24.588   2.969  0.00  0.00    +0.073 C 
ATOM     12  C   UNL     1     -34.071  25.003   3.509  0.00  0.00    +0.008 C 
ATOM     13  C   UNL     1     -36.509  26.653   0.943  0.00  0.00    +0.000 C 
ATOM     14  C   UNL     1     -35.283  23.193   4.858  0.00  0.00    +0.221 C 
ATOM     15  C   UNL     1     -34.184  24.271   4.849  0.00  0.00    +0.059 C 
ATOM     16  C   UNL     1     -38.954  23.115   2.592  0.00  0.00    +0.292 C 
ATOM     17  C   UNL     1     -34.036  26.875   1.158  0.00  0.00    +0.000 C 
ATOM     18  C   UNL     1     -40.462  25.145   2.360  0.00  0.00    +0.007 C 
ATOM     19  C   UNL     1     -34.871  22.025   5.751  0.00  0.00    +0.064 C 
ENDROOT
BRANCH  16  20
ATOM     20  O   UNL     1     -38.956  22.920   1.184  0.00  0.00    -0.424 OA
BRANCH  20  22
ATOM     21  O   UNL     1     -40.250  21.017   1.031  0.00  0.00    -0.250 OA
ATOM     22  C   UNL     1     -39.240  21.649   0.757  0.00  0.00    +0.319 C 
BRANCH  22  23
ATOM     23  C   UNL     1     -38.101  21.150  -0.107  0.00  0.00    +0.121 C 
BRANCH  23  24
ATOM     24  C   UNL     1     -37.538  19.812   0.357  0.00  0.00    +0.121 C 
BRANCH  24  26
ATOM     25  O   UNL     1     -35.259  20.291   0.996  0.00  0.00    -0.250 OA
ATOM     26  C   UNL     1     -36.401  20.003   1.329  0.00  0.00    +0.314 C 
BRANCH  26  27
ATOM     27  O   UNL     1     -36.784  19.842   2.620  0.00  0.00    -0.480 OA
ATOM     28  H   UNL     1     -37.353  19.137   2.855  0.00  0.00    +0.295 HD
ENDBRANCH  26  27
ENDBRANCH  24  26
ENDBRANCH  23  24
ENDBRANCH  22  23
ENDBRANCH  20  22
ENDBRANCH  16  20
TORSDOF 6
ENDMDL
MODEL 2
REMARK VINA RESULT:      -6.0      2.174      6.054
REMARK  Name = 60196289
REMARK  6 active torsions:
REMARK  status: ('A' for Active; 'I' for Inactive)
REMARK    1  A    between atoms: C_16  and  O_20
REMARK    2  A    between atoms: O_20  and  C_22
REMARK    3  A    between atoms: C_22  and  C_23
REMARK    4  A    between atoms: C_23  and  C_24
REMARK    5  A    between atoms: C_24  and  C_26
REMARK    6  A    between atoms: C_26  and  O_27
REMARK                            x       y       z     vdW  Elec       q    Type
REMARK                         _______ _______ _______ _____ _____    ______ ____
ROOT
ATOM      1  O   UNL     1     -38.776  23.227   3.380  0.00  0.00    -0.218 OA
ATOM      2  O   UNL     1     -38.192  25.714   1.997  0.00  0.00    -0.306 OA
ATOM      3  O   UNL     1     -37.002  25.515   3.988  0.00  0.00    -0.293 OA
ATOM      4  O   UNL     1     -39.511  24.481   3.519  0.00  0.00    -0.197 OA
ATOM      5  C   UNL     1     -37.509  23.462   2.708  0.00  0.00    +0.178 C 
ATOM      6  C   UNL     1     -37.701  22.818   1.297  0.00  0.00    +0.033 C 
ATOM      7  C   UNL     1     -36.449  22.690   3.544  0.00  0.00    +0.039 C 
ATOM      8  C   UNL     1     -36.358  22.582   0.556  0.00  0.00    +0.003 C 
ATOM      9  C   UNL     1     -37.166  24.973   2.671  0.00  0.00    +0.268 C 
ATOM     10  C   UNL     1     -35.144  22.468   2.766  0.00  0.00    +0.003 C 
ATOM     11  C   UNL     1     -36.248  23.391   4.916  0.00  0.00    +0.073 C 
ATOM     12  C   UNL     1     -38.698  23.581   0.393  0.00  0.00    +0.008 C 
ATOM     13  C   UNL     1     -35.394  21.778   1.433  0.00  0.00    +0.000 C 
ATOM     14  C   UNL     1     -39.482  25.155   2.257  0.00  0.00    +0.221 C 
ATOM     15  C   UNL     1     -39.893  24.223   1.102  0.00  0.00    +0.059 C 
ATOM     16  C   UNL     1     -35.985  24.897   4.769  0.00  0.00    +0.292 C 
ATOM     17  C   UNL     1     -36.538  21.852  -0.780  0.00  0.00    +0.000 C 
ATOM     18  C   UNL     1     -35.192  22.712   5.791  0.00  0.00    +0.007 C 
ATOM     19  C   UNL     1     -40.465  26.318   2.374  0.00  0.00    +0.064 C 
ENDROOT
BRANCH  16  20
ATOM     20  O   UNL     1     -34.683  25.163   4.264  0.00  0.00    -0.424 OA
BRANCH  20  22
ATOM     21  O   UNL     1     -34.084  26.568   5.993  0.00  0.00    -0.250 OA
ATOM     22  C   UNL     1     -34.035  26.238   4.816  0.00  0.00    +0.319 C 
BRANCH  22  23
ATOM     23  C   UNL     1     -33.252  26.953   3.736  0.00  0.00    +0.121 C 
BRANCH  23  24
ATOM     24  C   UNL     1     -34.090  27.277   2.505  0.00  0.00    +0.121 C 
BRANCH  24  26
ATOM     25  O   UNL     1     -34.799  29.421   3.364  0.00  0.00    -0.250 OA
ATOM     26  C   UNL     1     -35.082  28.377   2.791  0.00  0.00    +0.314 C 
BRANCH  26  27
ATOM     27  O   UNL     1     -36.324  28.095   2.326  0.00  0.00    -0.480 OA
ATOM     28  H   UNL     1     -36.626  27.208   2.303  0.00  0.00    +0.295 HD
ENDBRANCH  26  27
ENDBRANCH  24  26
ENDBRANCH  23  24
ENDBRANCH  22  23
ENDBRANCH  20  22
ENDBRANCH  16  20
TORSDOF 6
ENDMDL
MODEL 3
REMARK VINA RESULT:      -5.9      2.008      5.230
REMARK  Name = 60196289
REMARK  6 active torsions:
REMARK  status: ('A' for Active; 'I' for Inactive)
REMARK    1  A    between atoms: C_16  and  O_20
REMARK    2  A    between atoms: O_20  and  C_22
REMARK    3  A    between atoms: C_22  and  C_23
REMARK    4  A    between atoms: C_23  and  C_24
REMARK    5  A    between atoms: C_24  and  C_26
REMARK    6  A    between atoms: C_26  and  O_27
REMARK                            x       y       z     vdW  Elec       q    Type
REMARK                         _______ _______ _______ _____ _____    ______ ____
ROOT
ATOM      1  O   UNL     1     -38.159  24.056   0.788  0.00  0.00    -0.218 OA
ATOM      2  O   UNL     1     -38.294  25.660   3.206  0.00  0.00    -0.306 OA
ATOM      3  O   UNL     1     -37.529  23.502   3.624  0.00  0.00    -0.293 OA
ATOM      4  O   UNL     1     -39.323  24.205   1.657  0.00  0.00    -0.197 OA
ATOM      5  C   UNL     1     -36.969  24.550   1.458  0.00  0.00    +0.178 C 
ATOM      6  C   UNL     1     -36.625  25.873   0.699  0.00  0.00    +0.033 C 
ATOM      7  C   UNL     1     -35.882  23.463   1.223  0.00  0.00    +0.039 C 
ATOM      8  C   UNL     1     -35.175  26.358   0.961  0.00  0.00    +0.003 C 
ATOM      9  C   UNL     1     -37.218  24.741   2.975  0.00  0.00    +0.268 C 
ATOM     10  C   UNL     1     -34.463  23.993   1.483  0.00  0.00    +0.003 C 
ATOM     11  C   UNL     1     -36.230  22.186   2.036  0.00  0.00    +0.073 C 
ATOM     12  C   UNL     1     -37.639  27.015   0.945  0.00  0.00    +0.008 C 
ATOM     13  C   UNL     1     -34.171  25.241   0.663  0.00  0.00    +0.000 C 
ATOM     14  C   UNL     1     -39.304  25.528   2.202  0.00  0.00    +0.221 C 
ATOM     15  C   UNL     1     -39.101  26.593   1.109  0.00  0.00    +0.059 C 
ATOM     16  C   UNL     1     -36.528  22.496   3.511  0.00  0.00    +0.292 C 
ATOM     17  C   UNL     1     -34.803  27.594   0.133  0.00  0.00    +0.000 C 
ATOM     18  C   UNL     1     -35.190  21.074   1.888  0.00  0.00    +0.007 C 
ATOM     19  C   UNL     1     -40.654  25.724   2.888  0.00  0.00    +0.064 C 
ENDROOT
BRANCH  16  20
ATOM     20  O   UNL     1     -35.350  22.826   4.234  0.00  0.00    -0.424 OA
BRANCH  20  22
ATOM     21  O   UNL     1     -35.912  22.153   6.368  0.00  0.00    -0.250 OA
ATOM     22  C   UNL     1     -35.507  23.001   5.585  0.00  0.00    +0.319 C 
BRANCH  22  23
ATOM     23  C   UNL     1     -35.101  24.412   5.952  0.00  0.00    +0.121 C 
BRANCH  23  24
ATOM     24  C   UNL     1     -34.158  25.047   4.937  0.00  0.00    +0.121 C 
BRANCH  24  26
ATOM     25  O   UNL     1     -33.279  27.284   5.183  0.00  0.00    -0.250 OA
ATOM     26  C   UNL     1     -34.239  26.553   4.981  0.00  0.00    +0.314 C 
BRANCH  26  27
ATOM     27  O   UNL     1     -35.494  27.015   4.751  0.00  0.00    -0.480 OA
ATOM     28  H   UNL     1     -36.182  26.416   4.536  0.00  0.00    +0.295 HD
ENDBRANCH  26  27
ENDBRANCH  24  26
ENDBRANCH  23  24
ENDBRANCH  22  23
ENDBRANCH  20  22
ENDBRANCH  16  20
TORSDOF 6
ENDMDL
MODEL 4
REMARK VINA RESULT:      -5.8      2.119      4.668
REMARK  Name = 60196289
REMARK  6 active torsions:
REMARK  status: ('A' for Active; 'I' for Inactive)
REMARK    1  A    between atoms: C_16  and  O_20
REMARK    2  A    between atoms: O_20  and  C_22
REMARK    3  A    between atoms: C_22  and  C_23
REMARK    4  A    between atoms: C_23  and  C_24
REMARK    5  A    between atoms: C_24  and  C_26
REMARK    6  A    between atoms: C_26  and  O_27
REMARK                            x       y       z     vdW  Elec       q    Type
REMARK                         _______ _______ _______ _____ _____    ______ ____
ROOT
ATOM      1  O   UNL     1     -33.978  24.694   2.304  0.00  0.00    -0.218 OA
ATOM      2  O   UNL     1     -36.441  25.935   3.219  0.00  0.00    -0.306 OA
ATOM      3  O   UNL     1     -36.716  24.825   1.191  0.00  0.00    -0.293 OA
ATOM      4  O   UNL     1     -34.404  26.064   2.031  0.00  0.00    -0.197 OA
ATOM      5  C   UNL     1     -35.093  23.917   2.819  0.00  0.00    +0.178 C 
ATOM      6  C   UNL     1     -34.741  23.698   4.326  0.00  0.00    +0.033 C 
ATOM      7  C   UNL     1     -35.064  22.579   2.028  0.00  0.00    +0.039 C 
ATOM      8  C   UNL     1     -35.569  22.558   4.977  0.00  0.00    +0.003 C 
ATOM      9  C   UNL     1     -36.440  24.648   2.586  0.00  0.00    +0.268 C 
ATOM     10  C   UNL     1     -35.884  21.478   2.717  0.00  0.00    +0.003 C 
ATOM     11  C   UNL     1     -35.471  22.830   0.551  0.00  0.00    +0.073 C 
ATOM     12  C   UNL     1     -34.817  24.986   5.179  0.00  0.00    +0.008 C 
ATOM     13  C   UNL     1     -35.447  21.269   4.160  0.00  0.00    +0.000 C 
ATOM     14  C   UNL     1     -35.143  26.533   3.163  0.00  0.00    +0.221 C 
ATOM     15  C   UNL     1     -34.390  26.280   4.481  0.00  0.00    +0.059 C 
ATOM     16  C   UNL     1     -36.782  23.622   0.433  0.00  0.00    +0.292 C 
ATOM     17  C   UNL     1     -35.148  22.270   6.423  0.00  0.00    +0.000 C 
ATOM     18  C   UNL     1     -35.501  21.553  -0.293  0.00  0.00    +0.007 C 
ATOM     19  C   UNL     1     -35.344  28.032   2.947  0.00  0.00    +0.064 C 
ENDROOT
BRANCH  16  20
ATOM     20  O   UNL     1     -37.914  22.832   0.776  0.00  0.00    -0.424 OA
BRANCH  20  22
ATOM     21  O   UNL     1     -39.483  23.681  -0.685  0.00  0.00    -0.250 OA
ATOM     22  C   UNL     1     -39.134  23.360   0.441  0.00  0.00    +0.319 C 
BRANCH  22  23
ATOM     23  C   UNL     1     -39.981  23.482   1.690  0.00  0.00    +0.121 C 
BRANCH  23  24
ATOM     24  C   UNL     1     -40.692  24.825   1.802  0.00  0.00    +0.121 C 
BRANCH  24  26
ATOM     25  O   UNL     1     -40.485  26.775   3.213  0.00  0.00    -0.250 OA
ATOM     26  C   UNL     1     -40.216  25.599   3.006  0.00  0.00    +0.314 C 
BRANCH  26  27
ATOM     27  O   UNL     1     -39.471  24.844   3.851  0.00  0.00    -0.480 OA
ATOM     28  H   UNL     1     -38.587  24.625   3.628  0.00  0.00    +0.295 HD
ENDBRANCH  26  27
ENDBRANCH  24  26
ENDBRANCH  23  24
ENDBRANCH  22  23
ENDBRANCH  20  22
ENDBRANCH  16  20
TORSDOF 6
ENDMDL
MODEL 5
REMARK VINA RESULT:      -5.8      2.650      6.448
REMARK  Name = 60196289
REMARK  6 active torsions:
REMARK  status: ('A' for Active; 'I' for Inactive)
REMARK    1  A    between atoms: C_16  and  O_20
REMARK    2  A    between atoms: O_20  and  C_22
REMARK    3  A    between atoms: C_22  and  C_23
REMARK    4  A    between atoms: C_23  and  C_24
REMARK    5  A    between atoms: C_24  and  C_26
REMARK    6  A    between atoms: C_26  and  O_27
REMARK                            x       y       z     vdW  Elec       q    Type
REMARK                         _______ _______ _______ _____ _____    ______ ____
ROOT
ATOM      1  O   UNL     1     -38.488  23.040   3.356  0.00  0.00    -0.218 OA
ATOM      2  O   UNL     1     -37.442  25.247   1.784  0.00  0.00    -0.306 OA
ATOM      3  O   UNL     1     -36.430  25.100   3.875  0.00  0.00    -0.293 OA
ATOM      4  O   UNL     1     -39.031  24.394   3.309  0.00  0.00    -0.197 OA
ATOM      5  C   UNL     1     -37.159  23.013   2.770  0.00  0.00    +0.178 C 
ATOM      6  C   UNL     1     -37.353  22.251   1.419  0.00  0.00    +0.033 C 
ATOM      7  C   UNL     1     -36.286  22.193   3.762  0.00  0.00    +0.039 C 
ATOM      8  C   UNL     1     -36.017  21.742   0.817  0.00  0.00    +0.003 C 
ATOM      9  C   UNL     1     -36.588  24.445   2.610  0.00  0.00    +0.268 C 
ATOM     10  C   UNL     1     -34.982  21.700   3.119  0.00  0.00    +0.003 C 
ATOM     11  C   UNL     1     -36.071  23.005   5.069  0.00  0.00    +0.073 C 
ATOM     12  C   UNL     1     -38.161  23.045   0.365  0.00  0.00    +0.008 C 
ATOM     13  C   UNL     1     -35.246  20.910   1.846  0.00  0.00    +0.000 C 
ATOM     14  C   UNL     1     -38.817  24.913   1.992  0.00  0.00    +0.221 C 
ATOM     15  C   UNL     1     -39.289  23.928   0.907  0.00  0.00    +0.059 C 
ATOM     16  C   UNL     1     -35.572  24.432   4.794  0.00  0.00    +0.292 C 
ATOM     17  C   UNL     1     -36.217  20.903  -0.450  0.00  0.00    +0.000 C 
ATOM     18  C   UNL     1     -35.191  22.282   6.091  0.00  0.00    +0.007 C 
ATOM     19  C   UNL     1     -39.617  26.211   1.912  0.00  0.00    +0.064 C 
ENDROOT
BRANCH  16  20
ATOM     20  O   UNL     1     -34.214  24.449   4.373  0.00  0.00    -0.424 OA
BRANCH  20  22
ATOM     21  O   UNL     1     -32.786  26.047   3.519  0.00  0.00    -0.250 OA
ATOM     22  C   UNL     1     -33.614  25.681   4.342  0.00  0.00    +0.319 C 
BRANCH  22  23
ATOM     23  C   UNL     1     -34.137  26.517   5.491  0.00  0.00    +0.121 C 
BRANCH  23  24
ATOM     24  C   UNL     1     -33.126  26.680   6.621  0.00  0.00    +0.121 C 
BRANCH  24  26
ATOM     25  O   UNL     1     -32.454  28.833   5.755  0.00  0.00    -0.250 OA
ATOM     26  C   UNL     1     -32.152  27.794   6.326  0.00  0.00    +0.314 C 
BRANCH  26  27
ATOM     27  O   UNL     1     -30.903  27.529   6.783  0.00  0.00    -0.480 OA
ATOM     28  H   UNL     1     -30.649  26.647   6.970  0.00  0.00    +0.295 HD
ENDBRANCH  26  27
ENDBRANCH  24  26
ENDBRANCH  23  24
ENDBRANCH  22  23
ENDBRANCH  20  22
ENDBRANCH  16  20
TORSDOF 6
ENDMDL
MODEL 6
REMARK VINA RESULT:      -5.8      1.888      2.588
REMARK  Name = 60196289
REMARK  6 active torsions:
REMARK  status: ('A' for Active; 'I' for Inactive)
REMARK    1  A    between atoms: C_16  and  O_20
REMARK    2  A    between atoms: O_20  and  C_22
REMARK    3  A    between atoms: C_22  and  C_23
REMARK    4  A    between atoms: C_23  and  C_24
REMARK    5  A    between atoms: C_24  and  C_26
REMARK    6  A    between atoms: C_26  and  O_27
REMARK                            x       y       z     vdW  Elec       q    Type
REMARK                         _______ _______ _______ _____ _____    ______ ____
ROOT
ATOM      1  O   UNL     1     -36.933  24.219   3.839  0.00  0.00    -0.218 OA
ATOM      2  O   UNL     1     -34.792  22.274   4.107  0.00  0.00    -0.306 OA
ATOM      3  O   UNL     1     -36.489  21.525   2.701  0.00  0.00    -0.293 OA
ATOM      4  O   UNL     1     -36.832  23.188   4.869  0.00  0.00    -0.197 OA
ATOM      5  C   UNL     1     -35.995  23.945   2.764  0.00  0.00    +0.178 C 
ATOM      6  C   UNL     1     -34.900  25.049   2.924  0.00  0.00    +0.033 C 
ATOM      7  C   UNL     1     -36.805  24.136   1.450  0.00  0.00    +0.039 C 
ATOM      8  C   UNL     1     -34.023  25.214   1.655  0.00  0.00    +0.003 C 
ATOM      9  C   UNL     1     -35.448  22.498   2.852  0.00  0.00    +0.268 C 
ATOM     10  C   UNL     1     -35.895  24.308   0.225  0.00  0.00    +0.003 C 
ATOM     11  C   UNL     1     -37.844  22.990   1.301  0.00  0.00    +0.073 C 
ATOM     12  C   UNL     1     -34.018  24.876   4.182  0.00  0.00    +0.008 C 
ATOM     13  C   UNL     1     -34.898  25.441   0.420  0.00  0.00    +0.000 C 
ATOM     14  C   UNL     1     -35.445  22.987   5.161  0.00  0.00    +0.221 C 
ATOM     15  C   UNL     1     -34.718  24.318   5.424  0.00  0.00    +0.059 C 
ATOM     16  C   UNL     1     -37.211  21.601   1.476  0.00  0.00    +0.292 C 
ATOM     17  C   UNL     1     -33.021  26.369   1.771  0.00  0.00    +0.000 C 
ATOM     18  C   UNL     1     -38.664  23.083   0.013  0.00  0.00    +0.007 C 
ATOM     19  C   UNL     1     -35.398  22.103   6.405  0.00  0.00    +0.064 C 
ENDROOT
BRANCH  16  20
ATOM     20  O   UNL     1     -36.412  21.236   0.358  0.00  0.00    -0.424 OA
BRANCH  20  22
ATOM     21  O   UNL     1     -36.636  18.941   0.421  0.00  0.00    -0.250 OA
ATOM     22  C   UNL     1     -35.945  19.947   0.353  0.00  0.00    +0.319 C 
BRANCH  22  23
ATOM     23  C   UNL     1     -34.434  19.969   0.251  0.00  0.00    +0.121 C 
BRANCH  23  24
ATOM     24  C   UNL     1     -33.743  19.424   1.496  0.00  0.00    +0.121 C 
BRANCH  24  26
ATOM     25  O   UNL     1     -31.983  17.771   1.549  0.00  0.00    -0.250 OA
ATOM     26  C   UNL     1     -33.125  18.073   1.232  0.00  0.00    +0.314 C 
BRANCH  26  27
ATOM     27  O   UNL     1     -33.981  17.218   0.620  0.00  0.00    -0.480 OA
ATOM     28  H   UNL     1     -34.896  17.250   0.816  0.00  0.00    +0.295 HD
ENDBRANCH  26  27
ENDBRANCH  24  26
ENDBRANCH  23  24
ENDBRANCH  22  23
ENDBRANCH  20  22
ENDBRANCH  16  20
TORSDOF 6
ENDMDL
MODEL 7
REMARK VINA RESULT:      -5.7      2.064      4.783
REMARK  Name = 60196289
REMARK  6 active torsions:
REMARK  status: ('A' for Active; 'I' for Inactive)
REMARK    1  A    between atoms: C_16  and  O_20
REMARK    2  A    between atoms: O_20  and  C_22
REMARK    3  A    between atoms: C_22  and  C_23
REMARK    4  A    between atoms: C_23  and  C_24
REMARK    5  A    between atoms: C_24  and  C_26
REMARK    6  A    between atoms: C_26  and  O_27
REMARK                            x       y       z     vdW  Elec       q    Type
REMARK                         _______ _______ _______ _____ _____    ______ ____
ROOT
ATOM      1  O   UNL     1     -34.137  24.344   1.311  0.00  0.00    -0.218 OA
ATOM      2  O   UNL     1     -36.322  26.253   1.448  0.00  0.00    -0.306 OA
ATOM      3  O   UNL     1     -37.075  24.081   1.084  0.00  0.00    -0.293 OA
ATOM      4  O   UNL     1     -34.681  25.110   0.193  0.00  0.00    -0.197 OA
ATOM      5  C   UNL     1     -35.040  24.409   2.447  0.00  0.00    +0.178 C 
ATOM      6  C   UNL     1     -34.292  25.317   3.477  0.00  0.00    +0.033 C 
ATOM      7  C   UNL     1     -35.161  22.947   2.963  0.00  0.00    +0.039 C 
ATOM      8  C   UNL     1     -34.866  25.196   4.913  0.00  0.00    +0.003 C 
ATOM      9  C   UNL     1     -36.432  24.946   2.028  0.00  0.00    +0.268 C 
ATOM     10  C   UNL     1     -35.720  22.878   4.392  0.00  0.00    +0.003 C 
ATOM     11  C   UNL     1     -35.956  22.091   1.939  0.00  0.00    +0.073 C 
ATOM     12  C   UNL     1     -34.197  26.799   3.048  0.00  0.00    +0.008 C 
ATOM     13  C   UNL     1     -34.907  23.730   5.356  0.00  0.00    +0.000 C 
ATOM     14  C   UNL     1     -35.114  26.379   0.693  0.00  0.00    +0.221 C 
ATOM     15  C   UNL     1     -34.028  27.056   1.548  0.00  0.00    +0.059 C 
ATOM     16  C   UNL     1     -37.286  22.748   1.537  0.00  0.00    +0.292 C 
ATOM     17  C   UNL     1     -34.065  26.002   5.943  0.00  0.00    +0.000 C 
ATOM     18  C   UNL     1     -36.151  20.641   2.387  0.00  0.00    +0.007 C 
ATOM     19  C   UNL     1     -35.431  27.232  -0.533  0.00  0.00    +0.064 C 
ENDROOT
BRANCH  16  20
ATOM     20  O   UNL     1     -38.249  22.681   2.580  0.00  0.00    -0.424 OA
BRANCH  20  22
ATOM     21  O   UNL     1     -40.085  21.423   1.974  0.00  0.00    -0.250 OA
ATOM     22  C   UNL     1     -39.549  22.502   2.182  0.00  0.00    +0.319 C 
BRANCH  22  23
ATOM     23  C   UNL     1     -40.214  23.855   2.039  0.00  0.00    +0.121 C 
BRANCH  23  24
ATOM     24  C   UNL     1     -40.006  24.755   3.252  0.00  0.00    +0.121 C 
BRANCH  24  26
ATOM     25  O   UNL     1     -40.181  26.696   1.825  0.00  0.00    -0.250 OA
ATOM     26  C   UNL     1     -40.333  26.192   2.929  0.00  0.00    +0.314 C 
BRANCH  26  27
ATOM     27  O   UNL     1     -40.836  26.865   3.994  0.00  0.00    -0.480 OA
ATOM     28  H   UNL     1     -41.316  26.406   4.654  0.00  0.00    +0.295 HD
ENDBRANCH  26  27
ENDBRANCH  24  26
ENDBRANCH  23  24
ENDBRANCH  22  23
ENDBRANCH  20  22
ENDBRANCH  16  20
TORSDOF 6
ENDMDL
MODEL 8
REMARK VINA RESULT:      -5.7      3.493      5.605
REMARK  Name = 60196289
REMARK  6 active torsions:
REMARK  status: ('A' for Active; 'I' for Inactive)
REMARK    1  A    between atoms: C_16  and  O_20
REMARK    2  A    between atoms: O_20  and  C_22
REMARK    3  A    between atoms: C_22  and  C_23
REMARK    4  A    between atoms: C_23  and  C_24
REMARK    5  A    between atoms: C_24  and  C_26
REMARK    6  A    between atoms: C_26  and  O_27
REMARK                            x       y       z     vdW  Elec       q    Type
REMARK                         _______ _______ _______ _____ _____    ______ ____
ROOT
ATOM      1  O   UNL     1     -32.866  29.545   3.360  0.00  0.00    -0.218 OA
ATOM      2  O   UNL     1     -31.947  27.692   5.399  0.00  0.00    -0.306 OA
ATOM      3  O   UNL     1     -34.189  27.367   4.862  0.00  0.00    -0.293 OA
ATOM      4  O   UNL     1     -32.867  29.783   4.801  0.00  0.00    -0.197 OA
ATOM      5  C   UNL     1     -32.652  28.135   3.085  0.00  0.00    +0.178 C 
ATOM      6  C   UNL     1     -31.205  28.077   2.497  0.00  0.00    +0.033 C 
ATOM      7  C   UNL     1     -33.715  27.756   2.016  0.00  0.00    +0.039 C 
ATOM      8  C   UNL     1     -30.911  26.747   1.754  0.00  0.00    +0.003 C 
ATOM      9  C   UNL     1     -32.849  27.279   4.362  0.00  0.00    +0.268 C 
ATOM     10  C   UNL     1     -33.375  26.442   1.297  0.00  0.00    +0.003 C 
ATOM     11  C   UNL     1     -35.132  27.773   2.652  0.00  0.00    +0.073 C 
ATOM     12  C   UNL     1     -30.097  28.382   3.533  0.00  0.00    +0.008 C 
ATOM     13  C   UNL     1     -31.980  26.476   0.691  0.00  0.00    +0.000 C 
ATOM     14  C   UNL     1     -31.738  29.106   5.363  0.00  0.00    +0.221 C 
ATOM     15  C   UNL     1     -30.441  29.427   4.597  0.00  0.00    +0.059 C 
ATOM     16  C   UNL     1     -35.199  26.953   3.949  0.00  0.00    +0.292 C 
ATOM     17  C   UNL     1     -29.532  26.733   1.084  0.00  0.00    +0.000 C 
ATOM     18  C   UNL     1     -36.238  27.377   1.671  0.00  0.00    +0.007 C 
ATOM     19  C   UNL     1     -31.632  29.586   6.808  0.00  0.00    +0.064 C 
ENDROOT
BRANCH  16  20
ATOM     20  O   UNL     1     -35.156  25.554   3.698  0.00  0.00    -0.424 OA
BRANCH  20  22
ATOM     21  O   UNL     1     -37.089  24.726   4.643  0.00  0.00    -0.250 OA
ATOM     22  C   UNL     1     -35.870  24.769   4.565  0.00  0.00    +0.319 C 
BRANCH  22  23
ATOM     23  C   UNL     1     -34.908  23.964   5.413  0.00  0.00    +0.121 C 
BRANCH  23  24
ATOM     24  C   UNL     1     -35.513  22.668   5.940  0.00  0.00    +0.121 C 
BRANCH  24  26
ATOM     25  O   UNL     1     -34.867  20.595   4.881  0.00  0.00    -0.250 OA
ATOM     26  C   UNL     1     -35.554  21.608   4.868  0.00  0.00    +0.314 C 
BRANCH  26  27
ATOM     27  O   UNL     1     -36.454  21.887   3.891  0.00  0.00    -0.480 OA
ATOM     28  H   UNL     1     -37.290  21.466   3.890  0.00  0.00    +0.295 HD
ENDBRANCH  26  27
ENDBRANCH  24  26
ENDBRANCH  23  24
ENDBRANCH  22  23
ENDBRANCH  20  22
ENDBRANCH  16  20
TORSDOF 6
ENDMDL
MODEL 9
REMARK VINA RESULT:      -5.6      2.001      3.563
REMARK  Name = 60196289
REMARK  6 active torsions:
REMARK  status: ('A' for Active; 'I' for Inactive)
REMARK    1  A    between atoms: C_16  and  O_20
REMARK    2  A    between atoms: O_20  and  C_22
REMARK    3  A    between atoms: C_22  and  C_23
REMARK    4  A    between atoms: C_23  and  C_24
REMARK    5  A    between atoms: C_24  and  C_26
REMARK    6  A    between atoms: C_26  and  O_27
REMARK                            x       y       z     vdW  Elec       q    Type
REMARK                         _______ _______ _______ _____ _____    ______ ____
ROOT
ATOM      1  O   UNL     1     -35.177  27.601   2.997  0.00  0.00    -0.218 OA
ATOM      2  O   UNL     1     -33.170  25.807   4.090  0.00  0.00    -0.306 OA
ATOM      3  O   UNL     1     -35.329  25.195   4.710  0.00  0.00    -0.293 OA
ATOM      4  O   UNL     1     -34.469  27.772   4.262  0.00  0.00    -0.197 OA
ATOM      5  C   UNL     1     -34.993  26.248   2.500  0.00  0.00    +0.178 C 
ATOM      6  C   UNL     1     -34.048  26.419   1.267  0.00  0.00    +0.033 C 
ATOM      7  C   UNL     1     -36.409  25.771   2.068  0.00  0.00    +0.039 C 
ATOM      8  C   UNL     1     -34.043  25.178   0.336  0.00  0.00    +0.003 C 
ATOM      9  C   UNL     1     -34.428  25.318   3.603  0.00  0.00    +0.268 C 
ATOM     10  C   UNL     1     -36.353  24.550   1.138  0.00  0.00    +0.003 C 
ATOM     11  C   UNL     1     -37.300  25.560   3.323  0.00  0.00    +0.073 C 
ATOM     12  C   UNL     1     -32.605  26.831   1.639  0.00  0.00    +0.008 C 
ATOM     13  C   UNL     1     -35.471  24.807  -0.075  0.00  0.00    +0.000 C 
ATOM     14  C   UNL     1     -33.150  27.237   4.109  0.00  0.00    +0.221 C 
ATOM     15  C   UNL     1     -32.461  27.770   2.840  0.00  0.00    +0.059 C 
ATOM     16  C   UNL     1     -36.617  24.683   4.383  0.00  0.00    +0.292 C 
ATOM     17  C   UNL     1     -33.201  25.387  -0.929  0.00  0.00    +0.000 C 
ATOM     18  C   UNL     1     -38.705  25.056   2.988  0.00  0.00    +0.007 C 
ATOM     19  C   UNL     1     -32.372  27.663   5.353  0.00  0.00    +0.064 C 
ENDROOT
BRANCH  16  20
ATOM     20  O   UNL     1     -36.569  23.316   3.993  0.00  0.00    -0.424 OA
BRANCH  20  22
ATOM     21  O   UNL     1     -36.034  22.563   6.106  0.00  0.00    -0.250 OA
ATOM     22  C   UNL     1     -35.984  22.459   4.889  0.00  0.00    +0.319 C 
BRANCH  22  23
ATOM     23  C   UNL     1     -35.265  21.365   4.130  0.00  0.00    +0.121 C 
BRANCH  23  24
ATOM     24  C   UNL     1     -35.282  21.572   2.620  0.00  0.00    +0.121 C 
BRANCH  24  26
ATOM     25  O   UNL     1     -35.300  19.947   0.833  0.00  0.00    -0.250 OA
ATOM     26  C   UNL     1     -35.753  20.332   1.902  0.00  0.00    +0.314 C 
BRANCH  26  27
ATOM     27  O   UNL     1     -36.724  19.672   2.582  0.00  0.00    -0.480 OA
ATOM     28  H   UNL     1     -37.118  18.906   2.213  0.00  0.00    +0.295 HD
ENDBRANCH  26  27
ENDBRANCH  24  26
ENDBRANCH  23  24
ENDBRANCH  22  23
ENDBRANCH  20  22
ENDBRANCH  16  20
TORSDOF 6
ENDMDL
