MODEL 1
REMARK VINA RESULT:      -5.8      0.000      0.000
REMARK  Name = 5283117
REMARK  16 active torsions:
REMARK  status: ('A' for Active; 'I' for Inactive)
REMARK    1  A    between atoms: C_1  and  C_20
REMARK    2  A    between atoms: C_2  and  C_10
REMARK    3  A    between atoms: C_3  and  O_6
REMARK    4  A    between atoms: C_4  and  O_8
REMARK    5  A    between atoms: C_11  and  C_12
REMARK    6  A    between atoms: C_12  and  O_13
REMARK    7  A    between atoms: C_12  and  C_15
REMARK    8  A    between atoms: C_15  and  C_16
REMARK    9  A    between atoms: C_17  and  C_18
REMARK   10  A    between atoms: C_20  and  C_22
REMARK   11  A    between atoms: C_22  and  C_23
REMARK   12  A    between atoms: C_23  and  C_24
REMARK   13  A    between atoms: C_24  and  C_25
REMARK   14  A    between atoms: C_25  and  C_26
REMARK   15  A    between atoms: C_26  and  C_28
REMARK   16  A    between atoms: C_28  and  O_29
REMARK                            x       y       z     vdW  Elec       q    Type
REMARK                         _______ _______ _______ _____ _____    ______ ____
ROOT
ATOM      1  C   UNL     1     -37.688  25.362   2.836  0.00  0.00    +0.041 C 
ATOM      2  C   UNL     1     -38.150  24.009   2.263  0.00  0.00    +0.051 C 
ATOM      3  C   UNL     1     -38.959  26.211   2.740  0.00  0.00    +0.114 C 
ATOM      4  C   UNL     1     -39.582  23.851   2.810  0.00  0.00    +0.117 C 
ATOM      5  C   UNL     1     -40.060  25.257   3.203  0.00  0.00    +0.059 C 
ENDROOT
BRANCH   3   6
ATOM      6  O   UNL     1     -39.220  26.658   1.415  0.00  0.00    -0.384 OA
ATOM      7  H   UNL     1     -39.374  27.616   1.421  0.00  0.00    +0.210 HD
ENDBRANCH   3   6
BRANCH   4   8
ATOM      8  O   UNL     1     -40.435  23.319   1.804  0.00  0.00    -0.384 OA
ATOM      9  H   UNL     1     -39.909  23.086   1.024  0.00  0.00    +0.210 HD
ENDBRANCH   4   8
BRANCH   2  10
ATOM     10  C   UNL     1     -37.269  22.866   2.642  0.00  0.00    -0.026 C 
ATOM     11  C   UNL     1     -36.719  22.022   1.757  0.00  0.00    -0.002 C 
BRANCH  11  12
ATOM     12  C   UNL     1     -35.841  20.865   2.143  0.00  0.00    +0.136 C 
BRANCH  12  13
ATOM     13  O   UNL     1     -36.681  19.864   2.719  0.00  0.00    -0.380 OA
ATOM     14  H   UNL     1     -36.138  19.120   3.021  0.00  0.00    +0.211 HD
ENDBRANCH  12  13
BRANCH  12  15
ATOM     15  C   UNL     1     -35.112  20.259   0.935  0.00  0.00    +0.059 C 
BRANCH  15  16
ATOM     16  C   UNL     1     -33.777  20.900   0.686  0.00  0.00    -0.028 C 
ATOM     17  C   UNL     1     -32.677  20.217   0.336  0.00  0.00    -0.031 C 
BRANCH  17  18
ATOM     18  C   UNL     1     -32.644  18.729   0.151  0.00  0.00    +0.026 C 
ATOM     19  C   UNL     1     -32.149  18.029   1.407  0.00  0.00    +0.005 C 
ENDBRANCH  17  18
ENDBRANCH  15  16
ENDBRANCH  12  15
ENDBRANCH  11  12
ENDBRANCH   2  10
BRANCH   1  20
ATOM     20  C   UNL     1     -36.500  25.961   2.093  0.00  0.00    +0.067 C 
BRANCH  20  22
ATOM     21  O   UNL     1     -35.448  27.576   3.551  0.00  0.00    -0.296 OA
ATOM     22  C   UNL     1     -35.422  26.458   3.036  0.00  0.00    +0.151 C 
BRANCH  22  23
ATOM     23  C   UNL     1     -34.302  25.486   3.353  0.00  0.00    +0.065 C 
BRANCH  23  24
ATOM     24  C   UNL     1     -34.078  25.402   4.859  0.00  0.00    +0.008 C 
BRANCH  24  25
ATOM     25  C   UNL     1     -34.939  24.337   5.547  0.00  0.00    +0.012 C 
BRANCH  25  26
ATOM     26  C   UNL     1     -34.768  22.917   5.006  0.00  0.00    +0.109 C 
BRANCH  26  28
ATOM     27  O   UNL     1     -36.190  22.084   6.799  0.00  0.00    -0.250 OA
ATOM     28  C   UNL     1     -35.433  21.864   5.863  0.00  0.00    +0.314 C 
BRANCH  28  29
ATOM     29  O   UNL     1     -35.114  20.611   5.448  0.00  0.00    -0.480 OA
ATOM     30  H   UNL     1     -35.771  19.942   5.427  0.00  0.00    +0.295 HD
ENDBRANCH  28  29
ENDBRANCH  26  28
ENDBRANCH  25  26
ENDBRANCH  24  25
ENDBRANCH  23  24
ENDBRANCH  22  23
ENDBRANCH  20  22
ENDBRANCH   1  20
TORSDOF 16
ENDMDL
MODEL 2
REMARK VINA RESULT:      -5.8      1.854      4.632
REMARK  Name = 5283117
REMARK  16 active torsions:
REMARK  status: ('A' for Active; 'I' for Inactive)
REMARK    1  A    between atoms: C_1  and  C_20
REMARK    2  A    between atoms: C_2  and  C_10
REMARK    3  A    between atoms: C_3  and  O_6
REMARK    4  A    between atoms: C_4  and  O_8
REMARK    5  A    between atoms: C_11  and  C_12
REMARK    6  A    between atoms: C_12  and  O_13
REMARK    7  A    between atoms: C_12  and  C_15
REMARK    8  A    between atoms: C_15  and  C_16
REMARK    9  A    between atoms: C_17  and  C_18
REMARK   10  A    between atoms: C_20  and  C_22
REMARK   11  A    between atoms: C_22  and  C_23
REMARK   12  A    between atoms: C_23  and  C_24
REMARK   13  A    between atoms: C_24  and  C_25
REMARK   14  A    between atoms: C_25  and  C_26
REMARK   15  A    between atoms: C_26  and  C_28
REMARK   16  A    between atoms: C_28  and  O_29
REMARK                            x       y       z     vdW  Elec       q    Type
REMARK                         _______ _______ _______ _____ _____    ______ ____
ROOT
ATOM      1  C   UNL     1     -36.506  25.114   3.481  0.00  0.00    +0.041 C 
ATOM      2  C   UNL     1     -36.220  23.787   4.208  0.00  0.00    +0.051 C 
ATOM      3  C   UNL     1     -35.813  26.139   4.383  0.00  0.00    +0.114 C 
ATOM      4  C   UNL     1     -34.776  23.954   4.719  0.00  0.00    +0.117 C 
ATOM      5  C   UNL     1     -34.489  25.463   4.739  0.00  0.00    +0.059 C 
ENDROOT
BRANCH   3   6
ATOM      6  O   UNL     1     -36.555  26.420   5.564  0.00  0.00    -0.384 OA
ATOM      7  H   UNL     1     -36.426  25.704   6.205  0.00  0.00    +0.210 HD
ENDBRANCH   3   6
BRANCH   4   8
ATOM      8  O   UNL     1     -34.657  23.428   6.035  0.00  0.00    -0.384 OA
ATOM      9  H   UNL     1     -33.867  22.867   6.089  0.00  0.00    +0.210 HD
ENDBRANCH   4   8
BRANCH   2  10
ATOM     10  C   UNL     1     -36.378  22.582   3.342  0.00  0.00    -0.026 C 
ATOM     11  C   UNL     1     -35.479  21.590   3.271  0.00  0.00    -0.002 C 
BRANCH  11  12
ATOM     12  C   UNL     1     -35.638  20.383   2.389  0.00  0.00    +0.136 C 
BRANCH  12  13
ATOM     13  O   UNL     1     -36.932  19.836   2.641  0.00  0.00    -0.380 OA
ATOM     14  H   UNL     1     -37.215  20.074   3.538  0.00  0.00    +0.211 HD
ENDBRANCH  12  13
BRANCH  12  15
ATOM     15  C   UNL     1     -35.534  20.734   0.898  0.00  0.00    +0.059 C 
BRANCH  15  16
ATOM     16  C   UNL     1     -34.118  20.963   0.456  0.00  0.00    -0.028 C 
ATOM     17  C   UNL     1     -33.627  22.164   0.118  0.00  0.00    -0.031 C 
BRANCH  17  18
ATOM     18  C   UNL     1     -34.434  23.429   0.138  0.00  0.00    +0.026 C 
ATOM     19  C   UNL     1     -33.833  24.450   1.093  0.00  0.00    +0.005 C 
ENDBRANCH  17  18
ENDBRANCH  15  16
ENDBRANCH  12  15
ENDBRANCH  11  12
ENDBRANCH   2  10
BRANCH   1  20
ATOM     20  C   UNL     1     -37.992  25.387   3.279  0.00  0.00    +0.067 C 
BRANCH  20  22
ATOM     21  O   UNL     1     -39.114  26.864   1.731  0.00  0.00    -0.296 OA
ATOM     22  C   UNL     1     -38.290  25.967   1.911  0.00  0.00    +0.151 C 
BRANCH  22  23
ATOM     23  C   UNL     1     -37.489  25.408   0.752  0.00  0.00    +0.065 C 
BRANCH  23  24
ATOM     24  C   UNL     1     -38.376  24.557  -0.150  0.00  0.00    +0.008 C 
BRANCH  24  25
ATOM     25  C   UNL     1     -38.271  23.054   0.132  0.00  0.00    +0.012 C 
BRANCH  25  26
ATOM     26  C   UNL     1     -39.281  22.513   1.144  0.00  0.00    +0.109 C 
BRANCH  26  28
ATOM     27  O   UNL     1     -41.084  20.998   0.522  0.00  0.00    -0.250 OA
ATOM     28  C   UNL     1     -39.895  21.193   0.734  0.00  0.00    +0.314 C 
BRANCH  28  29
ATOM     29  O   UNL     1     -38.949  20.228   0.590  0.00  0.00    -0.480 OA
ATOM     30  H   UNL     1     -38.386  20.231  -0.159  0.00  0.00    +0.295 HD
ENDBRANCH  28  29
ENDBRANCH  26  28
ENDBRANCH  25  26
ENDBRANCH  24  25
ENDBRANCH  23  24
ENDBRANCH  22  23
ENDBRANCH  20  22
ENDBRANCH   1  20
TORSDOF 16
ENDMDL
MODEL 3
REMARK VINA RESULT:      -5.7      1.606      4.115
REMARK  Name = 5283117
REMARK  16 active torsions:
REMARK  status: ('A' for Active; 'I' for Inactive)
REMARK    1  A    between atoms: C_1  and  C_20
REMARK    2  A    between atoms: C_2  and  C_10
REMARK    3  A    between atoms: C_3  and  O_6
REMARK    4  A    between atoms: C_4  and  O_8
REMARK    5  A    between atoms: C_11  and  C_12
REMARK    6  A    between atoms: C_12  and  O_13
REMARK    7  A    between atoms: C_12  and  C_15
REMARK    8  A    between atoms: C_15  and  C_16
REMARK    9  A    between atoms: C_17  and  C_18
REMARK   10  A    between atoms: C_20  and  C_22
REMARK   11  A    between atoms: C_22  and  C_23
REMARK   12  A    between atoms: C_23  and  C_24
REMARK   13  A    between atoms: C_24  and  C_25
REMARK   14  A    between atoms: C_25  and  C_26
REMARK   15  A    between atoms: C_26  and  C_28
REMARK   16  A    between atoms: C_28  and  O_29
REMARK                            x       y       z     vdW  Elec       q    Type
REMARK                         _______ _______ _______ _____ _____    ______ ____
ROOT
ATOM      1  C   UNL     1     -35.951  25.109   3.447  0.00  0.00    +0.041 C 
ATOM      2  C   UNL     1     -36.279  23.760   4.113  0.00  0.00    +0.051 C 
ATOM      3  C   UNL     1     -35.483  25.957   4.634  0.00  0.00    +0.114 C 
ATOM      4  C   UNL     1     -35.169  23.596   5.169  0.00  0.00    +0.117 C 
ATOM      5  C   UNL     1     -34.599  24.998   5.429  0.00  0.00    +0.059 C 
ENDROOT
BRANCH   3   6
ATOM      6  O   UNL     1     -36.564  26.414   5.439  0.00  0.00    -0.384 OA
ATOM      7  H   UNL     1     -36.259  27.137   6.009  0.00  0.00    +0.210 HD
ENDBRANCH   3   6
BRANCH   4   8
ATOM      8  O   UNL     1     -35.713  23.070   6.374  0.00  0.00    -0.384 OA
ATOM      9  H   UNL     1     -36.370  23.690   6.729  0.00  0.00    +0.210 HD
ENDBRANCH   4   8
BRANCH   2  10
ATOM     10  C   UNL     1     -36.326  22.615   3.157  0.00  0.00    -0.026 C 
ATOM     11  C   UNL     1     -35.607  21.492   3.301  0.00  0.00    -0.002 C 
BRANCH  11  12
ATOM     12  C   UNL     1     -35.649  20.346   2.330  0.00  0.00    +0.136 C 
BRANCH  12  13
ATOM     13  O   UNL     1     -36.953  19.771   2.404  0.00  0.00    -0.380 OA
ATOM     14  H   UNL     1     -37.471  20.229   3.084  0.00  0.00    +0.211 HD
ENDBRANCH  12  13
BRANCH  12  15
ATOM     15  C   UNL     1     -35.391  20.797   0.886  0.00  0.00    +0.059 C 
BRANCH  15  16
ATOM     16  C   UNL     1     -33.985  21.280   0.673  0.00  0.00    -0.028 C 
ATOM     17  C   UNL     1     -32.962  20.474   0.353  0.00  0.00    -0.031 C 
BRANCH  17  18
ATOM     18  C   UNL     1     -33.095  18.991   0.167  0.00  0.00    +0.026 C 
ATOM     19  C   UNL     1     -32.648  18.239   1.411  0.00  0.00    +0.005 C 
ENDBRANCH  17  18
ENDBRANCH  15  16
ENDBRANCH  12  15
ENDBRANCH  11  12
ENDBRANCH   2  10
BRANCH   1  20
ATOM     20  C   UNL     1     -37.129  25.716   2.693  0.00  0.00    +0.067 C 
BRANCH  20  22
ATOM     21  O   UNL     1     -35.823  25.613   0.664  0.00  0.00    -0.296 OA
ATOM     22  C   UNL     1     -36.933  25.677   1.191  0.00  0.00    +0.151 C 
BRANCH  22  23
ATOM     23  C   UNL     1     -38.192  25.688   0.346  0.00  0.00    +0.065 C 
BRANCH  23  24
ATOM     24  C   UNL     1     -39.431  25.620   1.233  0.00  0.00    +0.008 C 
BRANCH  24  25
ATOM     25  C   UNL     1     -40.205  24.303   1.102  0.00  0.00    +0.012 C 
BRANCH  25  26
ATOM     26  C   UNL     1     -39.898  23.263   2.179  0.00  0.00    +0.109 C 
BRANCH  26  28
ATOM     27  O   UNL     1     -38.738  21.735   0.679  0.00  0.00    -0.250 OA
ATOM     28  C   UNL     1     -39.502  21.916   1.617  0.00  0.00    +0.314 C 
BRANCH  28  29
ATOM     29  O   UNL     1     -40.078  20.899   2.309  0.00  0.00    -0.480 OA
ATOM     30  H   UNL     1     -40.190  20.967   3.237  0.00  0.00    +0.295 HD
ENDBRANCH  28  29
ENDBRANCH  26  28
ENDBRANCH  25  26
ENDBRANCH  24  25
ENDBRANCH  23  24
ENDBRANCH  22  23
ENDBRANCH  20  22
ENDBRANCH   1  20
TORSDOF 16
ENDMDL
MODEL 4
REMARK VINA RESULT:      -5.7      1.541      4.852
REMARK  Name = 5283117
REMARK  16 active torsions:
REMARK  status: ('A' for Active; 'I' for Inactive)
REMARK    1  A    between atoms: C_1  and  C_20
REMARK    2  A    between atoms: C_2  and  C_10
REMARK    3  A    between atoms: C_3  and  O_6
REMARK    4  A    between atoms: C_4  and  O_8
REMARK    5  A    between atoms: C_11  and  C_12
REMARK    6  A    between atoms: C_12  and  O_13
REMARK    7  A    between atoms: C_12  and  C_15
REMARK    8  A    between atoms: C_15  and  C_16
REMARK    9  A    between atoms: C_17  and  C_18
REMARK   10  A    between atoms: C_20  and  C_22
REMARK   11  A    between atoms: C_22  and  C_23
REMARK   12  A    between atoms: C_23  and  C_24
REMARK   13  A    between atoms: C_24  and  C_25
REMARK   14  A    between atoms: C_25  and  C_26
REMARK   15  A    between atoms: C_26  and  C_28
REMARK   16  A    between atoms: C_28  and  O_29
REMARK                            x       y       z     vdW  Elec       q    Type
REMARK                         _______ _______ _______ _____ _____    ______ ____
ROOT
ATOM      1  C   UNL     1     -35.517  26.069   3.590  0.00  0.00    +0.041 C 
ATOM      2  C   UNL     1     -35.106  25.924   5.067  0.00  0.00    +0.051 C 
ATOM      3  C   UNL     1     -34.766  27.333   3.163  0.00  0.00    +0.114 C 
ATOM      4  C   UNL     1     -33.622  26.336   5.076  0.00  0.00    +0.117 C 
ATOM      5  C   UNL     1     -33.388  27.162   3.801  0.00  0.00    +0.059 C 
ENDROOT
BRANCH   3   6
ATOM      6  O   UNL     1     -35.385  28.523   3.637  0.00  0.00    -0.384 OA
ATOM      7  H   UNL     1     -36.164  28.294   4.167  0.00  0.00    +0.210 HD
ENDBRANCH   3   6
BRANCH   4   8
ATOM      8  O   UNL     1     -33.341  27.133   6.220  0.00  0.00    -0.384 OA
ATOM      9  H   UNL     1     -32.628  26.721   6.734  0.00  0.00    +0.210 HD
ENDBRANCH   4   8
BRANCH   2  10
ATOM     10  C   UNL     1     -35.316  24.552   5.616  0.00  0.00    -0.026 C 
ATOM     11  C   UNL     1     -34.808  23.440   5.063  0.00  0.00    -0.002 C 
BRANCH  11  12
ATOM     12  C   UNL     1     -35.030  22.059   5.613  0.00  0.00    +0.136 C 
BRANCH  12  13
ATOM     13  O   UNL     1     -36.226  22.097   6.392  0.00  0.00    -0.380 OA
ATOM     14  H   UNL     1     -36.286  21.293   6.931  0.00  0.00    +0.211 HD
ENDBRANCH  12  13
BRANCH  12  15
ATOM     15  C   UNL     1     -35.199  21.012   4.503  0.00  0.00    +0.059 C 
BRANCH  15  16
ATOM     16  C   UNL     1     -35.603  21.620   3.192  0.00  0.00    -0.028 C 
ATOM     17  C   UNL     1     -35.245  21.124   1.998  0.00  0.00    -0.031 C 
BRANCH  17  18
ATOM     18  C   UNL     1     -34.394  19.900   1.826  0.00  0.00    +0.026 C 
ATOM     19  C   UNL     1     -33.367  20.094   0.721  0.00  0.00    +0.005 C 
ENDBRANCH  17  18
ENDBRANCH  15  16
ENDBRANCH  12  15
ENDBRANCH  11  12
ENDBRANCH   2  10
BRANCH   1  20
ATOM     20  C   UNL     1     -37.025  26.158   3.386  0.00  0.00    +0.067 C 
BRANCH  20  22
ATOM     21  O   UNL     1     -37.910  27.148   1.368  0.00  0.00    -0.296 OA
ATOM     22  C   UNL     1     -37.408  26.169   1.919  0.00  0.00    +0.151 C 
BRANCH  22  23
ATOM     23  C   UNL     1     -37.109  24.906   1.135  0.00  0.00    +0.065 C 
BRANCH  23  24
ATOM     24  C   UNL     1     -38.391  24.325   0.548  0.00  0.00    +0.008 C 
BRANCH  24  25
ATOM     25  C   UNL     1     -39.417  23.913   1.610  0.00  0.00    +0.012 C 
BRANCH  25  26
ATOM     26  C   UNL     1     -39.132  22.581   2.303  0.00  0.00    +0.109 C 
BRANCH  26  28
ATOM     27  O   UNL     1     -40.719  21.077   1.231  0.00  0.00    -0.250 OA
ATOM     28  C   UNL     1     -39.563  21.378   1.493  0.00  0.00    +0.314 C 
BRANCH  28  29
ATOM     29  O   UNL     1     -38.494  20.668   1.049  0.00  0.00    -0.480 OA
ATOM     30  H   UNL     1     -38.366  20.538   0.130  0.00  0.00    +0.295 HD
ENDBRANCH  28  29
ENDBRANCH  26  28
ENDBRANCH  25  26
ENDBRANCH  24  25
ENDBRANCH  23  24
ENDBRANCH  22  23
ENDBRANCH  20  22
ENDBRANCH   1  20
TORSDOF 16
ENDMDL
MODEL 5
REMARK VINA RESULT:      -5.7      2.547      6.550
REMARK  Name = 5283117
REMARK  16 active torsions:
REMARK  status: ('A' for Active; 'I' for Inactive)
REMARK    1  A    between atoms: C_1  and  C_20
REMARK    2  A    between atoms: C_2  and  C_10
REMARK    3  A    between atoms: C_3  and  O_6
REMARK    4  A    between atoms: C_4  and  O_8
REMARK    5  A    between atoms: C_11  and  C_12
REMARK    6  A    between atoms: C_12  and  O_13
REMARK    7  A    between atoms: C_12  and  C_15
REMARK    8  A    between atoms: C_15  and  C_16
REMARK    9  A    between atoms: C_17  and  C_18
REMARK   10  A    between atoms: C_20  and  C_22
REMARK   11  A    between atoms: C_22  and  C_23
REMARK   12  A    between atoms: C_23  and  C_24
REMARK   13  A    between atoms: C_24  and  C_25
REMARK   14  A    between atoms: C_25  and  C_26
REMARK   15  A    between atoms: C_26  and  C_28
REMARK   16  A    between atoms: C_28  and  O_29
REMARK                            x       y       z     vdW  Elec       q    Type
REMARK                         _______ _______ _______ _____ _____    ______ ____
ROOT
ATOM      1  C   UNL     1     -36.460  21.279   1.410  0.00  0.00    +0.041 C 
ATOM      2  C   UNL     1     -37.636  21.626   2.343  0.00  0.00    +0.051 C 
ATOM      3  C   UNL     1     -37.076  20.230   0.480  0.00  0.00    +0.114 C 
ATOM      4  C   UNL     1     -38.859  21.618   1.406  0.00  0.00    +0.117 C 
ATOM      5  C   UNL     1     -38.460  20.799   0.169  0.00  0.00    +0.059 C 
ENDROOT
BRANCH   3   6
ATOM      6  O   UNL     1     -37.196  18.954   1.098  0.00  0.00    -0.384 OA
ATOM      7  H   UNL     1     -37.989  18.507   0.766  0.00  0.00    +0.210 HD
ENDBRANCH   3   6
BRANCH   4   8
ATOM      8  O   UNL     1     -39.966  21.001   2.051  0.00  0.00    -0.384 OA
ATOM      9  H   UNL     1     -40.655  21.665   2.217  0.00  0.00    +0.210 HD
ENDBRANCH   4   8
BRANCH   2  10
ATOM     10  C   UNL     1     -37.474  22.928   3.053  0.00  0.00    -0.026 C 
ATOM     11  C   UNL     1     -37.095  24.065   2.450  0.00  0.00    -0.002 C 
BRANCH  11  12
ATOM     12  C   UNL     1     -36.923  25.373   3.171  0.00  0.00    +0.136 C 
BRANCH  12  13
ATOM     13  O   UNL     1     -38.172  26.062   3.112  0.00  0.00    -0.380 OA
ATOM     14  H   UNL     1     -38.014  27.018   3.104  0.00  0.00    +0.211 HD
ENDBRANCH  12  13
BRANCH  12  15
ATOM     15  C   UNL     1     -36.538  25.178   4.645  0.00  0.00    +0.059 C 
BRANCH  15  16
ATOM     16  C   UNL     1     -35.072  24.911   4.829  0.00  0.00    -0.028 C 
ATOM     17  C   UNL     1     -34.586  23.859   5.503  0.00  0.00    -0.031 C 
BRANCH  17  18
ATOM     18  C   UNL     1     -35.446  22.819   6.159  0.00  0.00    +0.026 C 
ATOM     19  C   UNL     1     -35.078  21.422   5.685  0.00  0.00    +0.005 C 
ENDBRANCH  17  18
ENDBRANCH  15  16
ENDBRANCH  12  15
ENDBRANCH  11  12
ENDBRANCH   2  10
BRANCH   1  20
ATOM     20  C   UNL     1     -35.223  20.784   2.151  0.00  0.00    +0.067 C 
BRANCH  20  22
ATOM     21  O   UNL     1     -33.660  21.293   0.380  0.00  0.00    -0.296 OA
ATOM     22  C   UNL     1     -34.071  20.485   1.212  0.00  0.00    +0.151 C 
BRANCH  22  23
ATOM     23  C   UNL     1     -33.409  19.130   1.369  0.00  0.00    +0.065 C 
BRANCH  23  24
ATOM     24  C   UNL     1     -33.360  18.401   0.030  0.00  0.00    +0.008 C 
BRANCH  24  25
ATOM     25  C   UNL     1     -33.816  16.940   0.112  0.00  0.00    +0.012 C 
BRANCH  25  26
ATOM     26  C   UNL     1     -35.124  16.629  -0.616  0.00  0.00    +0.109 C 
BRANCH  26  28
ATOM     27  O   UNL     1     -35.448  14.230  -0.883  0.00  0.00    -0.250 OA
ATOM     28  C   UNL     1     -35.689  15.267  -0.280  0.00  0.00    +0.314 C 
BRANCH  28  29
ATOM     29  O   UNL     1     -36.490  15.316   0.816  0.00  0.00    -0.480 OA
ATOM     30  H   UNL     1     -36.983  14.562   1.071  0.00  0.00    +0.295 HD
ENDBRANCH  28  29
ENDBRANCH  26  28
ENDBRANCH  25  26
ENDBRANCH  24  25
ENDBRANCH  23  24
ENDBRANCH  22  23
ENDBRANCH  20  22
ENDBRANCH   1  20
TORSDOF 16
ENDMDL
MODEL 6
REMARK VINA RESULT:      -5.6      2.950      4.519
REMARK  Name = 5283117
REMARK  16 active torsions:
REMARK  status: ('A' for Active; 'I' for Inactive)
REMARK    1  A    between atoms: C_1  and  C_20
REMARK    2  A    between atoms: C_2  and  C_10
REMARK    3  A    between atoms: C_3  and  O_6
REMARK    4  A    between atoms: C_4  and  O_8
REMARK    5  A    between atoms: C_11  and  C_12
REMARK    6  A    between atoms: C_12  and  O_13
REMARK    7  A    between atoms: C_12  and  C_15
REMARK    8  A    between atoms: C_15  and  C_16
REMARK    9  A    between atoms: C_17  and  C_18
REMARK   10  A    between atoms: C_20  and  C_22
REMARK   11  A    between atoms: C_22  and  C_23
REMARK   12  A    between atoms: C_23  and  C_24
REMARK   13  A    between atoms: C_24  and  C_25
REMARK   14  A    between atoms: C_25  and  C_26
REMARK   15  A    between atoms: C_26  and  C_28
REMARK   16  A    between atoms: C_28  and  O_29
REMARK                            x       y       z     vdW  Elec       q    Type
REMARK                         _______ _______ _______ _____ _____    ______ ____
ROOT
ATOM      1  C   UNL     1     -34.175  25.382   3.485  0.00  0.00    +0.041 C 
ATOM      2  C   UNL     1     -35.444  24.529   3.305  0.00  0.00    +0.051 C 
ATOM      3  C   UNL     1     -34.667  26.517   4.388  0.00  0.00    +0.114 C 
ATOM      4  C   UNL     1     -36.114  24.573   4.691  0.00  0.00    +0.117 C 
ATOM      5  C   UNL     1     -35.540  25.800   5.417  0.00  0.00    +0.059 C 
ENDROOT
BRANCH   3   6
ATOM      6  O   UNL     1     -35.433  27.485   3.681  0.00  0.00    -0.384 OA
ATOM      7  H   UNL     1     -34.948  28.324   3.653  0.00  0.00    +0.210 HD
ENDBRANCH   3   6
BRANCH   4   8
ATOM      8  O   UNL     1     -37.522  24.718   4.551  0.00  0.00    -0.384 OA
ATOM      9  H   UNL     1     -37.726  25.050   3.662  0.00  0.00    +0.210 HD
ENDBRANCH   4   8
BRANCH   2  10
ATOM     10  C   UNL     1     -35.169  23.133   2.853  0.00  0.00    -0.026 C 
ATOM     11  C   UNL     1     -35.761  22.049   3.376  0.00  0.00    -0.002 C 
BRANCH  11  12
ATOM     12  C   UNL     1     -35.473  20.644   2.926  0.00  0.00    +0.136 C 
BRANCH  12  13
ATOM     13  O   UNL     1     -36.727  19.982   2.762  0.00  0.00    -0.380 OA
ATOM     14  H   UNL     1     -37.054  20.127   1.860  0.00  0.00    +0.211 HD
ENDBRANCH  12  13
BRANCH  12  15
ATOM     15  C   UNL     1     -34.718  20.605   1.590  0.00  0.00    +0.059 C 
BRANCH  15  16
ATOM     16  C   UNL     1     -33.842  19.393   1.457  0.00  0.00    -0.028 C 
ATOM     17  C   UNL     1     -32.691  19.377   0.769  0.00  0.00    -0.031 C 
BRANCH  17  18
ATOM     18  C   UNL     1     -32.137  20.568   0.045  0.00  0.00    +0.026 C 
ATOM     19  C   UNL     1     -31.585  20.177  -1.318  0.00  0.00    +0.005 C 
ENDBRANCH  17  18
ENDBRANCH  15  16
ENDBRANCH  12  15
ENDBRANCH  11  12
ENDBRANCH   2  10
BRANCH   1  20
ATOM     20  C   UNL     1     -33.578  25.867   2.169  0.00  0.00    +0.067 C 
BRANCH  20  22
ATOM     21  O   UNL     1     -31.204  25.867   2.621  0.00  0.00    -0.296 OA
ATOM     22  C   UNL     1     -32.219  26.512   2.356  0.00  0.00    +0.151 C 
BRANCH  22  23
ATOM     23  C   UNL     1     -32.153  28.015   2.165  0.00  0.00    +0.065 C 
BRANCH  23  24
ATOM     24  C   UNL     1     -31.419  28.670   3.330  0.00  0.00    +0.008 C 
BRANCH  24  25
ATOM     25  C   UNL     1     -32.336  29.480   4.253  0.00  0.00    +0.012 C 
BRANCH  25  26
ATOM     26  C   UNL     1     -31.687  29.958   5.552  0.00  0.00    +0.109 C 
BRANCH  26  28
ATOM     27  O   UNL     1     -32.458  27.925   6.648  0.00  0.00    -0.250 OA
ATOM     28  C   UNL     1     -31.887  29.005   6.709  0.00  0.00    +0.314 C 
BRANCH  28  29
ATOM     29  O   UNL     1     -31.319  29.479   7.848  0.00  0.00    -0.480 OA
ATOM     30  H   UNL     1     -30.622  29.005   8.257  0.00  0.00    +0.295 HD
ENDBRANCH  28  29
ENDBRANCH  26  28
ENDBRANCH  25  26
ENDBRANCH  24  25
ENDBRANCH  23  24
ENDBRANCH  22  23
ENDBRANCH  20  22
ENDBRANCH   1  20
TORSDOF 16
ENDMDL
MODEL 7
REMARK VINA RESULT:      -5.6      2.749      6.115
REMARK  Name = 5283117
REMARK  16 active torsions:
REMARK  status: ('A' for Active; 'I' for Inactive)
REMARK    1  A    between atoms: C_1  and  C_20
REMARK    2  A    between atoms: C_2  and  C_10
REMARK    3  A    between atoms: C_3  and  O_6
REMARK    4  A    between atoms: C_4  and  O_8
REMARK    5  A    between atoms: C_11  and  C_12
REMARK    6  A    between atoms: C_12  and  O_13
REMARK    7  A    between atoms: C_12  and  C_15
REMARK    8  A    between atoms: C_15  and  C_16
REMARK    9  A    between atoms: C_17  and  C_18
REMARK   10  A    between atoms: C_20  and  C_22
REMARK   11  A    between atoms: C_22  and  C_23
REMARK   12  A    between atoms: C_23  and  C_24
REMARK   13  A    between atoms: C_24  and  C_25
REMARK   14  A    between atoms: C_25  and  C_26
REMARK   15  A    between atoms: C_26  and  C_28
REMARK   16  A    between atoms: C_28  and  O_29
REMARK                            x       y       z     vdW  Elec       q    Type
REMARK                         _______ _______ _______ _____ _____    ______ ____
ROOT
ATOM      1  C   UNL     1     -36.904  21.823   1.122  0.00  0.00    +0.041 C 
ATOM      2  C   UNL     1     -37.933  21.983   2.257  0.00  0.00    +0.051 C 
ATOM      3  C   UNL     1     -37.552  20.753   0.239  0.00  0.00    +0.114 C 
ATOM      4  C   UNL     1     -39.290  21.875   1.536  0.00  0.00    +0.117 C 
ATOM      5  C   UNL     1     -39.022  21.168   0.198  0.00  0.00    +0.059 C 
ENDROOT
BRANCH   3   6
ATOM      6  O   UNL     1     -37.423  19.444   0.782  0.00  0.00    -0.384 OA
ATOM      7  H   UNL     1     -36.677  18.991   0.360  0.00  0.00    +0.210 HD
ENDBRANCH   3   6
BRANCH   4   8
ATOM      8  O   UNL     1     -40.197  21.101   2.312  0.00  0.00    -0.384 OA
ATOM      9  H   UNL     1     -40.794  20.614   1.722  0.00  0.00    +0.210 HD
ENDBRANCH   4   8
BRANCH   2  10
ATOM     10  C   UNL     1     -37.795  23.261   3.015  0.00  0.00    -0.026 C 
ATOM     11  C   UNL     1     -37.383  24.414   2.468  0.00  0.00    -0.002 C 
BRANCH  11  12
ATOM     12  C   UNL     1     -37.235  25.696   3.238  0.00  0.00    +0.136 C 
BRANCH  12  13
ATOM     13  O   UNL     1     -38.546  26.217   3.457  0.00  0.00    -0.380 OA
ATOM     14  H   UNL     1     -39.205  25.540   3.236  0.00  0.00    +0.211 HD
ENDBRANCH  12  13
BRANCH  12  15
ATOM     15  C   UNL     1     -36.558  25.482   4.600  0.00  0.00    +0.059 C 
BRANCH  15  16
ATOM     16  C   UNL     1     -35.124  25.059   4.471  0.00  0.00    -0.028 C 
ATOM     17  C   UNL     1     -34.620  23.951   5.034  0.00  0.00    -0.031 C 
BRANCH  17  18
ATOM     18  C   UNL     1     -35.428  22.997   5.863  0.00  0.00    +0.026 C 
ATOM     19  C   UNL     1     -35.136  21.553   5.483  0.00  0.00    +0.005 C 
ENDBRANCH  17  18
ENDBRANCH  15  16
ENDBRANCH  12  15
ENDBRANCH  11  12
ENDBRANCH   2  10
BRANCH   1  20
ATOM     20  C   UNL     1     -35.512  21.444   1.615  0.00  0.00    +0.067 C 
BRANCH  20  22
ATOM     21  O   UNL     1     -34.518  22.383  -0.377  0.00  0.00    -0.296 OA
ATOM     22  C   UNL     1     -34.466  21.544   0.522  0.00  0.00    +0.151 C 
BRANCH  22  23
ATOM     23  C   UNL     1     -33.311  20.566   0.602  0.00  0.00    +0.065 C 
BRANCH  23  24
ATOM     24  C   UNL     1     -33.726  19.310   1.362  0.00  0.00    +0.008 C 
BRANCH  24  25
ATOM     25  C   UNL     1     -32.662  18.207   1.348  0.00  0.00    +0.012 C 
BRANCH  25  26
ATOM     26  C   UNL     1     -31.336  18.595   0.694  0.00  0.00    +0.109 C 
BRANCH  26  28
ATOM     27  O   UNL     1     -30.582  16.282   0.578  0.00  0.00    -0.250 OA
ATOM     28  C   UNL     1     -30.322  17.473   0.680  0.00  0.00    +0.314 C 
BRANCH  28  29
ATOM     29  O   UNL     1     -29.053  17.949   0.763  0.00  0.00    -0.480 OA
ATOM     30  H   UNL     1     -28.328  17.392   0.555  0.00  0.00    +0.295 HD
ENDBRANCH  28  29
ENDBRANCH  26  28
ENDBRANCH  25  26
ENDBRANCH  24  25
ENDBRANCH  23  24
ENDBRANCH  22  23
ENDBRANCH  20  22
ENDBRANCH   1  20
TORSDOF 16
ENDMDL
MODEL 8
REMARK VINA RESULT:      -5.5      2.379      4.980
REMARK  Name = 5283117
REMARK  16 active torsions:
REMARK  status: ('A' for Active; 'I' for Inactive)
REMARK    1  A    between atoms: C_1  and  C_20
REMARK    2  A    between atoms: C_2  and  C_10
REMARK    3  A    between atoms: C_3  and  O_6
REMARK    4  A    between atoms: C_4  and  O_8
REMARK    5  A    between atoms: C_11  and  C_12
REMARK    6  A    between atoms: C_12  and  O_13
REMARK    7  A    between atoms: C_12  and  C_15
REMARK    8  A    between atoms: C_15  and  C_16
REMARK    9  A    between atoms: C_17  and  C_18
REMARK   10  A    between atoms: C_20  and  C_22
REMARK   11  A    between atoms: C_22  and  C_23
REMARK   12  A    between atoms: C_23  and  C_24
REMARK   13  A    between atoms: C_24  and  C_25
REMARK   14  A    between atoms: C_25  and  C_26
REMARK   15  A    between atoms: C_26  and  C_28
REMARK   16  A    between atoms: C_28  and  O_29
REMARK                            x       y       z     vdW  Elec       q    Type
REMARK                         _______ _______ _______ _____ _____    ______ ____
ROOT
ATOM      1  C   UNL     1     -33.750  25.655   1.819  0.00  0.00    +0.041 C 
ATOM      2  C   UNL     1     -33.955  24.231   1.269  0.00  0.00    +0.051 C 
ATOM      3  C   UNL     1     -32.754  26.253   0.820  0.00  0.00    +0.114 C 
ATOM      4  C   UNL     1     -33.966  24.428  -0.259  0.00  0.00    +0.117 C 
ATOM      5  C   UNL     1     -33.277  25.774  -0.533  0.00  0.00    +0.059 C 
ENDROOT
BRANCH   3   6
ATOM      6  O   UNL     1     -31.426  25.788   1.028  0.00  0.00    -0.384 OA
ATOM      7  H   UNL     1     -30.811  26.538   0.991  0.00  0.00    +0.210 HD
ENDBRANCH   3   6
BRANCH   4   8
ATOM      8  O   UNL     1     -33.241  23.382  -0.893  0.00  0.00    -0.384 OA
ATOM      9  H   UNL     1     -32.944  22.743  -0.226  0.00  0.00    +0.210 HD
ENDBRANCH   4   8
BRANCH   2  10
ATOM     10  C   UNL     1     -35.198  23.571   1.764  0.00  0.00    -0.026 C 
ATOM     11  C   UNL     1     -35.532  22.302   1.486  0.00  0.00    -0.002 C 
BRANCH  11  12
ATOM     12  C   UNL     1     -36.790  21.644   1.978  0.00  0.00    +0.136 C 
BRANCH  12  13
ATOM     13  O   UNL     1     -36.404  20.514   2.761  0.00  0.00    -0.380 OA
ATOM     14  H   UNL     1     -36.999  19.772   2.572  0.00  0.00    +0.211 HD
ENDBRANCH  12  13
BRANCH  12  15
ATOM     15  C   UNL     1     -37.634  22.583   2.852  0.00  0.00    +0.059 C 
BRANCH  15  16
ATOM     16  C   UNL     1     -38.831  23.127   2.127  0.00  0.00    -0.028 C 
ATOM     17  C   UNL     1     -39.240  24.401   2.215  0.00  0.00    -0.031 C 
BRANCH  17  18
ATOM     18  C   UNL     1     -38.553  25.440   3.051  0.00  0.00    +0.026 C 
ATOM     19  C   UNL     1     -37.616  26.293   2.209  0.00  0.00    +0.005 C 
ENDBRANCH  17  18
ENDBRANCH  15  16
ENDBRANCH  12  15
ENDBRANCH  11  12
ENDBRANCH   2  10
BRANCH   1  20
ATOM     20  C   UNL     1     -33.256  25.683   3.261  0.00  0.00    +0.067 C 
BRANCH  20  22
ATOM     21  O   UNL     1     -34.596  27.646   3.697  0.00  0.00    -0.296 OA
ATOM     22  C   UNL     1     -34.070  26.621   4.130  0.00  0.00    +0.151 C 
BRANCH  22  23
ATOM     23  C   UNL     1     -34.242  26.216   5.581  0.00  0.00    +0.065 C 
BRANCH  23  24
ATOM     24  C   UNL     1     -35.664  25.729   5.835  0.00  0.00    +0.008 C 
BRANCH  24  25
ATOM     25  C   UNL     1     -35.940  24.330   5.274  0.00  0.00    +0.012 C 
BRANCH  25  26
ATOM     26  C   UNL     1     -34.835  23.303   5.522  0.00  0.00    +0.109 C 
BRANCH  26  28
ATOM     27  O   UNL     1     -34.961  20.902   5.139  0.00  0.00    -0.250 OA
ATOM     28  C   UNL     1     -35.355  21.898   5.729  0.00  0.00    +0.314 C 
BRANCH  28  29
ATOM     29  O   UNL     1     -36.311  21.858   6.692  0.00  0.00    -0.480 OA
ATOM     30  H   UNL     1     -37.055  22.426   6.638  0.00  0.00    +0.295 HD
ENDBRANCH  28  29
ENDBRANCH  26  28
ENDBRANCH  25  26
ENDBRANCH  24  25
ENDBRANCH  23  24
ENDBRANCH  22  23
ENDBRANCH  20  22
ENDBRANCH   1  20
TORSDOF 16
ENDMDL
MODEL 9
REMARK VINA RESULT:      -5.5      3.121      6.847
REMARK  Name = 5283117
REMARK  16 active torsions:
REMARK  status: ('A' for Active; 'I' for Inactive)
REMARK    1  A    between atoms: C_1  and  C_20
REMARK    2  A    between atoms: C_2  and  C_10
REMARK    3  A    between atoms: C_3  and  O_6
REMARK    4  A    between atoms: C_4  and  O_8
REMARK    5  A    between atoms: C_11  and  C_12
REMARK    6  A    between atoms: C_12  and  O_13
REMARK    7  A    between atoms: C_12  and  C_15
REMARK    8  A    between atoms: C_15  and  C_16
REMARK    9  A    between atoms: C_17  and  C_18
REMARK   10  A    between atoms: C_20  and  C_22
REMARK   11  A    between atoms: C_22  and  C_23
REMARK   12  A    between atoms: C_23  and  C_24
REMARK   13  A    between atoms: C_24  and  C_25
REMARK   14  A    between atoms: C_25  and  C_26
REMARK   15  A    between atoms: C_26  and  C_28
REMARK   16  A    between atoms: C_28  and  O_29
REMARK                            x       y       z     vdW  Elec       q    Type
REMARK                         _______ _______ _______ _____ _____    ______ ____
ROOT
ATOM      1  C   UNL     1     -35.586  24.319   4.375  0.00  0.00    +0.041 C 
ATOM      2  C   UNL     1     -36.979  24.339   3.719  0.00  0.00    +0.051 C 
ATOM      3  C   UNL     1     -35.394  22.834   4.695  0.00  0.00    +0.114 C 
ATOM      4  C   UNL     1     -37.001  23.054   2.869  0.00  0.00    +0.117 C 
ATOM      5  C   UNL     1     -35.916  22.130   3.442  0.00  0.00    +0.059 C 
ENDROOT
BRANCH   3   6
ATOM      6  O   UNL     1     -36.135  22.420   5.837  0.00  0.00    -0.384 OA
ATOM      7  H   UNL     1     -36.822  23.076   6.032  0.00  0.00    +0.210 HD
ENDBRANCH   3   6
BRANCH   4   8
ATOM      8  O   UNL     1     -38.270  22.421   2.970  0.00  0.00    -0.384 OA
ATOM      9  H   UNL     1     -38.557  22.129   2.090  0.00  0.00    +0.210 HD
ENDBRANCH   4   8
BRANCH   2  10
ATOM     10  C   UNL     1     -37.241  25.562   2.904  0.00  0.00    -0.026 C 
ATOM     11  C   UNL     1     -36.433  25.993   1.924  0.00  0.00    -0.002 C 
BRANCH  11  12
ATOM     12  C   UNL     1     -36.695  27.231   1.113  0.00  0.00    +0.136 C 
BRANCH  12  13
ATOM     13  O   UNL     1     -38.041  27.633   1.368  0.00  0.00    -0.380 OA
ATOM     14  H   UNL     1     -38.482  26.959   1.909  0.00  0.00    +0.211 HD
ENDBRANCH  12  13
BRANCH  12  15
ATOM     15  C   UNL     1     -35.757  28.386   1.495  0.00  0.00    +0.059 C 
BRANCH  15  16
ATOM     16  C   UNL     1     -36.335  29.732   1.167  0.00  0.00    -0.028 C 
ATOM     17  C   UNL     1     -36.122  30.833   1.901  0.00  0.00    -0.031 C 
BRANCH  17  18
ATOM     18  C   UNL     1     -35.279  30.857   3.142  0.00  0.00    +0.026 C 
ATOM     19  C   UNL     1     -33.913  31.468   2.868  0.00  0.00    +0.005 C 
ENDBRANCH  17  18
ENDBRANCH  15  16
ENDBRANCH  12  15
ENDBRANCH  11  12
ENDBRANCH   2  10
BRANCH   1  20
ATOM     20  C   UNL     1     -35.478  25.223   5.598  0.00  0.00    +0.067 C 
BRANCH  20  22
ATOM     21  O   UNL     1     -33.721  26.555   6.584  0.00  0.00    -0.296 OA
ATOM     22  C   UNL     1     -34.233  26.087   5.568  0.00  0.00    +0.151 C 
BRANCH  22  23
ATOM     23  C   UNL     1     -33.612  26.328   4.206  0.00  0.00    +0.065 C 
BRANCH  23  24
ATOM     24  C   UNL     1     -33.265  27.802   4.030  0.00  0.00    +0.008 C 
BRANCH  24  25
ATOM     25  C   UNL     1     -31.757  28.076   3.997  0.00  0.00    +0.012 C 
BRANCH  25  26
ATOM     26  C   UNL     1     -31.288  29.223   4.892  0.00  0.00    +0.109 C 
BRANCH  26  28
ATOM     27  O   UNL     1     -31.675  29.642   7.260  0.00  0.00    -0.250 OA
ATOM     28  C   UNL     1     -31.319  28.886   6.366  0.00  0.00    +0.314 C 
BRANCH  28  29
ATOM     29  O   UNL     1     -30.928  27.605   6.592  0.00  0.00    -0.480 OA
ATOM     30  H   UNL     1     -31.569  26.926   6.673  0.00  0.00    +0.295 HD
ENDBRANCH  28  29
ENDBRANCH  26  28
ENDBRANCH  25  26
ENDBRANCH  24  25
ENDBRANCH  23  24
ENDBRANCH  22  23
ENDBRANCH  20  22
ENDBRANCH   1  20
TORSDOF 16
ENDMDL
