MODEL 1
REMARK VINA RESULT:      -5.6      0.000      0.000
REMARK  Name = 5492567
REMARK  5 active torsions:
REMARK  status: ('A' for Active; 'I' for Inactive)
REMARK    1  A    between atoms: C_4  and  N_13
REMARK    2  A    between atoms: C_8  and  N_12
REMARK    3  A    between atoms: N_13  and  CA_15
REMARK    4  A    between atoms: CA_15  and  C_18
REMARK    5  A    between atoms: C_18  and  O_19
REMARK                            x       y       z     vdW  Elec       q    Type
REMARK                         _______ _______ _______ _____ _____    ______ ____
ROOT
ATOM      1  O   UNK A   0     -38.182  24.547   2.877  0.00  0.00    -0.241 OA
ATOM      2  N   UNK A   0     -37.487  25.743   2.943  0.00  0.00    -0.047 NA
ATOM      3  N   UNK A   0     -37.580  23.558   3.636  0.00  0.00    -0.047 NA
ATOM      4  C   UNK A   0     -35.416  26.389   4.151  0.00  0.00    +0.068 C 
ATOM      5  C   UNK A   0     -36.441  25.514   3.746  0.00  0.00    +0.158 A 
ATOM      6  C   UNK A   0     -36.500  24.126   4.186  0.00  0.00    +0.167 A 
ATOM      7  C   UNK A   0     -34.462  25.811   5.009  0.00  0.00    +0.018 C 
ATOM      8  C   UNK A   0     -35.535  23.567   5.045  0.00  0.00    +0.165 C 
ATOM      9  C   UNK A   0     -34.520  24.459   5.437  0.00  0.00    +0.027 C 
ENDROOT
BRANCH   8  12
ATOM     10  O   UNK A   0     -36.036  21.953   6.615  0.00  0.00    -0.126 OA
ATOM     11  O   UNK A   0     -35.209  21.313   4.685  0.00  0.00    -0.126 OA
ATOM     12  N   UNK A   0     -35.596  22.220   5.467  0.00  0.00    +0.059 N 
ENDBRANCH   8  12
BRANCH   4  13
ATOM     13  N   ALA A   1     -35.323  27.730   3.751  0.00  0.00    -0.324 N 
ATOM     14  H   ALA A   1     -35.999  28.366   4.082  0.00  0.00    +0.147 HD
BRANCH  13  15
ATOM     15  CA  ALA A   1     -34.289  28.222   2.885  0.00  0.00    +0.169 C 
ATOM     16  CB  ALA A   1     -34.510  27.730   1.465  0.00  0.00    +0.033 C 
BRANCH  15  18
ATOM     17  OXT ALA A   1     -33.308  30.387   2.489  0.00  0.00    -0.248 OA
ATOM     18  C   ALA A   1     -34.252  29.732   2.916  0.00  0.00    +0.332 C 
BRANCH  18  19
ATOM     19  O   ALA A   1     -35.380  30.305   3.403  0.00  0.00    -0.479 OA
ATOM     20  H   ALA A   1     -35.645  31.150   3.099  0.00  0.00    +0.295 HD
ENDBRANCH  18  19
ENDBRANCH  15  18
ENDBRANCH  13  15
ENDBRANCH   4  13
TORSDOF 5
ENDMDL
MODEL 2
REMARK VINA RESULT:      -5.5      1.684      5.835
REMARK  Name = 5492567
REMARK  5 active torsions:
REMARK  status: ('A' for Active; 'I' for Inactive)
REMARK    1  A    between atoms: C_4  and  N_13
REMARK    2  A    between atoms: C_8  and  N_12
REMARK    3  A    between atoms: N_13  and  CA_15
REMARK    4  A    between atoms: CA_15  and  C_18
REMARK    5  A    between atoms: C_18  and  O_19
REMARK                            x       y       z     vdW  Elec       q    Type
REMARK                         _______ _______ _______ _____ _____    ______ ____
ROOT
ATOM      1  O   UNK A   0     -36.998  26.590   2.006  0.00  0.00    -0.241 OA
ATOM      2  N   UNK A   0     -36.941  25.582   2.953  0.00  0.00    -0.047 NA
ATOM      3  N   UNK A   0     -35.955  27.490   2.148  0.00  0.00    -0.047 NA
ATOM      4  C   UNK A   0     -35.340  25.131   4.798  0.00  0.00    +0.068 C 
ATOM      5  C   UNK A   0     -35.859  25.841   3.699  0.00  0.00    +0.158 A 
ATOM      6  C   UNK A   0     -35.233  27.053   3.187  0.00  0.00    +0.167 A 
ATOM      7  C   UNK A   0     -34.175  25.692   5.353  0.00  0.00    +0.018 C 
ATOM      8  C   UNK A   0     -34.067  27.596   3.757  0.00  0.00    +0.165 C 
ATOM      9  C   UNK A   0     -33.565  26.872   4.854  0.00  0.00    +0.027 C 
ENDROOT
BRANCH   8  12
ATOM     10  O   UNK A   0     -32.543  28.680   2.407  0.00  0.00    -0.126 OA
ATOM     11  O   UNK A   0     -33.864  29.892   3.674  0.00  0.00    -0.126 OA
ATOM     12  N   UNK A   0     -33.465  28.773   3.258  0.00  0.00    +0.059 N 
ENDBRANCH   8  12
BRANCH   4  13
ATOM     13  N   ALA A   1     -35.911  23.962   5.321  0.00  0.00    -0.324 N 
ATOM     14  H   ALA A   1     -36.773  24.032   5.791  0.00  0.00    +0.147 HD
BRANCH  13  15
ATOM     15  CA  ALA A   1     -35.299  22.669   5.204  0.00  0.00    +0.169 C 
ATOM     16  CB  ALA A   1     -35.463  21.887   6.496  0.00  0.00    +0.033 C 
BRANCH  15  18
ATOM     17  OXT ALA A   1     -35.403  20.886   3.587  0.00  0.00    -0.248 OA
ATOM     18  C   ALA A   1     -35.902  21.904   4.049  0.00  0.00    +0.332 C 
BRANCH  18  19
ATOM     19  O   ALA A   1     -37.079  22.410   3.604  0.00  0.00    -0.479 OA
ATOM     20  H   ALA A   1     -37.098  22.943   2.833  0.00  0.00    +0.295 HD
ENDBRANCH  18  19
ENDBRANCH  15  18
ENDBRANCH  13  15
ENDBRANCH   4  13
TORSDOF 5
ENDMDL
MODEL 3
REMARK VINA RESULT:      -5.5      2.547      5.572
REMARK  Name = 5492567
REMARK  5 active torsions:
REMARK  status: ('A' for Active; 'I' for Inactive)
REMARK    1  A    between atoms: C_4  and  N_13
REMARK    2  A    between atoms: C_8  and  N_12
REMARK    3  A    between atoms: N_13  and  CA_15
REMARK    4  A    between atoms: CA_15  and  C_18
REMARK    5  A    between atoms: C_18  and  O_19
REMARK                            x       y       z     vdW  Elec       q    Type
REMARK                         _______ _______ _______ _____ _____    ______ ____
ROOT
ATOM      1  O   UNK A   0     -36.043  27.636   2.385  0.00  0.00    -0.241 OA
ATOM      2  N   UNK A   0     -36.805  26.490   2.537  0.00  0.00    -0.047 NA
ATOM      3  N   UNK A   0     -35.004  27.689   3.297  0.00  0.00    -0.047 NA
ATOM      4  C   UNK A   0     -36.627  24.582   4.117  0.00  0.00    +0.068 C 
ATOM      5  C   UNK A   0     -36.248  25.812   3.550  0.00  0.00    +0.158 A 
ATOM      6  C   UNK A   0     -35.104  26.574   4.032  0.00  0.00    +0.167 A 
ATOM      7  C   UNK A   0     -35.810  24.157   5.181  0.00  0.00    +0.018 C 
ATOM      8  C   UNK A   0     -34.299  26.131   5.098  0.00  0.00    +0.165 C 
ATOM      9  C   UNK A   0     -34.695  24.899   5.650  0.00  0.00    +0.027 C 
ENDROOT
BRANCH   8  12
ATOM     10  O   UNK A   0     -32.288  27.205   4.753  0.00  0.00    -0.126 OA
ATOM     11  O   UNK A   0     -33.133  27.194   6.779  0.00  0.00    -0.126 OA
ATOM     12  N   UNK A   0     -33.192  26.875   5.563  0.00  0.00    +0.059 N 
ENDBRANCH   8  12
BRANCH   4  13
ATOM     13  N   ALA A   1     -37.719  23.817   3.683  0.00  0.00    -0.324 N 
ATOM     14  H   ALA A   1     -38.525  23.788   4.248  0.00  0.00    +0.147 HD
BRANCH  13  15
ATOM     15  CA  ALA A   1     -37.720  23.074   2.455  0.00  0.00    +0.169 C 
ATOM     16  CB  ALA A   1     -36.540  22.119   2.413  0.00  0.00    +0.033 C 
BRANCH  15  18
ATOM     17  OXT ALA A   1     -40.108  22.860   2.220  0.00  0.00    -0.248 OA
ATOM     18  C   ALA A   1     -39.015  22.312   2.301  0.00  0.00    +0.332 C 
BRANCH  18  19
ATOM     19  O   ALA A   1     -38.860  20.969   2.203  0.00  0.00    -0.479 OA
ATOM     20  H   ALA A   1     -38.608  20.471   2.956  0.00  0.00    +0.295 HD
ENDBRANCH  18  19
ENDBRANCH  15  18
ENDBRANCH  13  15
ENDBRANCH   4  13
TORSDOF 5
ENDMDL
MODEL 4
REMARK VINA RESULT:      -5.4      2.038      6.291
REMARK  Name = 5492567
REMARK  5 active torsions:
REMARK  status: ('A' for Active; 'I' for Inactive)
REMARK    1  A    between atoms: C_4  and  N_13
REMARK    2  A    between atoms: C_8  and  N_12
REMARK    3  A    between atoms: N_13  and  CA_15
REMARK    4  A    between atoms: CA_15  and  C_18
REMARK    5  A    between atoms: C_18  and  O_19
REMARK                            x       y       z     vdW  Elec       q    Type
REMARK                         _______ _______ _______ _____ _____    ______ ____
ROOT
ATOM      1  O   UNK A   0     -32.990  26.899   5.961  0.00  0.00    -0.241 OA
ATOM      2  N   UNK A   0     -33.824  25.794   5.958  0.00  0.00    -0.047 NA
ATOM      3  N   UNK A   0     -33.258  27.751   4.903  0.00  0.00    -0.047 NA
ATOM      4  C   UNK A   0     -35.655  25.107   4.427  0.00  0.00    +0.068 C 
ATOM      5  C   UNK A   0     -34.625  25.943   4.895  0.00  0.00    +0.158 A 
ATOM      6  C   UNK A   0     -34.265  27.187   4.225  0.00  0.00    +0.167 A 
ATOM      7  C   UNK A   0     -36.299  25.573   3.266  0.00  0.00    +0.018 C 
ATOM      8  C   UNK A   0     -34.923  27.634   3.064  0.00  0.00    +0.165 C 
ATOM      9  C   UNK A   0     -35.949  26.783   2.614  0.00  0.00    +0.027 C 
ENDROOT
BRANCH   8  12
ATOM     10  O   UNK A   0     -35.022  29.929   2.854  0.00  0.00    -0.126 OA
ATOM     11  O   UNK A   0     -33.805  28.799   1.418  0.00  0.00    -0.126 OA
ATOM     12  N   UNK A   0     -34.569  28.839   2.418  0.00  0.00    +0.059 N 
ENDBRANCH   8  12
BRANCH   4  13
ATOM     13  N   ALA A   1     -36.033  23.904   5.041  0.00  0.00    -0.324 N 
ATOM     14  H   ALA A   1     -36.893  23.873   5.519  0.00  0.00    +0.147 HD
BRANCH  13  15
ATOM     15  CA  ALA A   1     -35.227  22.717   5.005  0.00  0.00    +0.169 C 
ATOM     16  CB  ALA A   1     -35.191  22.061   6.375  0.00  0.00    +0.033 C 
BRANCH  15  18
ATOM     17  OXT ALA A   1     -35.188  20.710   3.673  0.00  0.00    -0.248 OA
ATOM     18  C   ALA A   1     -35.762  21.749   3.976  0.00  0.00    +0.332 C 
BRANCH  18  19
ATOM     19  O   ALA A   1     -36.964  22.101   3.456  0.00  0.00    -0.479 OA
ATOM     20  H   ALA A   1     -37.722  22.126   4.005  0.00  0.00    +0.295 HD
ENDBRANCH  18  19
ENDBRANCH  15  18
ENDBRANCH  13  15
ENDBRANCH   4  13
TORSDOF 5
ENDMDL
MODEL 5
REMARK VINA RESULT:      -5.4      3.694      6.700
REMARK  Name = 5492567
REMARK  5 active torsions:
REMARK  status: ('A' for Active; 'I' for Inactive)
REMARK    1  A    between atoms: C_4  and  N_13
REMARK    2  A    between atoms: C_8  and  N_12
REMARK    3  A    between atoms: N_13  and  CA_15
REMARK    4  A    between atoms: CA_15  and  C_18
REMARK    5  A    between atoms: C_18  and  O_19
REMARK                            x       y       z     vdW  Elec       q    Type
REMARK                         _______ _______ _______ _____ _____    ______ ____
ROOT
ATOM      1  O   UNK A   0     -35.349  21.776   6.557  0.00  0.00    -0.241 OA
ATOM      2  N   UNK A   0     -35.508  21.058   5.383  0.00  0.00    -0.047 NA
ATOM      3  N   UNK A   0     -35.082  23.112   6.312  0.00  0.00    -0.047 NA
ATOM      4  C   UNK A   0     -35.399  21.740   2.998  0.00  0.00    +0.068 C 
ATOM      5  C   UNK A   0     -35.342  21.940   4.390  0.00  0.00    +0.158 A 
ATOM      6  C   UNK A   0     -35.073  23.245   4.979  0.00  0.00    +0.167 A 
ATOM      7  C   UNK A   0     -35.174  22.900   2.234  0.00  0.00    +0.018 C 
ATOM      8  C   UNK A   0     -34.850  24.393   4.197  0.00  0.00    +0.165 C 
ATOM      9  C   UNK A   0     -34.911  24.171   2.809  0.00  0.00    +0.027 C 
ENDROOT
BRANCH   8  12
ATOM     10  O   UNK A   0     -35.549  26.390   5.114  0.00  0.00    -0.126 OA
ATOM     11  O   UNK A   0     -33.393  26.020   4.937  0.00  0.00    -0.126 OA
ATOM     12  N   UNK A   0     -34.587  25.655   4.774  0.00  0.00    +0.059 N 
ENDBRANCH   8  12
BRANCH   4  13
ATOM     13  N   ALA A   1     -35.656  20.503   2.390  0.00  0.00    -0.324 N 
ATOM     14  H   ALA A   1     -36.316  19.903   2.808  0.00  0.00    +0.147 HD
BRANCH  13  15
ATOM     15  CA  ALA A   1     -35.005  20.068   1.188  0.00  0.00    +0.169 C 
ATOM     16  CB  ALA A   1     -33.740  19.295   1.521  0.00  0.00    +0.033 C 
BRANCH  15  18
ATOM     17  OXT ALA A   1     -35.720  18.919  -0.806  0.00  0.00    -0.248 OA
ATOM     18  C   ALA A   1     -35.938  19.212   0.363  0.00  0.00    +0.332 C 
BRANCH  18  19
ATOM     19  O   ALA A   1     -37.013  18.747   1.047  0.00  0.00    -0.479 OA
ATOM     20  H   ALA A   1     -37.776  18.464   0.583  0.00  0.00    +0.295 HD
ENDBRANCH  18  19
ENDBRANCH  15  18
ENDBRANCH  13  15
ENDBRANCH   4  13
TORSDOF 5
ENDMDL
MODEL 6
REMARK VINA RESULT:      -5.4      2.631      5.762
REMARK  Name = 5492567
REMARK  5 active torsions:
REMARK  status: ('A' for Active; 'I' for Inactive)
REMARK    1  A    between atoms: C_4  and  N_13
REMARK    2  A    between atoms: C_8  and  N_12
REMARK    3  A    between atoms: N_13  and  CA_15
REMARK    4  A    between atoms: CA_15  and  C_18
REMARK    5  A    between atoms: C_18  and  O_19
REMARK                            x       y       z     vdW  Elec       q    Type
REMARK                         _______ _______ _______ _____ _____    ______ ____
ROOT
ATOM      1  O   UNK A   0     -35.156  22.360   5.400  0.00  0.00    -0.241 OA
ATOM      2  N   UNK A   0     -36.342  22.494   4.699  0.00  0.00    -0.047 NA
ATOM      3  N   UNK A   0     -34.429  23.538   5.415  0.00  0.00    -0.047 NA
ATOM      4  C   UNK A   0     -37.349  24.424   3.505  0.00  0.00    +0.068 C 
ATOM      5  C   UNK A   0     -36.370  23.761   4.267  0.00  0.00    +0.158 A 
ATOM      6  C   UNK A   0     -35.155  24.424   4.722  0.00  0.00    +0.167 A 
ATOM      7  C   UNK A   0     -37.054  25.772   3.224  0.00  0.00    +0.018 C 
ATOM      8  C   UNK A   0     -34.878  25.773   4.430  0.00  0.00    +0.165 C 
ATOM      9  C   UNK A   0     -35.870  26.417   3.668  0.00  0.00    +0.027 C 
ENDROOT
BRANCH   8  12
ATOM     10  O   UNK A   0     -32.750  26.582   4.063  0.00  0.00    -0.126 OA
ATOM     11  O   UNK A   0     -33.617  26.794   6.068  0.00  0.00    -0.126 OA
ATOM     12  N   UNK A   0     -33.698  26.410   4.872  0.00  0.00    +0.059 N 
ENDBRANCH   8  12
BRANCH   4  13
ATOM     13  N   ALA A   1     -38.532  23.825   3.048  0.00  0.00    -0.324 N 
ATOM     14  H   ALA A   1     -39.342  23.903   3.602  0.00  0.00    +0.147 HD
BRANCH  13  15
ATOM     15  CA  ALA A   1     -38.618  23.102   1.811  0.00  0.00    +0.169 C 
ATOM     16  CB  ALA A   1     -37.297  23.171   1.064  0.00  0.00    +0.033 C 
BRANCH  15  18
ATOM     17  OXT ALA A   1     -40.135  21.232   1.905  0.00  0.00    -0.248 OA
ATOM     18  C   ALA A   1     -39.000  21.663   2.067  0.00  0.00    +0.332 C 
BRANCH  18  19
ATOM     19  O   ALA A   1     -37.962  20.873   2.439  0.00  0.00    -0.479 OA
ATOM     20  H   ALA A   1     -37.365  20.551   1.793  0.00  0.00    +0.295 HD
ENDBRANCH  18  19
ENDBRANCH  15  18
ENDBRANCH  13  15
ENDBRANCH   4  13
TORSDOF 5
ENDMDL
MODEL 7
REMARK VINA RESULT:      -5.3      1.933      6.287
REMARK  Name = 5492567
REMARK  5 active torsions:
REMARK  status: ('A' for Active; 'I' for Inactive)
REMARK    1  A    between atoms: C_4  and  N_13
REMARK    2  A    between atoms: C_8  and  N_12
REMARK    3  A    between atoms: N_13  and  CA_15
REMARK    4  A    between atoms: CA_15  and  C_18
REMARK    5  A    between atoms: C_18  and  O_19
REMARK                            x       y       z     vdW  Elec       q    Type
REMARK                         _______ _______ _______ _____ _____    ______ ____
ROOT
ATOM      1  O   UNK A   0     -33.665  27.567   4.900  0.00  0.00    -0.241 OA
ATOM      2  N   UNK A   0     -34.360  26.396   5.153  0.00  0.00    -0.047 NA
ATOM      3  N   UNK A   0     -34.144  28.218   3.776  0.00  0.00    -0.047 NA
ATOM      4  C   UNK A   0     -36.254  25.307   3.973  0.00  0.00    +0.068 C 
ATOM      5  C   UNK A   0     -35.283  26.303   4.188  0.00  0.00    +0.158 A 
ATOM      6  C   UNK A   0     -35.146  27.461   3.313  0.00  0.00    +0.167 A 
ATOM      7  C   UNK A   0     -37.071  25.526   2.848  0.00  0.00    +0.018 C 
ATOM      8  C   UNK A   0     -35.975  27.661   2.194  0.00  0.00    +0.165 C 
ATOM      9  C   UNK A   0     -36.937  26.654   1.997  0.00  0.00    +0.027 C 
ENDROOT
BRANCH   8  12
ATOM     10  O   UNK A   0     -36.611  29.764   1.493  0.00  0.00    -0.126 OA
ATOM     11  O   UNK A   0     -34.938  28.781   0.466  0.00  0.00    -0.126 OA
ATOM     12  N   UNK A   0     -35.836  28.783   1.348  0.00  0.00    +0.059 N 
ENDBRANCH   8  12
BRANCH   4  13
ATOM     13  N   ALA A   1     -36.420  24.180   4.789  0.00  0.00    -0.324 N 
ATOM     14  H   ALA A   1     -37.218  24.131   5.364  0.00  0.00    +0.147 HD
BRANCH  13  15
ATOM     15  CA  ALA A   1     -35.484  23.093   4.827  0.00  0.00    +0.169 C 
ATOM     16  CB  ALA A   1     -35.333  22.573   6.247  0.00  0.00    +0.033 C 
BRANCH  15  18
ATOM     17  OXT ALA A   1     -36.646  22.166   2.931  0.00  0.00    -0.248 OA
ATOM     18  C   ALA A   1     -35.931  21.980   3.908  0.00  0.00    +0.332 C 
BRANCH  18  19
ATOM     19  O   ALA A   1     -35.426  20.762   4.225  0.00  0.00    -0.479 OA
ATOM     20  H   ALA A   1     -34.584  20.507   3.903  0.00  0.00    +0.295 HD
ENDBRANCH  18  19
ENDBRANCH  15  18
ENDBRANCH  13  15
ENDBRANCH   4  13
TORSDOF 5
ENDMDL
MODEL 8
REMARK VINA RESULT:      -5.3      1.841      2.550
REMARK  Name = 5492567
REMARK  5 active torsions:
REMARK  status: ('A' for Active; 'I' for Inactive)
REMARK    1  A    between atoms: C_4  and  N_13
REMARK    2  A    between atoms: C_8  and  N_12
REMARK    3  A    between atoms: N_13  and  CA_15
REMARK    4  A    between atoms: CA_15  and  C_18
REMARK    5  A    between atoms: C_18  and  O_19
REMARK                            x       y       z     vdW  Elec       q    Type
REMARK                         _______ _______ _______ _____ _____    ______ ____
ROOT
ATOM      1  O   UNK A   0     -34.481  26.296   5.805  0.00  0.00    -0.241 OA
ATOM      2  N   UNK A   0     -35.198  26.840   4.753  0.00  0.00    -0.047 NA
ATOM      3  N   UNK A   0     -34.662  24.926   5.899  0.00  0.00    -0.047 NA
ATOM      4  C   UNK A   0     -36.701  25.810   3.066  0.00  0.00    +0.068 C 
ATOM      5  C   UNK A   0     -35.837  25.814   4.176  0.00  0.00    +0.158 A 
ATOM      6  C   UNK A   0     -35.496  24.599   4.904  0.00  0.00    +0.167 A 
ATOM      7  C   UNK A   0     -37.203  24.540   2.725  0.00  0.00    +0.018 C 
ATOM      8  C   UNK A   0     -36.009  23.338   4.546  0.00  0.00    +0.165 C 
ATOM      9  C   UNK A   0     -36.871  23.357   3.434  0.00  0.00    +0.027 C 
ENDROOT
BRANCH   8  12
ATOM     10  O   UNK A   0     -35.941  22.091   6.485  0.00  0.00    -0.126 OA
ATOM     11  O   UNK A   0     -35.126  21.211   4.647  0.00  0.00    -0.126 OA
ATOM     12  N   UNK A   0     -35.678  22.163   5.256  0.00  0.00    +0.059 N 
ENDBRANCH   8  12
BRANCH   4  13
ATOM     13  N   ALA A   1     -37.054  26.956   2.338  0.00  0.00    -0.324 N 
ATOM     14  H   ALA A   1     -37.977  27.291   2.410  0.00  0.00    +0.147 HD
BRANCH  13  15
ATOM     15  CA  ALA A   1     -36.134  27.664   1.494  0.00  0.00    +0.169 C 
ATOM     16  CB  ALA A   1     -36.591  27.604   0.046  0.00  0.00    +0.033 C 
BRANCH  15  18
ATOM     17  OXT ALA A   1     -36.566  30.032   1.375  0.00  0.00    -0.248 OA
ATOM     18  C   ALA A   1     -36.007  29.101   1.943  0.00  0.00    +0.332 C 
BRANCH  18  19
ATOM     19  O   ALA A   1     -35.267  29.267   3.067  0.00  0.00    -0.479 OA
ATOM     20  H   ALA A   1     -35.059  28.528   3.604  0.00  0.00    +0.295 HD
ENDBRANCH  18  19
ENDBRANCH  15  18
ENDBRANCH  13  15
ENDBRANCH   4  13
TORSDOF 5
ENDMDL
MODEL 9
REMARK VINA RESULT:      -5.2      2.347      6.034
REMARK  Name = 5492567
REMARK  5 active torsions:
REMARK  status: ('A' for Active; 'I' for Inactive)
REMARK    1  A    between atoms: C_4  and  N_13
REMARK    2  A    between atoms: C_8  and  N_12
REMARK    3  A    between atoms: N_13  and  CA_15
REMARK    4  A    between atoms: CA_15  and  C_18
REMARK    5  A    between atoms: C_18  and  O_19
REMARK                            x       y       z     vdW  Elec       q    Type
REMARK                         _______ _______ _______ _____ _____    ______ ____
ROOT
ATOM      1  O   UNK A   0     -34.096  26.511   1.696  0.00  0.00    -0.241 OA
ATOM      2  N   UNK A   0     -34.755  25.581   2.483  0.00  0.00    -0.047 NA
ATOM      3  N   UNK A   0     -33.315  27.367   2.454  0.00  0.00    -0.047 NA
ATOM      4  C   UNK A   0     -34.772  25.204   4.937  0.00  0.00    +0.068 C 
ATOM      5  C   UNK A   0     -34.393  25.847   3.744  0.00  0.00    +0.158 A 
ATOM      6  C   UNK A   0     -33.478  26.981   3.726  0.00  0.00    +0.167 A 
ATOM      7  C   UNK A   0     -34.196  25.750   6.099  0.00  0.00    +0.018 C 
ATOM      8  C   UNK A   0     -32.912  27.511   4.901  0.00  0.00    +0.165 C 
ATOM      9  C   UNK A   0     -33.305  26.854   6.081  0.00  0.00    +0.027 C 
ENDROOT
BRANCH   8  12
ATOM     10  O   UNK A   0     -32.493  29.778   4.966  0.00  0.00    -0.126 OA
ATOM     11  O   UNK A   0     -30.791  28.405   4.770  0.00  0.00    -0.126 OA
ATOM     12  N   UNK A   0     -32.028  28.612   4.877  0.00  0.00    +0.059 N 
ENDBRANCH   8  12
BRANCH   4  13
ATOM     13  N   ALA A   1     -35.648  24.111   4.999  0.00  0.00    -0.324 N 
ATOM     14  H   ALA A   1     -36.615  24.288   5.065  0.00  0.00    +0.147 HD
BRANCH  13  15
ATOM     15  CA  ALA A   1     -35.204  22.747   4.970  0.00  0.00    +0.169 C 
ATOM     16  CB  ALA A   1     -35.470  22.075   6.307  0.00  0.00    +0.033 C 
BRANCH  15  18
ATOM     17  OXT ALA A   1     -36.626  22.532   3.036  0.00  0.00    -0.248 OA
ATOM     18  C   ALA A   1     -35.897  21.992   3.859  0.00  0.00    +0.332 C 
BRANCH  18  19
ATOM     19  O   ALA A   1     -35.595  20.670   3.815  0.00  0.00    -0.479 OA
ATOM     20  H   ALA A   1     -34.904  20.366   3.261  0.00  0.00    +0.295 HD
ENDBRANCH  18  19
ENDBRANCH  15  18
ENDBRANCH  13  15
ENDBRANCH   4  13
TORSDOF 5
ENDMDL
