MODEL 1
REMARK VINA RESULT:      -6.2      0.000      0.000
REMARK  Name = 21580418
REMARK  4 active torsions:
REMARK  status: ('A' for Active; 'I' for Inactive)
REMARK    1  A    between atoms: C_7  and  C_33
REMARK    2  A    between atoms: C_13  and  O_28
REMARK    3  A    between atoms: C_20  and  O_30
REMARK    4  A    between atoms: C_33  and  O_34
REMARK                            x       y       z     vdW  Elec       q    Type
REMARK                         _______ _______ _______ _____ _____    ______ ____
ROOT
ATOM      1  O   UNL     1     -33.288  25.503   3.553  0.00  0.00    -0.292 OA
ATOM      2  O   UNL     1     -37.816  24.750   4.500  0.00  0.00    -0.293 OA
ATOM      3  O   UNL     1     -35.552  18.276  -0.595  0.00  0.00    -0.296 OA
ATOM      4  C   UNL     1     -34.776  24.533   0.826  0.00  0.00    +0.024 C 
ATOM      5  C   UNL     1     -35.786  23.482   1.415  0.00  0.00    +0.008 C 
ATOM      6  C   UNL     1     -35.763  22.035   0.736  0.00  0.00    +0.040 C 
ATOM      7  C   UNL     1     -34.825  25.859   1.709  0.00  0.00    +0.159 C 
ATOM      8  C   UNL     1     -37.210  24.084   1.527  0.00  0.00    +0.011 C 
ATOM      9  C   UNL     1     -37.282  25.447   2.256  0.00  0.00    +0.070 C 
ATOM     10  C   UNL     1     -33.365  23.894   0.840  0.00  0.00    +0.027 C 
ATOM     11  C   UNL     1     -34.350  21.619   0.299  0.00  0.00    -0.041 C 
ATOM     12  C   UNL     1     -36.247  26.427   1.704  0.00  0.00    -0.022 C 
ATOM     13  C   UNL     1     -36.200  20.977   1.802  0.00  0.00    +0.121 C 
ATOM     14  C   UNL     1     -35.116  24.868  -0.659  0.00  0.00    +0.002 C 
ATOM     15  C   UNL     1     -34.104  20.157  -0.114  0.00  0.00    +0.066 C 
ATOM     16  C   UNL     1     -34.470  25.604   3.201  0.00  0.00    +0.194 C 
ATOM     17  C   UNL     1     -33.312  22.477   0.362  0.00  0.00    -0.034 C 
ATOM     18  C   UNL     1     -36.754  21.966  -0.458  0.00  0.00    +0.006 C 
ATOM     19  C   UNL     1     -36.963  25.215   3.737  0.00  0.00    +0.184 C 
ATOM     20  C   UNL     1     -35.576  25.565   4.249  0.00  0.00    +0.191 C 
ATOM     21  C   UNL     1     -36.262  19.546   1.276  0.00  0.00    +0.094 C 
ATOM     22  C   UNL     1     -38.743  25.946   2.171  0.00  0.00    +0.012 C 
ATOM     23  C   UNL     1     -35.338  19.268   0.110  0.00  0.00    +0.156 C 
ATOM     24  C   UNL     1     -36.559  27.661   1.264  0.00  0.00    -0.008 C 
ATOM     25  C   UNL     1     -32.977  19.500   0.712  0.00  0.00    +0.011 C 
ATOM     26  C   UNL     1     -33.730  20.106  -1.610  0.00  0.00    +0.011 C 
ATOM     27  C   UNL     1     -35.190  24.640   5.406  0.00  0.00    +0.045 C 
ENDROOT
BRANCH  13  28
ATOM     28  O   UNL     1     -35.310  21.010   2.925  0.00  0.00    -0.384 OA
ATOM     29  H   UNL     1     -34.915  20.133   3.050  0.00  0.00    +0.210 HD
ENDBRANCH  13  28
BRANCH  20  30
ATOM     30  O   UNL     1     -35.704  26.898   4.729  0.00  0.00    -0.373 OA
ATOM     31  H   UNL     1     -34.996  27.081   5.367  0.00  0.00    +0.211 HD
ENDBRANCH  20  30
BRANCH   7  33
ATOM     32  O   UNL     1     -33.329  26.890   0.090  0.00  0.00    -0.249 OA
ATOM     33  C   UNL     1     -33.825  26.900   1.208  0.00  0.00    +0.326 C 
BRANCH  33  34
ATOM     34  O   UNL     1     -33.587  27.813   2.193  0.00  0.00    -0.444 OA
ATOM     35  C   UNL     1     -32.917  29.007   1.774  0.00  0.00    +0.256 C 
ENDBRANCH  33  34
ENDBRANCH   7  33
TORSDOF 4
ENDMDL
MODEL 2
REMARK VINA RESULT:      -5.9      2.422      4.579
REMARK  Name = 21580418
REMARK  4 active torsions:
REMARK  status: ('A' for Active; 'I' for Inactive)
REMARK    1  A    between atoms: C_7  and  C_33
REMARK    2  A    between atoms: C_13  and  O_28
REMARK    3  A    between atoms: C_20  and  O_30
REMARK    4  A    between atoms: C_33  and  O_34
REMARK                            x       y       z     vdW  Elec       q    Type
REMARK                         _______ _______ _______ _____ _____    ______ ____
ROOT
ATOM      1  O   UNL     1     -38.396  23.288   3.368  0.00  0.00    -0.292 OA
ATOM      2  O   UNL     1     -37.035  27.516   1.873  0.00  0.00    -0.293 OA
ATOM      3  O   UNL     1     -36.787  22.563  -5.084  0.00  0.00    -0.296 OA
ATOM      4  C   UNL     1     -35.904  22.913   1.309  0.00  0.00    +0.024 C 
ATOM      5  C   UNL     1     -36.225  24.049   0.270  0.00  0.00    +0.008 C 
ATOM      6  C   UNL     1     -36.267  23.602  -1.263  0.00  0.00    +0.040 C 
ATOM      7  C   UNL     1     -36.049  23.496   2.786  0.00  0.00    +0.159 C 
ATOM      8  C   UNL     1     -35.337  25.295   0.521  0.00  0.00    +0.011 C 
ATOM      9  C   UNL     1     -35.338  25.809   1.981  0.00  0.00    +0.070 C 
ATOM     10  C   UNL     1     -36.895  21.749   1.058  0.00  0.00    +0.027 C 
ATOM     11  C   UNL     1     -36.830  22.183  -1.441  0.00  0.00    -0.041 C 
ATOM     12  C   UNL     1     -35.087  24.672   2.970  0.00  0.00    -0.022 C 
ATOM     13  C   UNL     1     -37.253  24.543  -2.030  0.00  0.00    +0.121 C 
ATOM     14  C   UNL     1     -34.466  22.347   1.098  0.00  0.00    +0.002 C 
ATOM     15  C   UNL     1     -37.198  21.705  -2.856  0.00  0.00    +0.066 C 
ATOM     16  C   UNL     1     -37.471  24.055   3.076  0.00  0.00    +0.194 C 
ATOM     17  C   UNL     1     -37.095  21.393  -0.381  0.00  0.00    -0.034 C 
ATOM     18  C   UNL     1     -34.863  23.725  -1.918  0.00  0.00    +0.006 C 
ATOM     19  C   UNL     1     -36.723  26.393   2.280  0.00  0.00    +0.184 C 
ATOM     20  C   UNL     1     -37.707  25.561   3.086  0.00  0.00    +0.191 C 
ATOM     21  C   UNL     1     -37.362  24.252  -3.524  0.00  0.00    +0.094 C 
ATOM     22  C   UNL     1     -34.319  26.970   2.068  0.00  0.00    +0.012 C 
ATOM     23  C   UNL     1     -37.060  22.819  -3.907  0.00  0.00    +0.156 C 
ATOM     24  C   UNL     1     -34.119  24.708   3.907  0.00  0.00    -0.008 C 
ATOM     25  C   UNL     1     -38.667  21.240  -2.951  0.00  0.00    +0.011 C 
ATOM     26  C   UNL     1     -36.271  20.538  -3.258  0.00  0.00    +0.011 C 
ATOM     27  C   UNL     1     -39.143  25.885   2.666  0.00  0.00    +0.045 C 
ENDROOT
BRANCH  13  28
ATOM     28  O   UNL     1     -38.563  24.460  -1.455  0.00  0.00    -0.384 OA
ATOM     29  H   UNL     1     -38.739  25.260  -0.935  0.00  0.00    +0.210 HD
ENDBRANCH  13  28
BRANCH  20  30
ATOM     30  O   UNL     1     -37.501  25.977   4.431  0.00  0.00    -0.373 OA
ATOM     31  H   UNL     1     -36.707  25.545   4.785  0.00  0.00    +0.211 HD
ENDBRANCH  20  30
BRANCH   7  33
ATOM     32  O   UNL     1     -35.358  21.304   3.586  0.00  0.00    -0.249 OA
ATOM     33  C   UNL     1     -35.796  22.419   3.838  0.00  0.00    +0.326 C 
BRANCH  33  34
ATOM     34  O   UNL     1     -36.132  22.897   5.070  0.00  0.00    -0.444 OA
ATOM     35  C   UNL     1     -35.530  22.219   6.177  0.00  0.00    +0.256 C 
ENDBRANCH  33  34
ENDBRANCH   7  33
TORSDOF 4
ENDMDL
MODEL 3
REMARK VINA RESULT:      -5.8      2.949      5.432
REMARK  Name = 21580418
REMARK  4 active torsions:
REMARK  status: ('A' for Active; 'I' for Inactive)
REMARK    1  A    between atoms: C_7  and  C_33
REMARK    2  A    between atoms: C_13  and  O_28
REMARK    3  A    between atoms: C_20  and  O_30
REMARK    4  A    between atoms: C_33  and  O_34
REMARK                            x       y       z     vdW  Elec       q    Type
REMARK                         _______ _______ _______ _____ _____    ______ ____
ROOT
ATOM      1  O   UNL     1     -29.995  27.209   3.384  0.00  0.00    -0.292 OA
ATOM      2  O   UNL     1     -32.682  30.478   5.399  0.00  0.00    -0.293 OA
ATOM      3  O   UNL     1     -38.002  24.000   3.750  0.00  0.00    -0.296 OA
ATOM      4  C   UNL     1     -32.832  27.349   1.797  0.00  0.00    +0.024 C 
ATOM      5  C   UNL     1     -33.813  27.615   2.996  0.00  0.00    +0.008 C 
ATOM      6  C   UNL     1     -35.061  26.624   3.110  0.00  0.00    +0.040 C 
ATOM      7  C   UNL     1     -31.577  28.324   1.919  0.00  0.00    +0.159 C 
ATOM      8  C   UNL     1     -34.211  29.112   3.065  0.00  0.00    +0.011 C 
ATOM      9  C   UNL     1     -33.021  30.101   3.042  0.00  0.00    +0.070 C 
ATOM     10  C   UNL     1     -32.404  25.862   1.855  0.00  0.00    +0.027 C 
ATOM     11  C   UNL     1     -34.710  25.193   2.675  0.00  0.00    -0.041 C 
ATOM     12  C   UNL     1     -32.052  29.779   1.905  0.00  0.00    -0.022 C 
ATOM     13  C   UNL     1     -35.475  26.514   4.615  0.00  0.00    +0.121 C 
ATOM     14  C   UNL     1     -33.546  27.570   0.427  0.00  0.00    +0.002 C 
ATOM     15  C   UNL     1     -35.706  24.061   2.983  0.00  0.00    +0.066 C 
ATOM     16  C   UNL     1     -30.799  28.140   3.254  0.00  0.00    +0.194 C 
ATOM     17  C   UNL     1     -33.516  24.898   2.122  0.00  0.00    -0.034 C 
ATOM     18  C   UNL     1     -36.276  27.164   2.306  0.00  0.00    +0.006 C 
ATOM     19  C   UNL     1     -32.255  29.958   4.363  0.00  0.00    +0.184 C 
ATOM     20  C   UNL     1     -30.962  29.160   4.374  0.00  0.00    +0.191 C 
ATOM     21  C   UNL     1     -36.687  25.624   4.868  0.00  0.00    +0.094 C 
ATOM     22  C   UNL     1     -33.604  31.533   3.000  0.00  0.00    +0.012 C 
ATOM     23  C   UNL     1     -36.894  24.539   3.833  0.00  0.00    +0.156 C 
ATOM     24  C   UNL     1     -31.661  30.687   0.989  0.00  0.00    -0.008 C 
ATOM     25  C   UNL     1     -35.058  22.921   3.798  0.00  0.00    +0.011 C 
ATOM     26  C   UNL     1     -36.252  23.488   1.658  0.00  0.00    +0.011 C 
ATOM     27  C   UNL     1     -30.761  28.499   5.740  0.00  0.00    +0.045 C 
ENDROOT
BRANCH  13  28
ATOM     28  O   UNL     1     -34.378  26.020   5.394  0.00  0.00    -0.384 OA
ATOM     29  H   UNL     1     -34.393  25.051   5.395  0.00  0.00    +0.210 HD
ENDBRANCH  13  28
BRANCH  20  30
ATOM     30  O   UNL     1     -29.946  30.134   4.164  0.00  0.00    -0.373 OA
ATOM     31  H   UNL     1     -29.085  29.762   4.413  0.00  0.00    +0.211 HD
ENDBRANCH  20  30
BRANCH   7  33
ATOM     32  O   UNL     1     -30.837  27.530  -0.259  0.00  0.00    -0.249 OA
ATOM     33  C   UNL     1     -30.565  28.074   0.803  0.00  0.00    +0.326 C 
BRANCH  33  34
ATOM     34  O   UNL     1     -29.343  28.546   1.181  0.00  0.00    -0.444 OA
ATOM     35  C   UNL     1     -28.441  28.844   0.110  0.00  0.00    +0.256 C 
ENDBRANCH  33  34
ENDBRANCH   7  33
TORSDOF 4
ENDMDL
MODEL 4
REMARK VINA RESULT:      -5.8     15.401     17.776
REMARK  Name = 21580418
REMARK  4 active torsions:
REMARK  status: ('A' for Active; 'I' for Inactive)
REMARK    1  A    between atoms: C_7  and  C_33
REMARK    2  A    between atoms: C_13  and  O_28
REMARK    3  A    between atoms: C_20  and  O_30
REMARK    4  A    between atoms: C_33  and  O_34
REMARK                            x       y       z     vdW  Elec       q    Type
REMARK                         _______ _______ _______ _____ _____    ______ ____
ROOT
ATOM      1  O   UNL     1     -31.092  38.823   6.086  0.00  0.00    -0.292 OA
ATOM      2  O   UNL     1     -30.993  43.506   5.893  0.00  0.00    -0.293 OA
ATOM      3  O   UNL     1     -34.689  41.101  -1.425  0.00  0.00    -0.296 OA
ATOM      4  C   UNL     1     -30.258  39.725   3.073  0.00  0.00    +0.024 C 
ATOM      5  C   UNL     1     -31.159  41.001   2.901  0.00  0.00    +0.008 C 
ATOM      6  C   UNL     1     -32.073  41.040   1.591  0.00  0.00    +0.040 C 
ATOM      7  C   UNL     1     -29.533  39.781   4.492  0.00  0.00    +0.159 C 
ATOM      8  C   UNL     1     -30.332  42.296   3.110  0.00  0.00    +0.011 C 
ATOM      9  C   UNL     1     -29.498  42.330   4.413  0.00  0.00    +0.070 C 
ATOM     10  C   UNL     1     -31.171  38.480   2.951  0.00  0.00    +0.027 C 
ATOM     11  C   UNL     1     -32.589  39.646   1.199  0.00  0.00    -0.041 C 
ATOM     12  C   UNL     1     -28.681  41.049   4.583  0.00  0.00    -0.022 C 
ATOM     13  C   UNL     1     -33.351  41.888   1.899  0.00  0.00    +0.121 C 
ATOM     14  C   UNL     1     -29.195  39.630   1.935  0.00  0.00    +0.002 C 
ATOM     15  C   UNL     1     -33.698  39.539   0.138  0.00  0.00    +0.066 C 
ATOM     16  C   UNL     1     -30.536  39.850   5.679  0.00  0.00    +0.194 C 
ATOM     17  C   UNL     1     -32.161  38.535   1.831  0.00  0.00    -0.034 C 
ATOM     18  C   UNL     1     -31.319  41.703   0.405  0.00  0.00    +0.006 C 
ATOM     19  C   UNL     1     -30.467  42.428   5.597  0.00  0.00    +0.184 C 
ATOM     20  C   UNL     1     -30.769  41.173   6.399  0.00  0.00    +0.191 C 
ATOM     21  C   UNL     1     -34.301  42.042   0.715  0.00  0.00    +0.094 C 
ATOM     22  C   UNL     1     -28.657  43.628   4.396  0.00  0.00    +0.012 C 
ATOM     23  C   UNL     1     -34.233  40.915  -0.292  0.00  0.00    +0.156 C 
ATOM     24  C   UNL     1     -27.351  41.045   4.795  0.00  0.00    -0.008 C 
ATOM     25  C   UNL     1     -34.930  38.770   0.658  0.00  0.00    +0.011 C 
ATOM     26  C   UNL     1     -33.142  38.819  -1.110  0.00  0.00    +0.011 C 
ATOM     27  C   UNL     1     -32.190  41.236   6.964  0.00  0.00    +0.045 C 
ENDROOT
BRANCH  13  28
ATOM     28  O   UNL     1     -34.077  41.309   2.991  0.00  0.00    -0.384 OA
ATOM     29  H   UNL     1     -34.025  40.342   2.938  0.00  0.00    +0.210 HD
ENDBRANCH  13  28
BRANCH  20  30
ATOM     30  O   UNL     1     -29.831  41.204   7.467  0.00  0.00    -0.373 OA
ATOM     31  H   UNL     1     -29.160  40.516   7.329  0.00  0.00    +0.211 HD
ENDBRANCH  20  30
BRANCH   7  33
ATOM     32  O   UNL     1     -28.141  37.894   3.841  0.00  0.00    -0.249 OA
ATOM     33  C   UNL     1     -28.680  38.538   4.732  0.00  0.00    +0.326 C 
BRANCH  33  34
ATOM     34  O   UNL     1     -28.624  38.274   6.068  0.00  0.00    -0.444 OA
ATOM     35  C   UNL     1     -27.422  37.641   6.520  0.00  0.00    +0.256 C 
ENDBRANCH  33  34
ENDBRANCH   7  33
TORSDOF 4
ENDMDL
MODEL 5
REMARK VINA RESULT:      -5.7      1.741      2.983
REMARK  Name = 21580418
REMARK  4 active torsions:
REMARK  status: ('A' for Active; 'I' for Inactive)
REMARK    1  A    between atoms: C_7  and  C_33
REMARK    2  A    between atoms: C_13  and  O_28
REMARK    3  A    between atoms: C_20  and  O_30
REMARK    4  A    between atoms: C_33  and  O_34
REMARK                            x       y       z     vdW  Elec       q    Type
REMARK                         _______ _______ _______ _____ _____    ______ ____
ROOT
ATOM      1  O   UNL     1     -37.252  23.766   4.201  0.00  0.00    -0.292 OA
ATOM      2  O   UNL     1     -39.579  25.965   0.778  0.00  0.00    -0.293 OA
ATOM      3  O   UNL     1     -35.899  19.270  -3.045  0.00  0.00    -0.296 OA
ATOM      4  C   UNL     1     -35.390  23.803   1.532  0.00  0.00    +0.024 C 
ATOM      5  C   UNL     1     -36.486  23.609   0.422  0.00  0.00    +0.008 C 
ATOM      6  C   UNL     1     -36.223  22.424  -0.618  0.00  0.00    +0.040 C 
ATOM      7  C   UNL     1     -35.880  24.917   2.563  0.00  0.00    +0.159 C 
ATOM      8  C   UNL     1     -36.830  24.958  -0.260  0.00  0.00    +0.011 C 
ATOM      9  C   UNL     1     -37.174  26.109   0.716  0.00  0.00    +0.070 C 
ATOM     10  C   UNL     1     -35.176  22.438   2.231  0.00  0.00    +0.027 C 
ATOM     11  C   UNL     1     -35.533  21.217   0.035  0.00  0.00    -0.041 C 
ATOM     12  C   UNL     1     -36.124  26.232   1.820  0.00  0.00    -0.022 C 
ATOM     13  C   UNL     1     -37.603  21.892  -1.128  0.00  0.00    +0.121 C 
ATOM     14  C   UNL     1     -34.024  24.220   0.907  0.00  0.00    +0.002 C 
ATOM     15  C   UNL     1     -35.459  19.894  -0.747  0.00  0.00    +0.066 C 
ATOM     16  C   UNL     1     -37.229  24.553   3.247  0.00  0.00    +0.194 C 
ATOM     17  C   UNL     1     -35.083  21.266   1.305  0.00  0.00    -0.034 C 
ATOM     18  C   UNL     1     -35.411  22.929  -1.843  0.00  0.00    +0.006 C 
ATOM     19  C   UNL     1     -38.517  25.785   1.382  0.00  0.00    +0.184 C 
ATOM     20  C   UNL     1     -38.515  25.235   2.799  0.00  0.00    +0.191 C 
ATOM     21  C   UNL     1     -37.502  20.777  -2.164  0.00  0.00    +0.094 C 
ATOM     22  C   UNL     1     -37.373  27.391  -0.125  0.00  0.00    +0.012 C 
ATOM     23  C   UNL     1     -36.237  19.951  -2.072  0.00  0.00    +0.156 C 
ATOM     24  C   UNL     1     -35.486  27.384   2.106  0.00  0.00    -0.008 C 
ATOM     25  C   UNL     1     -36.079  18.718   0.036  0.00  0.00    +0.011 C 
ATOM     26  C   UNL     1     -33.983  19.569  -1.061  0.00  0.00    +0.011 C 
ATOM     27  C   UNL     1     -39.717  24.311   3.008  0.00  0.00    +0.045 C 
ENDROOT
BRANCH  13  28
ATOM     28  O   UNL     1     -38.387  21.418  -0.026  0.00  0.00    -0.384 OA
ATOM     29  H   UNL     1     -37.853  21.437   0.783  0.00  0.00    +0.210 HD
ENDBRANCH  13  28
BRANCH  20  30
ATOM     30  O   UNL     1     -38.652  26.387   3.623  0.00  0.00    -0.373 OA
ATOM     31  H   UNL     1     -37.788  26.620   3.998  0.00  0.00    +0.211 HD
ENDBRANCH  20  30
BRANCH   7  33
ATOM     32  O   UNL     1     -33.682  24.841   3.604  0.00  0.00    -0.249 OA
ATOM     33  C   UNL     1     -34.872  25.112   3.693  0.00  0.00    +0.326 C 
BRANCH  33  34
ATOM     34  O   UNL     1     -35.506  25.624   4.786  0.00  0.00    -0.444 OA
ATOM     35  C   UNL     1     -34.652  26.005   5.870  0.00  0.00    +0.256 C 
ENDBRANCH  33  34
ENDBRANCH   7  33
TORSDOF 4
ENDMDL
MODEL 6
REMARK VINA RESULT:      -5.7      1.947      4.440
REMARK  Name = 21580418
REMARK  4 active torsions:
REMARK  status: ('A' for Active; 'I' for Inactive)
REMARK    1  A    between atoms: C_7  and  C_33
REMARK    2  A    between atoms: C_13  and  O_28
REMARK    3  A    between atoms: C_20  and  O_30
REMARK    4  A    between atoms: C_33  and  O_34
REMARK                            x       y       z     vdW  Elec       q    Type
REMARK                         _______ _______ _______ _____ _____    ______ ____
ROOT
ATOM      1  O   UNL     1     -38.101  25.363   3.299  0.00  0.00    -0.292 OA
ATOM      2  O   UNL     1     -34.805  26.940   0.363  0.00  0.00    -0.293 OA
ATOM      3  O   UNL     1     -37.212  19.420  -2.901  0.00  0.00    -0.296 OA
ATOM      4  C   UNL     1     -36.176  22.877   2.460  0.00  0.00    +0.024 C 
ATOM      5  C   UNL     1     -35.891  23.237   0.956  0.00  0.00    +0.008 C 
ATOM      6  C   UNL     1     -36.178  22.077  -0.105  0.00  0.00    +0.040 C 
ATOM      7  C   UNL     1     -35.982  24.180   3.357  0.00  0.00    +0.159 C 
ATOM      8  C   UNL     1     -34.490  23.881   0.797  0.00  0.00    +0.011 C 
ATOM      9  C   UNL     1     -34.207  25.064   1.753  0.00  0.00    +0.070 C 
ATOM     10  C   UNL     1     -37.624  22.335   2.551  0.00  0.00    +0.027 C 
ATOM     11  C   UNL     1     -37.386  21.212   0.288  0.00  0.00    -0.041 C 
ATOM     12  C   UNL     1     -34.554  24.706   3.198  0.00  0.00    -0.022 C 
ATOM     13  C   UNL     1     -36.562  22.736  -1.471  0.00  0.00    +0.121 C 
ATOM     14  C   UNL     1     -35.227  21.743   2.956  0.00  0.00    +0.002 C 
ATOM     15  C   UNL     1     -37.967  20.237  -0.750  0.00  0.00    +0.066 C 
ATOM     16  C   UNL     1     -36.919  25.348   2.935  0.00  0.00    +0.194 C 
ATOM     17  C   UNL     1     -37.999  21.361   1.480  0.00  0.00    -0.034 C 
ATOM     18  C   UNL     1     -34.916  21.197  -0.323  0.00  0.00    +0.006 C 
ATOM     19  C   UNL     1     -35.100  26.239   1.336  0.00  0.00    +0.184 C 
ATOM     20  C   UNL     1     -36.358  26.522   2.141  0.00  0.00    +0.191 C 
ATOM     21  C   UNL     1     -36.826  21.739  -2.595  0.00  0.00    +0.094 C 
ATOM     22  C   UNL     1     -32.740  25.501   1.536  0.00  0.00    +0.012 C 
ATOM     23  C   UNL     1     -37.299  20.379  -2.128  0.00  0.00    +0.156 C 
ATOM     24  C   UNL     1     -33.687  24.843   4.220  0.00  0.00    -0.008 C 
ATOM     25  C   UNL     1     -39.470  20.482  -1.003  0.00  0.00    +0.011 C 
ATOM     26  C   UNL     1     -37.767  18.788  -0.257  0.00  0.00    +0.011 C 
ATOM     27  C   UNL     1     -37.436  27.129   1.241  0.00  0.00    +0.045 C 
ENDROOT
BRANCH  13  28
ATOM     28  O   UNL     1     -37.723  23.560  -1.314  0.00  0.00    -0.384 OA
ATOM     29  H   UNL     1     -38.230  23.262  -0.542  0.00  0.00    +0.210 HD
ENDBRANCH  13  28
BRANCH  20  30
ATOM     30  O   UNL     1     -35.948  27.482   3.107  0.00  0.00    -0.373 OA
ATOM     31  H   UNL     1     -35.579  27.027   3.880  0.00  0.00    +0.211 HD
ENDBRANCH  20  30
BRANCH   7  33
ATOM     32  O   UNL     1     -36.657  24.751   5.625  0.00  0.00    -0.249 OA
ATOM     33  C   UNL     1     -36.294  23.898   4.825  0.00  0.00    +0.326 C 
BRANCH  33  34
ATOM     34  O   UNL     1     -36.105  22.573   5.085  0.00  0.00    -0.444 OA
ATOM     35  C   UNL     1     -35.562  22.271   6.375  0.00  0.00    +0.256 C 
ENDBRANCH  33  34
ENDBRANCH   7  33
TORSDOF 4
ENDMDL
MODEL 7
REMARK VINA RESULT:      -5.6      2.073      6.108
REMARK  Name = 21580418
REMARK  4 active torsions:
REMARK  status: ('A' for Active; 'I' for Inactive)
REMARK    1  A    between atoms: C_7  and  C_33
REMARK    2  A    between atoms: C_13  and  O_28
REMARK    3  A    between atoms: C_20  and  O_30
REMARK    4  A    between atoms: C_33  and  O_34
REMARK                            x       y       z     vdW  Elec       q    Type
REMARK                         _______ _______ _______ _____ _____    ______ ____
ROOT
ATOM      1  O   UNL     1     -37.220  24.935   4.500  0.00  0.00    -0.292 OA
ATOM      2  O   UNL     1     -34.813  21.705   2.104  0.00  0.00    -0.293 OA
ATOM      3  O   UNL     1     -30.240  28.876   1.292  0.00  0.00    -0.296 OA
ATOM      4  C   UNL     1     -36.139  26.277   1.739  0.00  0.00    +0.024 C 
ATOM      5  C   UNL     1     -34.735  25.579   1.618  0.00  0.00    +0.008 C 
ATOM      6  C   UNL     1     -33.487  26.555   1.415  0.00  0.00    +0.040 C 
ATOM      7  C   UNL     1     -37.242  25.179   2.085  0.00  0.00    +0.159 C 
ATOM      8  C   UNL     1     -34.780  24.418   0.591  0.00  0.00    +0.011 C 
ATOM      9  C   UNL     1     -35.929  23.404   0.809  0.00  0.00    +0.070 C 
ATOM     10  C   UNL     1     -36.040  27.351   2.850  0.00  0.00    +0.027 C 
ATOM     11  C   UNL     1     -33.651  27.879   2.177  0.00  0.00    -0.041 C 
ATOM     12  C   UNL     1     -37.270  24.114   0.986  0.00  0.00    -0.022 C 
ATOM     13  C   UNL     1     -32.218  25.875   2.027  0.00  0.00    +0.121 C 
ATOM     14  C   UNL     1     -36.517  27.013   0.417  0.00  0.00    +0.002 C 
ATOM     15  C   UNL     1     -32.433  28.809   2.316  0.00  0.00    +0.066 C 
ATOM     16  C   UNL     1     -36.943  24.420   3.410  0.00  0.00    +0.194 C 
ATOM     17  C   UNL     1     -34.804  28.193   2.801  0.00  0.00    -0.034 C 
ATOM     18  C   UNL     1     -33.224  26.815  -0.095  0.00  0.00    +0.006 C 
ATOM     19  C   UNL     1     -35.639  22.623   2.096  0.00  0.00    +0.184 C 
ATOM     20  C   UNL     1     -36.387  23.002   3.363  0.00  0.00    +0.191 C 
ATOM     21  C   UNL     1     -30.934  26.685   1.867  0.00  0.00    +0.094 C 
ATOM     22  C   UNL     1     -35.888  22.395  -0.362  0.00  0.00    +0.012 C 
ATOM     23  C   UNL     1     -31.147  28.179   1.757  0.00  0.00    +0.156 C 
ATOM     24  C   UNL     1     -38.361  23.826   0.249  0.00  0.00    -0.008 C 
ATOM     25  C   UNL     1     -32.116  29.135   3.792  0.00  0.00    +0.011 C 
ATOM     26  C   UNL     1     -32.705  30.123   1.555  0.00  0.00    +0.011 C 
ATOM     27  C   UNL     1     -35.519  22.722   4.593  0.00  0.00    +0.045 C 
ENDROOT
BRANCH  13  28
ATOM     28  O   UNL     1     -32.420  25.616   3.421  0.00  0.00    -0.384 OA
ATOM     29  H   UNL     1     -32.896  26.359   3.823  0.00  0.00    +0.210 HD
ENDBRANCH  13  28
BRANCH  20  30
ATOM     30  O   UNL     1     -37.519  22.141   3.375  0.00  0.00    -0.373 OA
ATOM     31  H   UNL     1     -37.339  21.378   3.947  0.00  0.00    +0.211 HD
ENDBRANCH  20  30
BRANCH   7  33
ATOM     32  O   UNL     1     -38.938  26.903   1.811  0.00  0.00    -0.249 OA
ATOM     33  C   UNL     1     -38.621  25.810   2.263  0.00  0.00    +0.326 C 
BRANCH  33  34
ATOM     34  O   UNL     1     -39.416  24.974   2.990  0.00  0.00    -0.444 OA
ATOM     35  C   UNL     1     -40.685  25.512   3.375  0.00  0.00    +0.256 C 
ENDBRANCH  33  34
ENDBRANCH   7  33
TORSDOF 4
ENDMDL
MODEL 8
REMARK VINA RESULT:      -5.6      2.885      7.510
REMARK  Name = 21580418
REMARK  4 active torsions:
REMARK  status: ('A' for Active; 'I' for Inactive)
REMARK    1  A    between atoms: C_7  and  C_33
REMARK    2  A    between atoms: C_13  and  O_28
REMARK    3  A    between atoms: C_20  and  O_30
REMARK    4  A    between atoms: C_33  and  O_34
REMARK                            x       y       z     vdW  Elec       q    Type
REMARK                         _______ _______ _______ _____ _____    ______ ____
ROOT
ATOM      1  O   UNL     1     -35.952  17.708  -1.915  0.00  0.00    -0.292 OA
ATOM      2  O   UNL     1     -32.401  17.578   1.142  0.00  0.00    -0.293 OA
ATOM      3  O   UNL     1     -37.396  23.947   3.877  0.00  0.00    -0.296 OA
ATOM      4  C   UNL     1     -35.051  20.760  -1.233  0.00  0.00    +0.024 C 
ATOM      5  C   UNL     1     -34.703  20.616   0.294  0.00  0.00    +0.008 C 
ATOM      6  C   UNL     1     -35.411  21.661   1.272  0.00  0.00    +0.040 C 
ATOM      7  C   UNL     1     -34.384  19.557  -2.039  0.00  0.00    +0.159 C 
ATOM      8  C   UNL     1     -33.170  20.519   0.505  0.00  0.00    +0.011 C 
ATOM      9  C   UNL     1     -32.461  19.455  -0.367  0.00  0.00    +0.070 C 
ATOM     10  C   UNL     1     -36.594  20.749  -1.369  0.00  0.00    +0.027 C 
ATOM     11  C   UNL     1     -36.833  22.018   0.814  0.00  0.00    -0.041 C 
ATOM     12  C   UNL     1     -32.868  19.580  -1.835  0.00  0.00    -0.022 C 
ATOM     13  C   UNL     1     -35.579  20.994   2.677  0.00  0.00    +0.121 C 
ATOM     14  C   UNL     1     -34.548  22.123  -1.798  0.00  0.00    +0.002 C 
ATOM     15  C   UNL     1     -37.751  22.787   1.781  0.00  0.00    +0.066 C 
ATOM     16  C   UNL     1     -34.862  18.161  -1.544  0.00  0.00    +0.194 C 
ATOM     17  C   UNL     1     -37.319  21.590  -0.368  0.00  0.00    -0.034 C 
ATOM     18  C   UNL     1     -34.546  22.942   1.439  0.00  0.00    +0.006 C 
ATOM     19  C   UNL     1     -32.895  18.069   0.123  0.00  0.00    +0.184 C 
ATOM     20  C   UNL     1     -33.948  17.312  -0.670  0.00  0.00    +0.191 C 
ATOM     21  C   UNL     1     -36.210  21.900   3.730  0.00  0.00    +0.094 C 
ATOM     22  C   UNL     1     -30.941  19.580  -0.112  0.00  0.00    +0.012 C 
ATOM     23  C   UNL     1     -37.117  22.974   3.169  0.00  0.00    +0.156 C 
ATOM     24  C   UNL     1     -31.978  19.696  -2.841  0.00  0.00    -0.008 C 
ATOM     25  C   UNL     1     -39.079  22.042   2.040  0.00  0.00    +0.011 C 
ATOM     26  C   UNL     1     -38.059  24.180   1.192  0.00  0.00    +0.011 C 
ATOM     27  C   UNL     1     -34.770  16.419   0.262  0.00  0.00    +0.045 C 
ENDROOT
BRANCH  13  28
ATOM     28  O   UNL     1     -36.371  19.805   2.568  0.00  0.00    -0.384 OA
ATOM     29  H   UNL     1     -36.678  19.704   1.654  0.00  0.00    +0.210 HD
ENDBRANCH  13  28
BRANCH  20  30
ATOM     30  O   UNL     1     -33.198  16.501  -1.566  0.00  0.00    -0.373 OA
ATOM     31  H   UNL     1     -33.227  15.578  -1.268  0.00  0.00    +0.211 HD
ENDBRANCH  20  30
BRANCH   7  33
ATOM     32  O   UNL     1     -35.078  20.641  -4.104  0.00  0.00    -0.249 OA
ATOM     33  C   UNL     1     -34.732  19.620  -3.524  0.00  0.00    +0.326 C 
BRANCH  33  34
ATOM     34  O   UNL     1     -34.597  18.381  -4.078  0.00  0.00    -0.444 OA
ATOM     35  C   UNL     1     -34.382  18.360  -5.493  0.00  0.00    +0.256 C 
ENDBRANCH  33  34
ENDBRANCH   7  33
TORSDOF 4
ENDMDL
MODEL 9
REMARK VINA RESULT:      -5.6      2.315      4.436
REMARK  Name = 21580418
REMARK  4 active torsions:
REMARK  status: ('A' for Active; 'I' for Inactive)
REMARK    1  A    between atoms: C_7  and  C_33
REMARK    2  A    between atoms: C_13  and  O_28
REMARK    3  A    between atoms: C_20  and  O_30
REMARK    4  A    between atoms: C_33  and  O_34
REMARK                            x       y       z     vdW  Elec       q    Type
REMARK                         _______ _______ _______ _____ _____    ______ ____
ROOT
ATOM      1  O   UNL     1     -38.371  25.359  -0.677  0.00  0.00    -0.292 OA
ATOM      2  O   UNL     1     -35.201  26.153   2.683  0.00  0.00    -0.293 OA
ATOM      3  O   UNL     1     -33.714  18.134   0.139  0.00  0.00    -0.296 OA
ATOM      4  C   UNL     1     -38.154  22.708   1.199  0.00  0.00    +0.024 C 
ATOM      5  C   UNL     1     -36.612  22.707   1.507  0.00  0.00    +0.008 C 
ATOM      6  C   UNL     1     -35.841  21.341   1.205  0.00  0.00    +0.040 C 
ATOM      7  C   UNL     1     -38.731  24.179   1.413  0.00  0.00    +0.159 C 
ATOM      8  C   UNL     1     -36.331  23.270   2.924  0.00  0.00    +0.011 C 
ATOM      9  C   UNL     1     -36.994  24.635   3.224  0.00  0.00    +0.070 C 
ATOM     10  C   UNL     1     -38.345  22.231  -0.262  0.00  0.00    +0.027 C 
ATOM     11  C   UNL     1     -36.404  20.614  -0.027  0.00  0.00    -0.041 C 
ATOM     12  C   UNL     1     -38.477  24.626   2.855  0.00  0.00    -0.022 C 
ATOM     13  C   UNL     1     -34.355  21.676   0.850  0.00  0.00    +0.121 C 
ATOM     14  C   UNL     1     -38.912  21.700   2.116  0.00  0.00    +0.002 C 
ATOM     15  C   UNL     1     -35.608  19.438  -0.619  0.00  0.00    +0.066 C 
ATOM     16  C   UNL     1     -38.038  25.237   0.508  0.00  0.00    +0.194 C 
ATOM     17  C   UNL     1     -37.520  21.045  -0.649  0.00  0.00    -0.034 C 
ATOM     18  C   UNL     1     -35.850  20.410   2.448  0.00  0.00    +0.006 C 
ATOM     19  C   UNL     1     -36.305  25.700   2.362  0.00  0.00    +0.184 C 
ATOM     20  C   UNL     1     -37.005  26.185   1.104  0.00  0.00    +0.191 C 
ATOM     21  C   UNL     1     -33.485  20.453   0.574  0.00  0.00    +0.094 C 
ATOM     22  C   UNL     1     -36.704  24.981   4.703  0.00  0.00    +0.012 C 
ATOM     23  C   UNL     1     -34.245  19.247   0.066  0.00  0.00    +0.156 C 
ATOM     24  C   UNL     1     -39.454  24.976   3.714  0.00  0.00    -0.008 C 
ATOM     25  C   UNL     1     -35.283  19.649  -2.114  0.00  0.00    +0.011 C 
ATOM     26  C   UNL     1     -36.423  18.138  -0.458  0.00  0.00    +0.011 C 
ATOM     27  C   UNL     1     -35.972  26.591   0.048  0.00  0.00    +0.045 C 
ENDROOT
BRANCH  13  28
ATOM     28  O   UNL     1     -34.301  22.537  -0.294  0.00  0.00    -0.384 OA
ATOM     29  H   UNL     1     -33.404  22.894  -0.389  0.00  0.00    +0.210 HD
ENDBRANCH  13  28
BRANCH  20  30
ATOM     30  O   UNL     1     -37.730  27.334   1.525  0.00  0.00    -0.373 OA
ATOM     31  H   UNL     1     -37.109  28.021   1.816  0.00  0.00    +0.211 HD
ENDBRANCH  20  30
BRANCH   7  33
ATOM     32  O   UNL     1     -40.959  23.274   1.039  0.00  0.00    -0.249 OA
ATOM     33  C   UNL     1     -40.219  24.248   1.079  0.00  0.00    +0.326 C 
BRANCH  33  34
ATOM     34  O   UNL     1     -40.573  25.543   0.840  0.00  0.00    -0.444 OA
ATOM     35  C   UNL     1     -41.951  25.856   1.068  0.00  0.00    +0.256 C 
ENDBRANCH  33  34
ENDBRANCH   7  33
TORSDOF 4
ENDMDL
