MODEL 1
REMARK VINA RESULT:      -6.4      0.000      0.000
REMARK  Name = 54111122
REMARK  5 active torsions:
REMARK  status: ('A' for Active; 'I' for Inactive)
REMARK    1  A    between atoms: N_3  and  C_25
REMARK    2  A    between atoms: C_5  and  S_21
REMARK    3  A    between atoms: C_8  and  C_29
REMARK    4  A    between atoms: C_9  and  N_13
REMARK    5  A    between atoms: C_29  and  O_30
REMARK                            x       y       z     vdW  Elec       q    Type
REMARK                         _______ _______ _______ _____ _____    ______ ____
ROOT
ATOM      1  F   UNL     1     -35.941  23.431   5.953  0.00  0.00    -0.203 F 
ATOM      2  O   UNL     1     -32.909  27.370   6.608  0.00  0.00    -0.286 OA
ATOM      3  N   UNL     1     -33.070  26.856   2.591  0.00  0.00    -0.314 N 
ATOM      4  C   UNL     1     -33.822  25.973   3.420  0.00  0.00    +0.065 A 
ATOM      5  C   UNL     1     -32.517  28.023   3.134  0.00  0.00    +0.184 A 
ATOM      6  C   UNL     1     -33.815  26.155   4.812  0.00  0.00    +0.057 A 
ATOM      7  C   UNL     1     -34.591  24.912   2.908  0.00  0.00    +0.034 C 
ATOM      8  C   UNL     1     -32.443  28.278   4.460  0.00  0.00    +0.148 A 
ATOM      9  C   UNL     1     -35.306  24.060   3.755  0.00  0.00    +0.077 C 
ATOM     10  C   UNL     1     -33.039  27.270   5.393  0.00  0.00    +0.206 A 
ATOM     11  C   UNL     1     -34.526  25.300   5.664  0.00  0.00    +0.036 C 
ATOM     12  C   UNL     1     -35.270  24.251   5.133  0.00  0.00    +0.154 C 
ENDROOT
BRANCH   9  13
ATOM     13  N   UNL     1     -36.056  23.011   3.214  0.00  0.00    -0.310 N 
ATOM     14  N   UNL     1     -37.627  20.791   2.346  0.00  0.00    +0.386 N 
ATOM     15  C   UNL     1     -35.554  21.641   3.387  0.00  0.00    +0.068 C 
ATOM     16  C   UNL     1     -37.512  23.144   3.094  0.00  0.00    +0.068 C 
ATOM     17  C   UNL     1     -36.167  20.709   2.342  0.00  0.00    -0.060 C 
ATOM     18  C   UNL     1     -38.056  22.158   2.059  0.00  0.00    -0.060 C 
ATOM     19  H   UNL     1     -37.977  20.513   3.263  0.00  0.00    -0.084 HD
ATOM     20  H   UNL     1     -37.997  20.167   1.630  0.00  0.00    -0.084 HD
ENDBRANCH   9  13
BRANCH   5  21
ATOM     21  S   UNL     1     -31.920  29.275   2.065  0.00  0.00    +0.057 S 
ATOM     22  O   UNL     1     -32.849  28.943   0.773  0.00  0.00    -0.064 OA
ATOM     23  O   UNL     1     -30.548  28.974   1.733  0.00  0.00    -0.064 OA
ATOM     24  O   UNL     1     -32.312  30.555   2.601  0.00  0.00    -0.064 OA
ENDBRANCH   5  21
BRANCH   3  25
ATOM     25  C   UNL     1     -32.868  26.531   1.157  0.00  0.00    +0.087 C 
ATOM     26  C   UNL     1     -31.631  25.824   0.684  0.00  0.00    +0.025 C 
ATOM     27  C   UNL     1     -32.956  25.119   0.657  0.00  0.00    +0.025 C 
ENDBRANCH   3  25
BRANCH   8  29
ATOM     28  O   UNL     1     -30.607  29.594   5.201  0.00  0.00    -0.245 OA
ATOM     29  C   UNL     1     -31.802  29.472   5.050  0.00  0.00    +0.344 C 
BRANCH  29  30
ATOM     30  O   UNL     1     -32.754  30.366   5.374  0.00  0.00    -0.477 OA
ATOM     31  H   UNL     1     -32.911  31.106   4.822  0.00  0.00    +0.295 HD
ENDBRANCH  29  30
ENDBRANCH   8  29
TORSDOF 5
ENDMDL
MODEL 2
REMARK VINA RESULT:      -6.0      3.905      6.851
REMARK  Name = 54111122
REMARK  5 active torsions:
REMARK  status: ('A' for Active; 'I' for Inactive)
REMARK    1  A    between atoms: N_3  and  C_25
REMARK    2  A    between atoms: C_5  and  S_21
REMARK    3  A    between atoms: C_8  and  C_29
REMARK    4  A    between atoms: C_9  and  N_13
REMARK    5  A    between atoms: C_29  and  O_30
REMARK                            x       y       z     vdW  Elec       q    Type
REMARK                         _______ _______ _______ _____ _____    ______ ____
ROOT
ATOM      1  F   UNL     1     -33.313  27.149   7.351  0.00  0.00    -0.203 F 
ATOM      2  O   UNL     1     -35.963  23.313   5.508  0.00  0.00    -0.286 OA
ATOM      3  N   UNL     1     -34.227  25.013   2.264  0.00  0.00    -0.314 N 
ATOM      4  C   UNL     1     -33.966  25.575   3.548  0.00  0.00    +0.065 A 
ATOM      5  C   UNL     1     -34.842  23.758   2.162  0.00  0.00    +0.184 A 
ATOM      6  C   UNL     1     -34.523  24.980   4.691  0.00  0.00    +0.057 A 
ATOM      7  C   UNL     1     -33.159  26.711   3.736  0.00  0.00    +0.034 C 
ATOM      8  C   UNL     1     -35.425  23.117   3.200  0.00  0.00    +0.148 A 
ATOM      9  C   UNL     1     -32.934  27.239   5.010  0.00  0.00    +0.077 C 
ATOM     10  C   UNL     1     -35.359  23.771   4.544  0.00  0.00    +0.206 A 
ATOM     11  C   UNL     1     -34.304  25.509   5.970  0.00  0.00    +0.036 C 
ATOM     12  C   UNL     1     -33.510  26.641   6.126  0.00  0.00    +0.154 C 
ENDROOT
BRANCH   9  13
ATOM     13  N   UNL     1     -32.131  28.374   5.161  0.00  0.00    -0.310 N 
ATOM     14  N   UNL     1     -30.332  30.586   5.304  0.00  0.00    +0.386 N 
ATOM     15  C   UNL     1     -30.807  28.208   5.775  0.00  0.00    +0.068 C 
ATOM     16  C   UNL     1     -32.256  29.486   4.211  0.00  0.00    +0.068 C 
ATOM     17  C   UNL     1     -30.300  29.541   6.326  0.00  0.00    -0.060 C 
ATOM     18  C   UNL     1     -31.697  30.774   4.818  0.00  0.00    -0.060 C 
ATOM     19  H   UNL     1     -29.731  30.316   4.526  0.00  0.00    -0.084 HD
ATOM     20  H   UNL     1     -30.000  31.460   5.712  0.00  0.00    -0.084 HD
ENDBRANCH   9  13
BRANCH   5  21
ATOM     21  S   UNL     1     -34.831  22.912   0.629  0.00  0.00    +0.057 S 
ATOM     22  O   UNL     1     -33.491  23.585  -0.001  0.00  0.00    -0.064 OA
ATOM     23  O   UNL     1     -35.970  23.351  -0.141  0.00  0.00    -0.064 OA
ATOM     24  O   UNL     1     -34.572  21.516   0.883  0.00  0.00    -0.064 OA
ENDBRANCH   5  21
BRANCH   3  25
ATOM     25  C   UNL     1     -33.858  25.765   1.038  0.00  0.00    +0.087 C 
ATOM     26  C   UNL     1     -34.847  26.647   0.335  0.00  0.00    +0.025 C 
ATOM     27  C   UNL     1     -33.681  27.255   1.060  0.00  0.00    +0.025 C 
ENDBRANCH   3  25
BRANCH   8  29
ATOM     28  O   UNL     1     -37.214  21.686   2.561  0.00  0.00    -0.245 OA
ATOM     29  C   UNL     1     -36.136  21.824   3.094  0.00  0.00    +0.344 C 
BRANCH  29  30
ATOM     30  O   UNL     1     -35.392  20.866   3.675  0.00  0.00    -0.477 OA
ATOM     31  H   UNL     1     -35.789  20.059   3.938  0.00  0.00    +0.295 HD
ENDBRANCH  29  30
ENDBRANCH   8  29
TORSDOF 5
ENDMDL
MODEL 3
REMARK VINA RESULT:      -5.9      2.458      3.639
REMARK  Name = 54111122
REMARK  5 active torsions:
REMARK  status: ('A' for Active; 'I' for Inactive)
REMARK    1  A    between atoms: N_3  and  C_25
REMARK    2  A    between atoms: C_5  and  S_21
REMARK    3  A    between atoms: C_8  and  C_29
REMARK    4  A    between atoms: C_9  and  N_13
REMARK    5  A    between atoms: C_29  and  O_30
REMARK                            x       y       z     vdW  Elec       q    Type
REMARK                         _______ _______ _______ _____ _____    ______ ____
ROOT
ATOM      1  F   UNL     1     -38.755  25.226   0.477  0.00  0.00    -0.203 F 
ATOM      2  O   UNL     1     -36.613  29.664   1.401  0.00  0.00    -0.286 OA
ATOM      3  N   UNL     1     -34.375  26.993   3.471  0.00  0.00    -0.314 N 
ATOM      4  C   UNL     1     -35.478  26.509   2.710  0.00  0.00    +0.065 A 
ATOM      5  C   UNL     1     -33.922  28.307   3.289  0.00  0.00    +0.184 A 
ATOM      6  C   UNL     1     -36.245  27.409   1.951  0.00  0.00    +0.057 A 
ATOM      7  C   UNL     1     -35.844  25.152   2.670  0.00  0.00    +0.034 C 
ATOM      8  C   UNL     1     -34.599  29.250   2.597  0.00  0.00    +0.148 A 
ATOM      9  C   UNL     1     -36.940  24.718   1.919  0.00  0.00    +0.077 C 
ATOM     10  C   UNL     1     -35.884  28.842   1.945  0.00  0.00    +0.206 A 
ATOM     11  C   UNL     1     -37.347  26.978   1.202  0.00  0.00    +0.036 C 
ATOM     12  C   UNL     1     -37.694  25.631   1.189  0.00  0.00    +0.154 C 
ENDROOT
BRANCH   9  13
ATOM     13  N   UNL     1     -37.281  23.361   1.906  0.00  0.00    -0.310 N 
ATOM     14  N   UNL     1     -37.890  20.580   2.118  0.00  0.00    +0.386 N 
ATOM     15  C   UNL     1     -36.196  22.375   1.998  0.00  0.00    +0.068 C 
ATOM     16  C   UNL     1     -38.578  22.932   2.442  0.00  0.00    +0.068 C 
ATOM     17  C   UNL     1     -36.658  21.019   1.463  0.00  0.00    -0.060 C 
ATOM     18  C   UNL     1     -38.955  21.555   1.892  0.00  0.00    -0.060 C 
ATOM     19  H   UNL     1     -37.725  20.486   3.120  0.00  0.00    -0.084 HD
ATOM     20  H   UNL     1     -38.172  19.681   1.727  0.00  0.00    -0.084 HD
ENDBRANCH   9  13
BRANCH   5  21
ATOM     21  S   UNL     1     -32.366  28.782   3.938  0.00  0.00    +0.057 S 
ATOM     22  O   UNL     1     -31.650  27.322   3.925  0.00  0.00    -0.064 OA
ATOM     23  O   UNL     1     -32.551  29.191   5.309  0.00  0.00    -0.064 OA
ATOM     24  O   UNL     1     -31.711  29.628   2.971  0.00  0.00    -0.064 OA
ENDBRANCH   5  21
BRANCH   3  25
ATOM     25  C   UNL     1     -33.716  26.107   4.463  0.00  0.00    +0.087 C 
ATOM     26  C   UNL     1     -34.110  26.126   5.911  0.00  0.00    +0.025 C 
ATOM     27  C   UNL     1     -34.434  24.933   5.060  0.00  0.00    +0.025 C 
ENDBRANCH   3  25
BRANCH   8  29
ATOM     28  O   UNL     1     -34.288  31.494   3.319  0.00  0.00    -0.245 OA
ATOM     29  C   UNL     1     -34.167  30.656   2.453  0.00  0.00    +0.344 C 
BRANCH  29  30
ATOM     30  O   UNL     1     -33.635  30.829   1.230  0.00  0.00    -0.477 OA
ATOM     31  H   UNL     1     -32.820  31.282   1.132  0.00  0.00    +0.295 HD
ENDBRANCH  29  30
ENDBRANCH   8  29
TORSDOF 5
ENDMDL
MODEL 4
REMARK VINA RESULT:      -5.7      3.941      6.979
REMARK  Name = 54111122
REMARK  5 active torsions:
REMARK  status: ('A' for Active; 'I' for Inactive)
REMARK    1  A    between atoms: N_3  and  C_25
REMARK    2  A    between atoms: C_5  and  S_21
REMARK    3  A    between atoms: C_8  and  C_29
REMARK    4  A    between atoms: C_9  and  N_13
REMARK    5  A    between atoms: C_29  and  O_30
REMARK                            x       y       z     vdW  Elec       q    Type
REMARK                         _______ _______ _______ _____ _____    ______ ____
ROOT
ATOM      1  F   UNL     1     -32.358  27.138   7.040  0.00  0.00    -0.203 F 
ATOM      2  O   UNL     1     -36.164  24.196   5.629  0.00  0.00    -0.286 OA
ATOM      3  N   UNL     1     -35.395  26.503   2.387  0.00  0.00    -0.314 N 
ATOM      4  C   UNL     1     -34.596  26.682   3.554  0.00  0.00    +0.065 A 
ATOM      5  C   UNL     1     -36.232  25.385   2.278  0.00  0.00    +0.184 A 
ATOM      6  C   UNL     1     -34.816  25.868   4.677  0.00  0.00    +0.057 A 
ATOM      7  C   UNL     1     -33.575  27.645   3.641  0.00  0.00    +0.034 C 
ATOM      8  C   UNL     1     -36.523  24.556   3.306  0.00  0.00    +0.148 A 
ATOM      9  C   UNL     1     -32.819  27.798   4.808  0.00  0.00    +0.077 C 
ATOM     10  C   UNL     1     -35.864  24.828   4.622  0.00  0.00    +0.206 A 
ATOM     11  C   UNL     1     -34.064  26.021   5.849  0.00  0.00    +0.036 C 
ATOM     12  C   UNL     1     -33.067  26.989   5.912  0.00  0.00    +0.154 C 
ENDROOT
BRANCH   9  13
ATOM     13  N   UNL     1     -31.815  28.770   4.863  0.00  0.00    -0.310 N 
ATOM     14  N   UNL     1     -29.752  30.709   5.225  0.00  0.00    +0.386 N 
ATOM     15  C   UNL     1     -32.089  30.006   5.608  0.00  0.00    +0.068 C 
ATOM     16  C   UNL     1     -30.406  28.364   4.801  0.00  0.00    +0.068 C 
ATOM     17  C   UNL     1     -31.152  31.125   5.153  0.00  0.00    -0.060 C 
ATOM     18  C   UNL     1     -29.528  29.542   4.375  0.00  0.00    -0.060 C 
ATOM     19  H   UNL     1     -29.519  30.474   6.190  0.00  0.00    -0.084 HD
ATOM     20  H   UNL     1     -29.160  31.475   4.903  0.00  0.00    -0.084 HD
ENDBRANCH   9  13
BRANCH   5  21
ATOM     21  S   UNL     1     -36.923  24.970   0.724  0.00  0.00    +0.057 S 
ATOM     22  O   UNL     1     -35.798  25.662  -0.225  0.00  0.00    -0.064 OA
ATOM     23  O   UNL     1     -38.162  25.694   0.569  0.00  0.00    -0.064 OA
ATOM     24  O   UNL     1     -36.850  23.539   0.561  0.00  0.00    -0.064 OA
ENDBRANCH   5  21
BRANCH   3  25
ATOM     25  C   UNL     1     -35.346  27.508   1.296  0.00  0.00    +0.087 C 
ATOM     26  C   UNL     1     -36.343  28.626   1.219  0.00  0.00    +0.025 C 
ATOM     27  C   UNL     1     -34.910  28.920   1.554  0.00  0.00    +0.025 C 
ENDBRANCH   3  25
BRANCH   8  29
ATOM     28  O   UNL     1     -38.659  23.525   3.141  0.00  0.00    -0.245 OA
ATOM     29  C   UNL     1     -37.456  23.412   3.223  0.00  0.00    +0.344 C 
BRANCH  29  30
ATOM     30  O   UNL     1     -36.751  22.267   3.254  0.00  0.00    -0.477 OA
ATOM     31  H   UNL     1     -36.146  22.107   3.952  0.00  0.00    +0.295 HD
ENDBRANCH  29  30
ENDBRANCH   8  29
TORSDOF 5
ENDMDL
MODEL 5
REMARK VINA RESULT:      -5.6      1.851      3.669
REMARK  Name = 54111122
REMARK  5 active torsions:
REMARK  status: ('A' for Active; 'I' for Inactive)
REMARK    1  A    between atoms: N_3  and  C_25
REMARK    2  A    between atoms: C_5  and  S_21
REMARK    3  A    between atoms: C_8  and  C_29
REMARK    4  A    between atoms: C_9  and  N_13
REMARK    5  A    between atoms: C_29  and  O_30
REMARK                            x       y       z     vdW  Elec       q    Type
REMARK                         _______ _______ _______ _____ _____    ______ ____
ROOT
ATOM      1  F   UNL     1     -34.851  23.507  -0.547  0.00  0.00    -0.203 F 
ATOM      2  O   UNL     1     -32.564  27.807   0.644  0.00  0.00    -0.286 OA
ATOM      3  N   UNL     1     -33.724  26.244   4.199  0.00  0.00    -0.314 N 
ATOM      4  C   UNL     1     -34.017  25.517   3.008  0.00  0.00    +0.065 A 
ATOM      5  C   UNL     1     -32.831  27.323   4.157  0.00  0.00    +0.184 A 
ATOM      6  C   UNL     1     -33.591  26.017   1.767  0.00  0.00    +0.057 A 
ATOM      7  C   UNL     1     -34.719  24.298   3.009  0.00  0.00    +0.034 C 
ATOM      8  C   UNL     1     -32.381  27.887   3.013  0.00  0.00    +0.148 A 
ATOM      9  C   UNL     1     -34.996  23.619   1.819  0.00  0.00    +0.077 C 
ATOM     10  C   UNL     1     -32.831  27.284   1.720  0.00  0.00    +0.206 A 
ATOM     11  C   UNL     1     -33.872  25.343   0.572  0.00  0.00    +0.036 C 
ATOM     12  C   UNL     1     -34.577  24.143   0.601  0.00  0.00    +0.154 C 
ENDROOT
BRANCH   9  13
ATOM     13  N   UNL     1     -35.701  22.412   1.855  0.00  0.00    -0.310 N 
ATOM     14  N   UNL     1     -37.063  19.922   2.168  0.00  0.00    +0.386 N 
ATOM     15  C   UNL     1     -34.935  21.168   2.007  0.00  0.00    +0.068 C 
ATOM     16  C   UNL     1     -37.070  22.384   2.385  0.00  0.00    +0.068 C 
ATOM     17  C   UNL     1     -35.753  19.972   1.520  0.00  0.00    -0.060 C 
ATOM     18  C   UNL     1     -37.812  21.144   1.884  0.00  0.00    -0.060 C 
ATOM     19  H   UNL     1     -36.936  19.831   3.176  0.00  0.00    -0.084 HD
ATOM     20  H   UNL     1     -37.582  19.121   1.809  0.00  0.00    -0.084 HD
ENDBRANCH   9  13
BRANCH   5  21
ATOM     21  S   UNL     1     -32.192  27.975   5.651  0.00  0.00    +0.057 S 
ATOM     22  O   UNL     1     -30.609  27.876   5.293  0.00  0.00    -0.064 OA
ATOM     23  O   UNL     1     -32.481  27.042   6.714  0.00  0.00    -0.064 OA
ATOM     24  O   UNL     1     -32.562  29.366   5.734  0.00  0.00    -0.064 OA
ENDBRANCH   5  21
BRANCH   3  25
ATOM     25  C   UNL     1     -34.376  25.864   5.477  0.00  0.00    +0.087 C 
ATOM     26  C   UNL     1     -35.869  25.875   5.626  0.00  0.00    +0.025 C 
ATOM     27  C   UNL     1     -35.125  24.571   5.617  0.00  0.00    +0.025 C 
ENDBRANCH   3  25
BRANCH   8  29
ATOM     28  O   UNL     1     -31.871  30.209   3.089  0.00  0.00    -0.245 OA
ATOM     29  C   UNL     1     -31.492  29.067   2.954  0.00  0.00    +0.344 C 
BRANCH  29  30
ATOM     30  O   UNL     1     -30.231  28.655   2.731  0.00  0.00    -0.477 OA
ATOM     31  H   UNL     1     -29.681  29.125   2.136  0.00  0.00    +0.295 HD
ENDBRANCH  29  30
ENDBRANCH   8  29
TORSDOF 5
ENDMDL
MODEL 6
REMARK VINA RESULT:      -5.6      4.669      7.226
REMARK  Name = 54111122
REMARK  5 active torsions:
REMARK  status: ('A' for Active; 'I' for Inactive)
REMARK    1  A    between atoms: N_3  and  C_25
REMARK    2  A    between atoms: C_5  and  S_21
REMARK    3  A    between atoms: C_8  and  C_29
REMARK    4  A    between atoms: C_9  and  N_13
REMARK    5  A    between atoms: C_29  and  O_30
REMARK                            x       y       z     vdW  Elec       q    Type
REMARK                         _______ _______ _______ _____ _____    ______ ____
ROOT
ATOM      1  F   UNL     1     -35.940  26.503   5.626  0.00  0.00    -0.203 F 
ATOM      2  O   UNL     1     -37.865  22.531   3.247  0.00  0.00    -0.286 OA
ATOM      3  N   UNL     1     -34.385  23.297   1.315  0.00  0.00    -0.314 N 
ATOM      4  C   UNL     1     -34.748  24.126   2.417  0.00  0.00    +0.065 A 
ATOM      5  C   UNL     1     -35.074  22.098   1.086  0.00  0.00    +0.184 A 
ATOM      6  C   UNL     1     -35.928  23.857   3.128  0.00  0.00    +0.057 A 
ATOM      7  C   UNL     1     -33.968  25.217   2.843  0.00  0.00    +0.034 C 
ATOM      8  C   UNL     1     -36.228  21.761   1.704  0.00  0.00    +0.148 A 
ATOM      9  C   UNL     1     -34.363  26.013   3.921  0.00  0.00    +0.077 C 
ATOM     10  C   UNL     1     -36.767  22.708   2.730  0.00  0.00    +0.206 A 
ATOM     11  C   UNL     1     -36.330  24.656   4.206  0.00  0.00    +0.036 C 
ATOM     12  C   UNL     1     -35.545  25.736   4.600  0.00  0.00    +0.154 C 
ENDROOT
BRANCH   9  13
ATOM     13  N   UNL     1     -33.568  27.094   4.315  0.00  0.00    -0.310 N 
ATOM     14  N   UNL     1     -32.157  29.416   5.193  0.00  0.00    +0.386 N 
ATOM     15  C   UNL     1     -33.726  28.367   3.599  0.00  0.00    +0.068 C 
ATOM     16  C   UNL     1     -33.125  27.201   5.710  0.00  0.00    +0.068 C 
ATOM     17  C   UNL     1     -32.486  29.241   3.778  0.00  0.00    -0.060 C 
ATOM     18  C   UNL     1     -31.905  28.118   5.815  0.00  0.00    -0.060 C 
ATOM     19  H   UNL     1     -32.937  29.871   5.666  0.00  0.00    -0.084 HD
ATOM     20  H   UNL     1     -31.320  29.992   5.271  0.00  0.00    -0.084 HD
ENDBRANCH   9  13
BRANCH   5  21
ATOM     21  S   UNL     1     -34.407  20.916  -0.020  0.00  0.00    +0.057 S 
ATOM     22  O   UNL     1     -32.837  21.314   0.130  0.00  0.00    -0.064 OA
ATOM     23  O   UNL     1     -34.839  21.249  -1.356  0.00  0.00    -0.064 OA
ATOM     24  O   UNL     1     -34.607  19.604   0.543  0.00  0.00    -0.064 OA
ENDBRANCH   5  21
BRANCH   3  25
ATOM     25  C   UNL     1     -33.286  23.712   0.408  0.00  0.00    +0.087 C 
ATOM     26  C   UNL     1     -33.552  24.547  -0.810  0.00  0.00    +0.025 C 
ATOM     27  C   UNL     1     -32.811  25.134   0.357  0.00  0.00    +0.025 C 
ENDBRANCH   3  25
BRANCH   8  29
ATOM     28  O   UNL     1     -37.674  20.367   0.431  0.00  0.00    -0.245 OA
ATOM     29  C   UNL     1     -37.001  20.532   1.423  0.00  0.00    +0.344 C 
BRANCH  29  30
ATOM     30  O   UNL     1     -36.824  19.662   2.434  0.00  0.00    -0.477 OA
ATOM     31  H   UNL     1     -36.009  19.210   2.527  0.00  0.00    +0.295 HD
ENDBRANCH  29  30
ENDBRANCH   8  29
TORSDOF 5
ENDMDL
MODEL 7
REMARK VINA RESULT:      -5.5      7.194      9.869
REMARK  Name = 54111122
REMARK  5 active torsions:
REMARK  status: ('A' for Active; 'I' for Inactive)
REMARK    1  A    between atoms: N_3  and  C_25
REMARK    2  A    between atoms: C_5  and  S_21
REMARK    3  A    between atoms: C_8  and  C_29
REMARK    4  A    between atoms: C_9  and  N_13
REMARK    5  A    between atoms: C_29  and  O_30
REMARK                            x       y       z     vdW  Elec       q    Type
REMARK                         _______ _______ _______ _____ _____    ______ ____
ROOT
ATOM      1  F   UNL     1     -38.463  22.904   2.513  0.00  0.00    -0.203 F 
ATOM      2  O   UNL     1     -39.313  19.194  -0.752  0.00  0.00    -0.286 OA
ATOM      3  N   UNL     1     -35.437  18.732   0.341  0.00  0.00    -0.314 N 
ATOM      4  C   UNL     1     -36.184  19.798   0.920  0.00  0.00    +0.065 A 
ATOM      5  C   UNL     1     -36.098  17.722  -0.370  0.00  0.00    +0.184 A 
ATOM      6  C   UNL     1     -37.540  19.956   0.589  0.00  0.00    +0.057 A 
ATOM      7  C   UNL     1     -35.628  20.716   1.829  0.00  0.00    +0.034 C 
ATOM      8  C   UNL     1     -37.392  17.791  -0.754  0.00  0.00    +0.148 A 
ATOM      9  C   UNL     1     -36.391  21.757   2.369  0.00  0.00    +0.077 C 
ATOM     10  C   UNL     1     -38.172  19.001  -0.345  0.00  0.00    +0.206 A 
ATOM     11  C   UNL     1     -38.306  21.000   1.123  0.00  0.00    +0.036 C 
ATOM     12  C   UNL     1     -37.727  21.901   2.013  0.00  0.00    +0.154 C 
ENDROOT
BRANCH   9  13
ATOM     13  N   UNL     1     -35.805  22.656   3.265  0.00  0.00    -0.310 N 
ATOM     14  N   UNL     1     -34.409  24.337   5.102  0.00  0.00    +0.386 N 
ATOM     15  C   UNL     1     -35.562  22.202   4.641  0.00  0.00    +0.068 C 
ATOM     16  C   UNL     1     -34.889  23.688   2.766  0.00  0.00    +0.068 C 
ATOM     17  C   UNL     1     -35.421  23.397   5.583  0.00  0.00    -0.060 C 
ATOM     18  C   UNL     1     -34.771  24.832   3.775  0.00  0.00    -0.060 C 
ATOM     19  H   UNL     1     -33.507  23.865   5.052  0.00  0.00    -0.084 HD
ATOM     20  H   UNL     1     -34.353  25.125   5.748  0.00  0.00    -0.084 HD
ENDBRANCH   9  13
BRANCH   5  21
ATOM     21  S   UNL     1     -35.248  16.241  -0.761  0.00  0.00    +0.057 S 
ATOM     22  O   UNL     1     -34.087  16.331   0.375  0.00  0.00    -0.064 OA
ATOM     23  O   UNL     1     -34.634  16.398  -2.058  0.00  0.00    -0.064 OA
ATOM     24  O   UNL     1     -36.110  15.128  -0.454  0.00  0.00    -0.064 OA
ENDBRANCH   5  21
BRANCH   3  25
ATOM     25  C   UNL     1     -33.960  18.700   0.483  0.00  0.00    +0.087 C 
ATOM     26  C   UNL     1     -33.061  19.262  -0.579  0.00  0.00    +0.025 C 
ATOM     27  C   UNL     1     -33.175  19.951   0.750  0.00  0.00    +0.025 C 
ENDBRANCH   3  25
BRANCH   8  29
ATOM     28  O   UNL     1     -37.938  16.631  -2.757  0.00  0.00    -0.245 OA
ATOM     29  C   UNL     1     -38.084  16.764  -1.563  0.00  0.00    +0.344 C 
BRANCH  29  30
ATOM     30  O   UNL     1     -38.874  16.031  -0.758  0.00  0.00    -0.477 OA
ATOM     31  H   UNL     1     -38.731  15.109  -0.672  0.00  0.00    +0.295 HD
ENDBRANCH  29  30
ENDBRANCH   8  29
TORSDOF 5
ENDMDL
MODEL 8
REMARK VINA RESULT:      -5.5      3.035      4.184
REMARK  Name = 54111122
REMARK  5 active torsions:
REMARK  status: ('A' for Active; 'I' for Inactive)
REMARK    1  A    between atoms: N_3  and  C_25
REMARK    2  A    between atoms: C_5  and  S_21
REMARK    3  A    between atoms: C_8  and  C_29
REMARK    4  A    between atoms: C_9  and  N_13
REMARK    5  A    between atoms: C_29  and  O_30
REMARK                            x       y       z     vdW  Elec       q    Type
REMARK                         _______ _______ _______ _____ _____    ______ ____
ROOT
ATOM      1  F   UNL     1     -36.422  19.649   2.006  0.00  0.00    -0.203 F 
ATOM      2  O   UNL     1     -35.766  23.321   5.356  0.00  0.00    -0.286 OA
ATOM      3  N   UNL     1     -34.283  24.816   1.893  0.00  0.00    -0.314 N 
ATOM      4  C   UNL     1     -34.831  23.500   1.886  0.00  0.00    +0.065 A 
ATOM      5  C   UNL     1     -34.499  25.657   2.993  0.00  0.00    +0.184 A 
ATOM      6  C   UNL     1     -35.387  22.974   3.064  0.00  0.00    +0.057 A 
ATOM      7  C   UNL     1     -34.850  22.685   0.740  0.00  0.00    +0.034 C 
ATOM      8  C   UNL     1     -35.007  25.240   4.174  0.00  0.00    +0.148 A 
ATOM      9  C   UNL     1     -35.387  21.395   0.775  0.00  0.00    +0.077 C 
ATOM     10  C   UNL     1     -35.408  23.802   4.287  0.00  0.00    +0.206 A 
ATOM     11  C   UNL     1     -35.921  21.679   3.104  0.00  0.00    +0.036 C 
ATOM     12  C   UNL     1     -35.918  20.891   1.958  0.00  0.00    +0.154 C 
ENDROOT
BRANCH   9  13
ATOM     13  N   UNL     1     -35.385  20.609  -0.381  0.00  0.00    -0.310 N 
ATOM     14  N   UNL     1     -35.450  18.810  -2.597  0.00  0.00    +0.386 N 
ATOM     15  C   UNL     1     -34.394  19.529  -0.483  0.00  0.00    +0.068 C 
ATOM     16  C   UNL     1     -36.637  20.394  -1.117  0.00  0.00    +0.068 C 
ATOM     17  C   UNL     1     -34.182  19.131  -1.943  0.00  0.00    -0.060 C 
ATOM     18  C   UNL     1     -36.345  19.964  -2.555  0.00  0.00    -0.060 C 
ATOM     19  H   UNL     1     -35.889  18.026  -2.115  0.00  0.00    -0.084 HD
ATOM     20  H   UNL     1     -35.269  18.562  -3.570  0.00  0.00    -0.084 HD
ENDBRANCH   9  13
BRANCH   5  21
ATOM     21  S   UNL     1     -34.152  27.368   2.854  0.00  0.00    +0.057 S 
ATOM     22  O   UNL     1     -32.636  27.348   3.442  0.00  0.00    -0.064 OA
ATOM     23  O   UNL     1     -34.995  28.080   3.784  0.00  0.00    -0.064 OA
ATOM     24  O   UNL     1     -34.101  27.708   1.454  0.00  0.00    -0.064 OA
ENDBRANCH   5  21
BRANCH   3  25
ATOM     25  C   UNL     1     -33.476  25.287   0.740  0.00  0.00    +0.087 C 
ATOM     26  C   UNL     1     -31.977  25.341   0.806  0.00  0.00    +0.025 C 
ATOM     27  C   UNL     1     -32.654  24.335  -0.079  0.00  0.00    +0.025 C 
ENDBRANCH   3  25
BRANCH   8  29
ATOM     28  O   UNL     1     -34.280  26.397   6.120  0.00  0.00    -0.245 OA
ATOM     29  C   UNL     1     -35.178  26.101   5.364  0.00  0.00    +0.344 C 
BRANCH  29  30
ATOM     30  O   UNL     1     -36.465  26.480   5.450  0.00  0.00    -0.477 OA
ATOM     31  H   UNL     1     -36.743  27.289   5.067  0.00  0.00    +0.295 HD
ENDBRANCH  29  30
ENDBRANCH   8  29
TORSDOF 5
ENDMDL
MODEL 9
REMARK VINA RESULT:      -5.5      2.319      3.771
REMARK  Name = 54111122
REMARK  5 active torsions:
REMARK  status: ('A' for Active; 'I' for Inactive)
REMARK    1  A    between atoms: N_3  and  C_25
REMARK    2  A    between atoms: C_5  and  S_21
REMARK    3  A    between atoms: C_8  and  C_29
REMARK    4  A    between atoms: C_9  and  N_13
REMARK    5  A    between atoms: C_29  and  O_30
REMARK                            x       y       z     vdW  Elec       q    Type
REMARK                         _______ _______ _______ _____ _____    ______ ____
ROOT
ATOM      1  F   UNL     1     -37.098  25.293   2.414  0.00  0.00    -0.203 F 
ATOM      2  O   UNL     1     -35.568  30.011   1.680  0.00  0.00    -0.286 OA
ATOM      3  N   UNL     1     -32.846  28.436   4.237  0.00  0.00    -0.314 N 
ATOM      4  C   UNL     1     -33.912  27.606   3.782  0.00  0.00    +0.065 A 
ATOM      5  C   UNL     1     -32.600  29.664   3.608  0.00  0.00    +0.184 A 
ATOM      6  C   UNL     1     -34.845  28.115   2.865  0.00  0.00    +0.057 A 
ATOM      7  C   UNL     1     -34.080  26.275   4.207  0.00  0.00    +0.034 C 
ATOM      8  C   UNL     1     -33.448  30.246   2.730  0.00  0.00    +0.148 A 
ATOM      9  C   UNL     1     -35.145  25.495   3.746  0.00  0.00    +0.077 C 
ATOM     10  C   UNL     1     -34.696  29.501   2.375  0.00  0.00    +0.206 A 
ATOM     11  C   UNL     1     -35.917  27.339   2.406  0.00  0.00    +0.036 C 
ATOM     12  C   UNL     1     -36.065  26.028   2.850  0.00  0.00    +0.154 C 
ENDROOT
BRANCH   9  13
ATOM     13  N   UNL     1     -35.286  24.178   4.193  0.00  0.00    -0.310 N 
ATOM     14  N   UNL     1     -35.332  21.452   5.039  0.00  0.00    +0.386 N 
ATOM     15  C   UNL     1     -35.187  23.097   3.202  0.00  0.00    +0.068 C 
ATOM     16  C   UNL     1     -34.883  23.826   5.559  0.00  0.00    +0.068 C 
ATOM     17  C   UNL     1     -35.856  21.827   3.726  0.00  0.00    -0.060 C 
ATOM     18  C   UNL     1     -35.563  22.528   6.000  0.00  0.00    -0.060 C 
ATOM     19  H   UNL     1     -34.330  21.275   4.964  0.00  0.00    -0.084 HD
ATOM     20  H   UNL     1     -35.810  20.609   5.360  0.00  0.00    -0.084 HD
ENDBRANCH   9  13
BRANCH   5  21
ATOM     21  S   UNL     1     -31.093  30.503   3.911  0.00  0.00    +0.057 S 
ATOM     22  O   UNL     1     -30.184  29.216   4.311  0.00  0.00    -0.064 OA
ATOM     23  O   UNL     1     -31.260  31.329   5.083  0.00  0.00    -0.064 OA
ATOM     24  O   UNL     1     -30.613  31.039   2.662  0.00  0.00    -0.064 OA
ENDBRANCH   5  21
BRANCH   3  25
ATOM     25  C   UNL     1     -32.007  28.002   5.382  0.00  0.00    +0.087 C 
ATOM     26  C   UNL     1     -32.187  28.592   6.750  0.00  0.00    +0.025 C 
ATOM     27  C   UNL     1     -32.573  27.165   6.491  0.00  0.00    +0.025 C 
ENDBRANCH   3  25
BRANCH   8  29
ATOM     28  O   UNL     1     -33.443  32.623   2.672  0.00  0.00    -0.245 OA
ATOM     29  C   UNL     1     -33.233  31.571   2.111  0.00  0.00    +0.344 C 
BRANCH  29  30
ATOM     30  O   UNL     1     -32.778  31.401   0.857  0.00  0.00    -0.477 OA
ATOM     31  H   UNL     1     -31.856  31.362   0.693  0.00  0.00    +0.295 HD
ENDBRANCH  29  30
ENDBRANCH   8  29
TORSDOF 5
ENDMDL
