MODEL 1
REMARK VINA RESULT:      -8.3      0.000      0.000
REMARK  Name = 53348738
REMARK  5 active torsions:
REMARK  status: ('A' for Active; 'I' for Inactive)
REMARK    1  A    between atoms: C_6  and  O_31
REMARK    2  A    between atoms: C_10  and  O_33
REMARK    3  A    between atoms: C_17  and  O_35
REMARK    4  A    between atoms: C_18  and  O_37
REMARK    5  A    between atoms: C_21  and  O_39
REMARK                            x       y       z     vdW  Elec       q    Type
REMARK                         _______ _______ _______ _____ _____    ______ ____
ROOT
ATOM      1  O   UNL     1     -34.315  17.914   0.421  0.00  0.00    -0.337 OA
ATOM      2  N   UNL     1     -35.469  23.595   4.018  0.00  0.00    +0.390 N 
ATOM      3  C   UNL     1     -34.200  19.369   0.440  0.00  0.00    +0.097 C 
ATOM      4  C   UNL     1     -32.888  19.656  -0.325  0.00  0.00    +0.028 C 
ATOM      5  C   UNL     1     -35.440  19.944  -0.285  0.00  0.00    +0.050 C 
ATOM      6  C   UNL     1     -36.555  19.813   0.771  0.00  0.00    +0.093 C 
ATOM      7  C   UNL     1     -35.843  20.298   2.057  0.00  0.00    +0.025 C 
ATOM      8  C   UNL     1     -33.137  18.666  -1.480  0.00  0.00    +0.056 C 
ATOM      9  C   UNL     1     -34.351  19.864   1.881  0.00  0.00    +0.030 C 
ATOM     10  C   UNL     1     -33.466  17.413  -0.641  0.00  0.00    +0.208 C 
ATOM     11  C   UNL     1     -35.932  21.831   2.309  0.00  0.00    -0.014 C 
ATOM     12  C   UNL     1     -35.661  19.251  -1.629  0.00  0.00    +0.005 C 
ATOM     13  C   UNL     1     -34.331  19.080  -2.385  0.00  0.00    +0.005 C 
ATOM     14  C   UNL     1     -31.605  19.237   0.457  0.00  0.00    +0.005 C 
ATOM     15  C   UNL     1     -37.357  22.388   2.099  0.00  0.00    +0.048 C 
ATOM     16  C   UNL     1     -37.861  20.538   0.450  0.00  0.00    +0.056 C 
ATOM     17  C   UNL     1     -37.849  22.047   0.675  0.00  0.00    +0.115 C 
ATOM     18  C   UNL     1     -32.214  16.819   0.023  0.00  0.00    +0.161 C 
ATOM     19  C   UNL     1     -32.676  21.111  -0.768  0.00  0.00    +0.002 C 
ATOM     20  C   UNL     1     -31.602  17.810   1.008  0.00  0.00    +0.034 C 
ATOM     21  C   UNL     1     -37.409  23.912   2.458  0.00  0.00    +0.074 C 
ATOM     22  C   UNL     1     -35.461  22.152   3.739  0.00  0.00    -0.077 C 
ATOM     23  C   UNL     1     -36.831  24.167   3.893  0.00  0.00    -0.033 C 
ATOM     24  C   UNL     1     -36.806  25.677   4.243  0.00  0.00    -0.019 C 
ATOM     25  C   UNL     1     -38.856  24.432   2.344  0.00  0.00    +0.027 C 
ATOM     26  C   UNL     1     -34.898  23.822   5.359  0.00  0.00    -0.077 C 
ATOM     27  C   UNL     1     -34.783  25.309   5.710  0.00  0.00    -0.021 C 
ATOM     28  C   UNL     1     -36.159  25.963   5.594  0.00  0.00    -0.004 C 
ATOM     29  C   UNL     1     -33.735  26.020   4.848  0.00  0.00    -0.002 C 
ATOM     30  H   UNL     1     -34.896  24.078   3.327  0.00  0.00    -0.080 HD
ENDROOT
BRANCH   6  31
ATOM     31  O   UNL     1     -36.927  18.435   0.930  0.00  0.00    -0.387 OA
ATOM     32  H   UNL     1     -36.133  17.879   0.893  0.00  0.00    +0.210 HD
ENDBRANCH   6  31
BRANCH  10  33
ATOM     33  O   UNL     1     -34.117  16.429  -1.431  0.00  0.00    -0.362 OA
ATOM     34  H   UNL     1     -34.354  15.672  -0.873  0.00  0.00    +0.213 HD
ENDBRANCH  10  33
BRANCH  17  35
ATOM     35  O   UNL     1     -37.061  22.660  -0.337  0.00  0.00    -0.384 OA
ATOM     36  H   UNL     1     -37.511  22.574  -1.193  0.00  0.00    +0.210 HD
ENDBRANCH  17  35
BRANCH  18  37
ATOM     37  O   UNL     1     -31.242  16.483  -0.963  0.00  0.00    -0.380 OA
ATOM     38  H   UNL     1     -30.839  15.629  -0.742  0.00  0.00    +0.211 HD
ENDBRANCH  18  37
BRANCH  21  39
ATOM     39  O   UNL     1     -36.613  24.629   1.506  0.00  0.00    -0.389 OA
ATOM     40  H   UNL     1     -35.763  24.176   1.389  0.00  0.00    +0.210 HD
ENDBRANCH  21  39
TORSDOF 5
ENDMDL
MODEL 2
REMARK VINA RESULT:      -6.9      2.620      8.139
REMARK  Name = 53348738
REMARK  5 active torsions:
REMARK  status: ('A' for Active; 'I' for Inactive)
REMARK    1  A    between atoms: C_6  and  O_31
REMARK    2  A    between atoms: C_10  and  O_33
REMARK    3  A    between atoms: C_17  and  O_35
REMARK    4  A    between atoms: C_18  and  O_37
REMARK    5  A    between atoms: C_21  and  O_39
REMARK                            x       y       z     vdW  Elec       q    Type
REMARK                         _______ _______ _______ _____ _____    ______ ____
ROOT
ATOM      1  O   UNL     1     -37.673  22.970   3.224  0.00  0.00    -0.337 OA
ATOM      2  N   UNL     1     -37.382  18.263  -1.706  0.00  0.00    +0.390 N 
ATOM      3  C   UNL     1     -37.275  22.695   1.846  0.00  0.00    +0.097 C 
ATOM      4  C   UNL     1     -37.551  24.020   1.100  0.00  0.00    +0.028 C 
ATOM      5  C   UNL     1     -35.772  22.330   1.860  0.00  0.00    +0.050 C 
ATOM      6  C   UNL     1     -35.768  20.876   2.368  0.00  0.00    +0.093 C 
ATOM      7  C   UNL     1     -36.935  20.248   1.567  0.00  0.00    +0.025 C 
ATOM      8  C   UNL     1     -36.951  24.953   2.170  0.00  0.00    +0.056 C 
ATOM      9  C   UNL     1     -37.964  21.411   1.374  0.00  0.00    +0.030 C 
ATOM     10  C   UNL     1     -37.706  24.408   3.400  0.00  0.00    +0.208 C 
ATOM     11  C   UNL     1     -36.530  19.654   0.187  0.00  0.00    -0.014 C 
ATOM     12  C   UNL     1     -34.965  23.355   2.657  0.00  0.00    +0.005 C 
ATOM     13  C   UNL     1     -35.413  24.790   2.321  0.00  0.00    +0.005 C 
ATOM     14  C   UNL     1     -39.070  24.333   0.925  0.00  0.00    +0.005 C 
ATOM     15  C   UNL     1     -35.249  18.794   0.262  0.00  0.00    +0.048 C 
ATOM     16  C   UNL     1     -34.438  20.134   2.247  0.00  0.00    +0.056 C 
ATOM     17  C   UNL     1     -34.090  19.628   0.851  0.00  0.00    +0.115 C 
ATOM     18  C   UNL     1     -39.183  24.830   3.403  0.00  0.00    +0.161 C 
ATOM     19  C   UNL     1     -36.913  24.150  -0.290  0.00  0.00    +0.002 C 
ATOM     20  C   UNL     1     -39.915  24.249   2.197  0.00  0.00    +0.034 C 
ATOM     21  C   UNL     1     -34.942  18.145  -1.130  0.00  0.00    +0.074 C 
ATOM     22  C   UNL     1     -37.685  18.807  -0.375  0.00  0.00    -0.077 C 
ATOM     23  C   UNL     1     -36.195  17.375  -1.675  0.00  0.00    -0.033 C 
ATOM     24  C   UNL     1     -35.938  16.785  -3.085  0.00  0.00    -0.019 C 
ATOM     25  C   UNL     1     -33.723  17.207  -1.018  0.00  0.00    +0.027 C 
ATOM     26  C   UNL     1     -38.577  17.567  -2.218  0.00  0.00    -0.077 C 
ATOM     27  C   UNL     1     -38.388  17.036  -3.643  0.00  0.00    -0.021 C 
ATOM     28  C   UNL     1     -37.171  16.114  -3.682  0.00  0.00    -0.004 C 
ATOM     29  C   UNL     1     -38.283  18.172  -4.666  0.00  0.00    -0.002 C 
ATOM     30  H   UNL     1     -37.146  19.027  -2.339  0.00  0.00    -0.080 HD
ENDROOT
BRANCH   6  31
ATOM     31  O   UNL     1     -36.086  20.840   3.768  0.00  0.00    -0.387 OA
ATOM     32  H   UNL     1     -37.032  20.658   3.881  0.00  0.00    +0.210 HD
ENDBRANCH   6  31
BRANCH  10  33
ATOM     33  O   UNL     1     -37.076  24.817   4.606  0.00  0.00    -0.362 OA
ATOM     34  H   UNL     1     -37.484  24.358   5.355  0.00  0.00    +0.213 HD
ENDBRANCH  10  33
BRANCH  17  35
ATOM     35  O   UNL     1     -33.742  20.736   0.030  0.00  0.00    -0.384 OA
ATOM     36  H   UNL     1     -34.086  20.594  -0.866  0.00  0.00    +0.210 HD
ENDBRANCH  17  35
BRANCH  18  37
ATOM     37  O   UNL     1     -39.294  26.250   3.375  0.00  0.00    -0.380 OA
ATOM     38  H   UNL     1     -38.966  26.617   4.211  0.00  0.00    +0.211 HD
ENDBRANCH  18  37
BRANCH  21  39
ATOM     39  O   UNL     1     -34.605  19.189  -2.052  0.00  0.00    -0.389 OA
ATOM     40  H   UNL     1     -35.157  19.967  -1.876  0.00  0.00    +0.210 HD
ENDBRANCH  21  39
TORSDOF 5
ENDMDL
MODEL 3
REMARK VINA RESULT:      -6.9      3.741      5.620
REMARK  Name = 53348738
REMARK  5 active torsions:
REMARK  status: ('A' for Active; 'I' for Inactive)
REMARK    1  A    between atoms: C_6  and  O_31
REMARK    2  A    between atoms: C_10  and  O_33
REMARK    3  A    between atoms: C_17  and  O_35
REMARK    4  A    between atoms: C_18  and  O_37
REMARK    5  A    between atoms: C_21  and  O_39
REMARK                            x       y       z     vdW  Elec       q    Type
REMARK                         _______ _______ _______ _____ _____    ______ ____
ROOT
ATOM      1  O   UNL     1     -36.994  21.412   0.398  0.00  0.00    -0.337 OA
ATOM      2  N   UNL     1     -33.290  26.767   2.435  0.00  0.00    +0.390 N 
ATOM      3  C   UNL     1     -37.028  22.817   0.795  0.00  0.00    +0.097 C 
ATOM      4  C   UNL     1     -38.148  23.430  -0.076  0.00  0.00    +0.028 C 
ATOM      5  C   UNL     1     -37.366  22.866   2.304  0.00  0.00    +0.050 C 
ATOM      6  C   UNL     1     -36.029  22.497   2.974  0.00  0.00    +0.093 C 
ATOM      7  C   UNL     1     -35.013  23.331   2.156  0.00  0.00    +0.025 C 
ATOM      8  C   UNL     1     -39.166  22.289   0.115  0.00  0.00    +0.056 C 
ATOM      9  C   UNL     1     -35.613  23.395   0.712  0.00  0.00    +0.030 C 
ATOM     10  C   UNL     1     -38.252  21.101  -0.251  0.00  0.00    +0.208 C 
ATOM     11  C   UNL     1     -34.766  24.768   2.699  0.00  0.00    -0.014 C 
ATOM     12  C   UNL     1     -38.578  21.991   2.625  0.00  0.00    +0.005 C 
ATOM     13  C   UNL     1     -39.688  22.183   1.575  0.00  0.00    +0.005 C 
ATOM     14  C   UNL     1     -37.770  23.547  -1.586  0.00  0.00    +0.005 C 
ATOM     15  C   UNL     1     -34.557  24.798   4.230  0.00  0.00    +0.048 C 
ATOM     16  C   UNL     1     -35.962  22.711   4.486  0.00  0.00    +0.056 C 
ATOM     17  C   UNL     1     -35.770  24.155   4.938  0.00  0.00    +0.115 C 
ATOM     18  C   UNL     1     -37.976  21.031  -1.762  0.00  0.00    +0.161 C 
ATOM     19  C   UNL     1     -38.652  24.814   0.358  0.00  0.00    +0.002 C 
ATOM     20  C   UNL     1     -37.226  22.273  -2.233  0.00  0.00    +0.034 C 
ATOM     21  C   UNL     1     -34.218  26.250   4.709  0.00  0.00    +0.074 C 
ATOM     22  C   UNL     1     -33.541  25.386   2.002  0.00  0.00    -0.077 C 
ATOM     23  C   UNL     1     -33.018  26.842   3.890  0.00  0.00    -0.033 C 
ATOM     24  C   UNL     1     -32.711  28.306   4.298  0.00  0.00    -0.019 C 
ATOM     25  C   UNL     1     -33.909  26.250   6.219  0.00  0.00    +0.027 C 
ATOM     26  C   UNL     1     -32.179  27.320   1.638  0.00  0.00    -0.077 C 
ATOM     27  C   UNL     1     -31.895  28.792   1.957  0.00  0.00    -0.021 C 
ATOM     28  C   UNL     1     -31.612  28.940   3.451  0.00  0.00    -0.004 C 
ATOM     29  C   UNL     1     -33.035  29.705   1.495  0.00  0.00    -0.002 C 
ATOM     30  H   UNL     1     -34.125  27.330   2.275  0.00  0.00    -0.080 HD
ENDROOT
BRANCH   6  31
ATOM     31  O   UNL     1     -35.750  21.100   2.786  0.00  0.00    -0.387 OA
ATOM     32  H   UNL     1     -36.202  20.785   1.988  0.00  0.00    +0.210 HD
ENDBRANCH   6  31
BRANCH  10  33
ATOM     33  O   UNL     1     -38.804  19.875   0.204  0.00  0.00    -0.362 OA
ATOM     34  H   UNL     1     -39.634  20.049   0.674  0.00  0.00    +0.213 HD
ENDBRANCH  10  33
BRANCH  17  35
ATOM     35  O   UNL     1     -36.976  24.875   4.717  0.00  0.00    -0.384 OA
ATOM     36  H   UNL     1     -36.815  25.823   4.846  0.00  0.00    +0.210 HD
ENDBRANCH  17  35
BRANCH  18  37
ATOM     37  O   UNL     1     -39.199  20.924  -2.485  0.00  0.00    -0.380 OA
ATOM     38  H   UNL     1     -39.481  21.805  -2.776  0.00  0.00    +0.211 HD
ENDBRANCH  18  37
BRANCH  21  39
ATOM     39  O   UNL     1     -35.371  27.076   4.500  0.00  0.00    -0.389 OA
ATOM     40  H   UNL     1     -35.326  27.848   5.087  0.00  0.00    +0.210 HD
ENDBRANCH  21  39
TORSDOF 5
ENDMDL
MODEL 4
REMARK VINA RESULT:      -6.7      2.306      7.596
REMARK  Name = 53348738
REMARK  5 active torsions:
REMARK  status: ('A' for Active; 'I' for Inactive)
REMARK    1  A    between atoms: C_6  and  O_31
REMARK    2  A    between atoms: C_10  and  O_33
REMARK    3  A    between atoms: C_17  and  O_35
REMARK    4  A    between atoms: C_18  and  O_37
REMARK    5  A    between atoms: C_21  and  O_39
REMARK                            x       y       z     vdW  Elec       q    Type
REMARK                         _______ _______ _______ _____ _____    ______ ____
ROOT
ATOM      1  O   UNL     1     -36.451  25.577   1.223  0.00  0.00    -0.337 OA
ATOM      2  N   UNL     1     -34.584  19.232  -0.452  0.00  0.00    +0.390 N 
ATOM      3  C   UNL     1     -36.276  24.208   1.702  0.00  0.00    +0.097 C 
ATOM      4  C   UNL     1     -35.807  24.376   3.165  0.00  0.00    +0.028 C 
ATOM      5  C   UNL     1     -37.649  23.502   1.604  0.00  0.00    +0.050 C 
ATOM      6  C   UNL     1     -37.769  23.178   0.102  0.00  0.00    +0.093 C 
ATOM      7  C   UNL     1     -36.353  22.649  -0.232  0.00  0.00    +0.025 C 
ATOM      8  C   UNL     1     -36.819  25.473   3.551  0.00  0.00    +0.056 C 
ATOM      9  C   UNL     1     -35.392  23.442   0.715  0.00  0.00    +0.030 C 
ATOM     10  C   UNL     1     -36.565  26.443   2.379  0.00  0.00    +0.208 C 
ATOM     11  C   UNL     1     -36.168  21.118  -0.026  0.00  0.00    -0.014 C 
ATOM     12  C   UNL     1     -38.752  24.354   2.229  0.00  0.00    +0.005 C 
ATOM     13  C   UNL     1     -38.287  24.962   3.565  0.00  0.00    +0.005 C 
ATOM     14  C   UNL     1     -34.355  24.935   3.295  0.00  0.00    +0.005 C 
ATOM     15  C   UNL     1     -37.332  20.292  -0.617  0.00  0.00    +0.048 C 
ATOM     16  C   UNL     1     -38.911  22.239  -0.285  0.00  0.00    +0.056 C 
ATOM     17  C   UNL     1     -38.671  20.760  -0.004  0.00  0.00    +0.115 C 
ATOM     18  C   UNL     1     -35.225  27.182   2.524  0.00  0.00    +0.161 C 
ATOM     19  C   UNL     1     -35.870  23.114   4.038  0.00  0.00    +0.002 C 
ATOM     20  C   UNL     1     -34.058  26.200   2.489  0.00  0.00    +0.034 C 
ATOM     21  C   UNL     1     -37.049  18.759  -0.468  0.00  0.00    +0.074 C 
ATOM     22  C   UNL     1     -34.842  20.663  -0.662  0.00  0.00    -0.077 C 
ATOM     23  C   UNL     1     -35.643  18.392  -1.059  0.00  0.00    -0.033 C 
ATOM     24  C   UNL     1     -35.310  16.891  -0.858  0.00  0.00    -0.019 C 
ATOM     25  C   UNL     1     -38.166  17.946  -1.152  0.00  0.00    +0.027 C 
ATOM     26  C   UNL     1     -33.248  18.907  -0.987  0.00  0.00    -0.077 C 
ATOM     27  C   UNL     1     -32.849  17.449  -0.738  0.00  0.00    -0.021 C 
ATOM     28  C   UNL     1     -33.908  16.525  -1.337  0.00  0.00    -0.004 C 
ATOM     29  C   UNL     1     -32.616  17.168   0.750  0.00  0.00    -0.002 C 
ATOM     30  H   UNL     1     -34.600  19.028   0.547  0.00  0.00    -0.080 HD
ENDROOT
BRANCH   6  31
ATOM     31  O   UNL     1     -38.010  24.381  -0.645  0.00  0.00    -0.387 OA
ATOM     32  H   UNL     1     -38.961  24.568  -0.660  0.00  0.00    +0.210 HD
ENDBRANCH   6  31
BRANCH  10  33
ATOM     33  O   UNL     1     -37.628  27.375   2.250  0.00  0.00    -0.362 OA
ATOM     34  H   UNL     1     -38.476  26.912   2.333  0.00  0.00    +0.213 HD
ENDBRANCH  10  33
BRANCH  17  35
ATOM     35  O   UNL     1     -38.736  20.538   1.399  0.00  0.00    -0.384 OA
ATOM     36  H   UNL     1     -37.848  20.345   1.737  0.00  0.00    +0.210 HD
ENDBRANCH  17  35
BRANCH  18  37
ATOM     37  O   UNL     1     -35.187  27.906   3.750  0.00  0.00    -0.380 OA
ATOM     38  H   UNL     1     -35.848  28.616   3.727  0.00  0.00    +0.211 HD
ENDBRANCH  18  37
BRANCH  21  39
ATOM     39  O   UNL     1     -37.063  18.429   0.927  0.00  0.00    -0.389 OA
ATOM     40  H   UNL     1     -37.790  18.900   1.364  0.00  0.00    +0.210 HD
ENDBRANCH  21  39
TORSDOF 5
ENDMDL
MODEL 5
REMARK VINA RESULT:      -6.6      1.942      7.536
REMARK  Name = 53348738
REMARK  5 active torsions:
REMARK  status: ('A' for Active; 'I' for Inactive)
REMARK    1  A    between atoms: C_6  and  O_31
REMARK    2  A    between atoms: C_10  and  O_33
REMARK    3  A    between atoms: C_17  and  O_35
REMARK    4  A    between atoms: C_18  and  O_37
REMARK    5  A    between atoms: C_21  and  O_39
REMARK                            x       y       z     vdW  Elec       q    Type
REMARK                         _______ _______ _______ _____ _____    ______ ____
ROOT
ATOM      1  O   UNL     1     -35.983  25.211   1.629  0.00  0.00    -0.337 OA
ATOM      2  N   UNL     1     -32.683  19.543  -0.253  0.00  0.00    +0.390 N 
ATOM      3  C   UNL     1     -35.634  23.842   2.000  0.00  0.00    +0.097 C 
ATOM      4  C   UNL     1     -35.462  23.899   3.535  0.00  0.00    +0.028 C 
ATOM      5  C   UNL     1     -36.810  22.931   1.575  0.00  0.00    +0.050 C 
ATOM      6  C   UNL     1     -36.609  22.787   0.054  0.00  0.00    +0.093 C 
ATOM      7  C   UNL     1     -35.082  22.553  -0.052  0.00  0.00    +0.025 C 
ATOM      8  C   UNL     1     -36.715  24.748   3.823  0.00  0.00    +0.056 C 
ATOM      9  C   UNL     1     -34.465  23.370   1.131  0.00  0.00    +0.030 C 
ATOM     10  C   UNL     1     -36.455  25.890   2.818  0.00  0.00    +0.208 C 
ATOM     11  C   UNL     1     -34.646  21.062   0.039  0.00  0.00    -0.014 C 
ATOM     12  C   UNL     1     -38.146  23.496   2.057  0.00  0.00    +0.005 C 
ATOM     13  C   UNL     1     -38.039  23.998   3.508  0.00  0.00    +0.005 C 
ATOM     14  C   UNL     1     -34.187  24.675   3.991  0.00  0.00    +0.005 C 
ATOM     15  C   UNL     1     -35.514  20.133  -0.838  0.00  0.00    +0.048 C 
ATOM     16  C   UNL     1     -37.468  21.724  -0.631  0.00  0.00    +0.056 C 
ATOM     17  C   UNL     1     -37.001  20.283  -0.451  0.00  0.00    +0.115 C 
ATOM     18  C   UNL     1     -35.325  26.822   3.285  0.00  0.00    +0.161 C 
ATOM     19  C   UNL     1     -35.431  22.543   4.256  0.00  0.00    +0.002 C 
ATOM     20  C   UNL     1     -34.004  26.065   3.381  0.00  0.00    +0.034 C 
ATOM     21  C   UNL     1     -34.973  18.664  -0.784  0.00  0.00    +0.074 C 
ATOM     22  C   UNL     1     -33.169  20.925  -0.372  0.00  0.00    -0.077 C 
ATOM     23  C   UNL     1     -33.443  18.620  -1.128  0.00  0.00    -0.033 C 
ATOM     24  C   UNL     1     -32.869  17.185  -1.011  0.00  0.00    -0.019 C 
ATOM     25  C   UNL     1     -35.781  17.767  -1.743  0.00  0.00    +0.027 C 
ATOM     26  C   UNL     1     -31.238  19.522  -0.552  0.00  0.00    -0.077 C 
ATOM     27  C   UNL     1     -30.617  18.133  -0.371  0.00  0.00    -0.021 C 
ATOM     28  C   UNL     1     -31.363  17.127  -1.245  0.00  0.00    -0.004 C 
ATOM     29  C   UNL     1     -30.591  17.708   1.101  0.00  0.00    -0.002 C 
ATOM     30  H   UNL     1     -32.829  19.213   0.700  0.00  0.00    -0.080 HD
ENDROOT
BRANCH   6  31
ATOM     31  O   UNL     1     -36.943  24.017  -0.608  0.00  0.00    -0.387 OA
ATOM     32  H   UNL     1     -36.908  24.747   0.029  0.00  0.00    +0.210 HD
ENDBRANCH   6  31
BRANCH  10  33
ATOM     33  O   UNL     1     -37.639  26.636   2.578  0.00  0.00    -0.362 OA
ATOM     34  H   UNL     1     -37.423  27.426   2.058  0.00  0.00    +0.213 HD
ENDBRANCH  10  33
BRANCH  17  35
ATOM     35  O   UNL     1     -37.261  19.876   0.886  0.00  0.00    -0.384 OA
ATOM     36  H   UNL     1     -37.174  18.912   0.953  0.00  0.00    +0.210 HD
ENDBRANCH  17  35
BRANCH  18  37
ATOM     37  O   UNL     1     -35.636  27.378   4.559  0.00  0.00    -0.380 OA
ATOM     38  H   UNL     1     -35.559  26.691   5.240  0.00  0.00    +0.211 HD
ENDBRANCH  18  37
BRANCH  21  39
ATOM     39  O   UNL     1     -35.161  18.161   0.545  0.00  0.00    -0.389 OA
ATOM     40  H   UNL     1     -34.304  18.121   1.000  0.00  0.00    +0.210 HD
ENDBRANCH  21  39
TORSDOF 5
ENDMDL
MODEL 6
REMARK VINA RESULT:      -6.6      4.050      6.402
REMARK  Name = 53348738
REMARK  5 active torsions:
REMARK  status: ('A' for Active; 'I' for Inactive)
REMARK    1  A    between atoms: C_6  and  O_31
REMARK    2  A    between atoms: C_10  and  O_33
REMARK    3  A    between atoms: C_17  and  O_35
REMARK    4  A    between atoms: C_18  and  O_37
REMARK    5  A    between atoms: C_21  and  O_39
REMARK                            x       y       z     vdW  Elec       q    Type
REMARK                         _______ _______ _______ _____ _____    ______ ____
ROOT
ATOM      1  O   UNL     1     -37.947  21.737   1.761  0.00  0.00    -0.337 OA
ATOM      2  N   UNL     1     -32.597  25.872   0.846  0.00  0.00    +0.390 N 
ATOM      3  C   UNL     1     -37.505  23.045   1.284  0.00  0.00    +0.097 C 
ATOM      4  C   UNL     1     -38.436  23.347   0.088  0.00  0.00    +0.028 C 
ATOM      5  C   UNL     1     -37.694  24.051   2.444  0.00  0.00    +0.050 C 
ATOM      6  C   UNL     1     -36.496  23.755   3.365  0.00  0.00    +0.093 C 
ATOM      7  C   UNL     1     -35.334  23.614   2.352  0.00  0.00    +0.025 C 
ATOM      8  C   UNL     1     -39.745  22.894   0.764  0.00  0.00    +0.056 C 
ATOM      9  C   UNL     1     -35.990  23.012   1.065  0.00  0.00    +0.030 C 
ATOM     10  C   UNL     1     -39.284  21.505   1.252  0.00  0.00    +0.208 C 
ATOM     11  C   UNL     1     -34.604  24.945   2.011  0.00  0.00    -0.014 C 
ATOM     12  C   UNL     1     -39.093  23.935   3.050  0.00  0.00    +0.005 C 
ATOM     13  C   UNL     1     -40.161  23.810   1.949  0.00  0.00    +0.005 C 
ATOM     14  C   UNL     1     -38.156  22.454  -1.161  0.00  0.00    +0.005 C 
ATOM     15  C   UNL     1     -34.282  25.786   3.266  0.00  0.00    +0.048 C 
ATOM     16  C   UNL     1     -36.251  24.767   4.483  0.00  0.00    +0.056 C 
ATOM     17  C   UNL     1     -35.578  26.068   4.057  0.00  0.00    +0.115 C 
ATOM     18  C   UNL     1     -39.159  20.500   0.096  0.00  0.00    +0.161 C 
ATOM     19  C   UNL     1     -38.443  24.801  -0.405  0.00  0.00    +0.002 C 
ATOM     20  C   UNL     1     -38.093  20.949  -0.898  0.00  0.00    +0.034 C 
ATOM     21  C   UNL     1     -33.466  27.065   2.875  0.00  0.00    +0.074 C 
ATOM     22  C   UNL     1     -33.304  24.647   1.245  0.00  0.00    -0.077 C 
ATOM     23  C   UNL     1     -32.206  26.684   2.022  0.00  0.00    -0.033 C 
ATOM     24  C   UNL     1     -31.422  27.940   1.563  0.00  0.00    -0.019 C 
ATOM     25  C   UNL     1     -33.060  27.841   4.144  0.00  0.00    +0.027 C 
ATOM     26  C   UNL     1     -31.432  25.500   0.021  0.00  0.00    -0.077 C 
ATOM     27  C   UNL     1     -30.675  26.718  -0.518  0.00  0.00    -0.021 C 
ATOM     28  C   UNL     1     -30.247  27.605   0.650  0.00  0.00    -0.004 C 
ATOM     29  C   UNL     1     -31.499  27.489  -1.554  0.00  0.00    -0.002 C 
ATOM     30  H   UNL     1     -33.221  26.458   0.292  0.00  0.00    -0.080 HD
ENDROOT
BRANCH   6  31
ATOM     31  O   UNL     1     -36.688  22.500   4.038  0.00  0.00    -0.387 OA
ATOM     32  H   UNL     1     -37.406  22.586   4.683  0.00  0.00    +0.210 HD
ENDBRANCH   6  31
BRANCH  10  33
ATOM     33  O   UNL     1     -40.158  21.000   2.250  0.00  0.00    -0.362 OA
ATOM     34  H   UNL     1     -41.076  21.193   2.004  0.00  0.00    +0.213 HD
ENDBRANCH  10  33
BRANCH  17  35
ATOM     35  O   UNL     1     -36.508  26.851   3.319  0.00  0.00    -0.384 OA
ATOM     36  H   UNL     1     -37.274  27.055   3.879  0.00  0.00    +0.210 HD
ENDBRANCH  17  35
BRANCH  18  37
ATOM     37  O   UNL     1     -40.404  20.370  -0.584  0.00  0.00    -0.380 OA
ATOM     38  H   UNL     1     -40.472  21.054  -1.268  0.00  0.00    +0.211 HD
ENDBRANCH  18  37
BRANCH  21  39
ATOM     39  O   UNL     1     -34.311  27.919   2.094  0.00  0.00    -0.389 OA
ATOM     40  H   UNL     1     -34.500  28.730   2.592  0.00  0.00    +0.210 HD
ENDBRANCH  21  39
TORSDOF 5
ENDMDL
MODEL 7
REMARK VINA RESULT:      -6.5      4.301      7.492
REMARK  Name = 53348738
REMARK  5 active torsions:
REMARK  status: ('A' for Active; 'I' for Inactive)
REMARK    1  A    between atoms: C_6  and  O_31
REMARK    2  A    between atoms: C_10  and  O_33
REMARK    3  A    between atoms: C_17  and  O_35
REMARK    4  A    between atoms: C_18  and  O_37
REMARK    5  A    between atoms: C_21  and  O_39
REMARK                            x       y       z     vdW  Elec       q    Type
REMARK                         _______ _______ _______ _____ _____    ______ ____
ROOT
ATOM      1  O   UNL     1     -35.546  23.345   1.708  0.00  0.00    -0.337 OA
ATOM      2  N   UNL     1     -36.233  30.085   0.904  0.00  0.00    +0.390 N 
ATOM      3  C   UNL     1     -36.038  24.583   2.305  0.00  0.00    +0.097 C 
ATOM      4  C   UNL     1     -37.307  24.155   3.075  0.00  0.00    +0.028 C 
ATOM      5  C   UNL     1     -34.932  25.118   3.246  0.00  0.00    +0.050 C 
ATOM      6  C   UNL     1     -33.919  25.749   2.272  0.00  0.00    +0.093 C 
ATOM      7  C   UNL     1     -34.842  26.511   1.291  0.00  0.00    +0.025 C 
ATOM      8  C   UNL     1     -36.709  22.882   3.707  0.00  0.00    +0.056 C 
ATOM      9  C   UNL     1     -36.148  25.654   1.216  0.00  0.00    +0.030 C 
ATOM     10  C   UNL     1     -36.139  22.236   2.428  0.00  0.00    +0.208 C 
ATOM     11  C   UNL     1     -35.179  27.970   1.716  0.00  0.00    -0.014 C 
ATOM     12  C   UNL     1     -34.422  24.017   4.175  0.00  0.00    +0.005 C 
ATOM     13  C   UNL     1     -35.591  23.190   4.742  0.00  0.00    +0.005 C 
ATOM     14  C   UNL     1     -38.500  23.766   2.147  0.00  0.00    +0.005 C 
ATOM     15  C   UNL     1     -33.935  28.754   2.191  0.00  0.00    +0.048 C 
ATOM     16  C   UNL     1     -32.824  26.601   2.914  0.00  0.00    +0.056 C 
ATOM     17  C   UNL     1     -33.249  27.999   3.350  0.00  0.00    +0.115 C 
ATOM     18  C   UNL     1     -37.246  21.656   1.533  0.00  0.00    +0.161 C 
ATOM     19  C   UNL     1     -37.853  25.173   4.087  0.00  0.00    +0.002 C 
ATOM     20  C   UNL     1     -38.179  22.759   1.042  0.00  0.00    +0.034 C 
ATOM     21  C   UNL     1     -34.314  30.239   2.515  0.00  0.00    +0.074 C 
ATOM     22  C   UNL     1     -35.840  28.716   0.544  0.00  0.00    -0.077 C 
ATOM     23  C   UNL     1     -35.062  30.901   1.305  0.00  0.00    -0.033 C 
ATOM     24  C   UNL     1     -35.511  32.349   1.630  0.00  0.00    -0.019 C 
ATOM     25  C   UNL     1     -33.049  31.038   2.886  0.00  0.00    +0.027 C 
ATOM     26  C   UNL     1     -36.959  30.685  -0.231  0.00  0.00    -0.077 C 
ATOM     27  C   UNL     1     -37.487  32.089   0.079  0.00  0.00    -0.021 C 
ATOM     28  C   UNL     1     -36.325  32.983   0.507  0.00  0.00    -0.004 C 
ATOM     29  C   UNL     1     -38.606  32.059   1.125  0.00  0.00    -0.002 C 
ATOM     30  H   UNL     1     -36.850  30.059   1.716  0.00  0.00    -0.080 HD
ENDROOT
BRANCH   6  31
ATOM     31  O   UNL     1     -33.216  24.722   1.555  0.00  0.00    -0.387 OA
ATOM     32  H   UNL     1     -32.307  24.659   1.888  0.00  0.00    +0.210 HD
ENDBRANCH   6  31
BRANCH  10  33
ATOM     33  O   UNL     1     -35.188  21.231   2.746  0.00  0.00    -0.362 OA
ATOM     34  H   UNL     1     -35.639  20.475   3.151  0.00  0.00    +0.213 HD
ENDBRANCH  10  33
BRANCH  17  35
ATOM     35  O   UNL     1     -34.078  27.894   4.500  0.00  0.00    -0.384 OA
ATOM     36  H   UNL     1     -34.913  28.363   4.341  0.00  0.00    +0.210 HD
ENDBRANCH  17  35
BRANCH  18  37
ATOM     37  O   UNL     1     -38.007  20.688   2.250  0.00  0.00    -0.380 OA
ATOM     38  H   UNL     1     -38.815  21.101   2.592  0.00  0.00    +0.211 HD
ENDBRANCH  18  37
BRANCH  21  39
ATOM     39  O   UNL     1     -35.184  30.246   3.654  0.00  0.00    -0.389 OA
ATOM     40  H   UNL     1     -35.457  31.157   3.847  0.00  0.00    +0.210 HD
ENDBRANCH  21  39
TORSDOF 5
ENDMDL
MODEL 8
REMARK VINA RESULT:      -6.4      4.017      6.976
REMARK  Name = 53348738
REMARK  5 active torsions:
REMARK  status: ('A' for Active; 'I' for Inactive)
REMARK    1  A    between atoms: C_6  and  O_31
REMARK    2  A    between atoms: C_10  and  O_33
REMARK    3  A    between atoms: C_17  and  O_35
REMARK    4  A    between atoms: C_18  and  O_37
REMARK    5  A    between atoms: C_21  and  O_39
REMARK                            x       y       z     vdW  Elec       q    Type
REMARK                         _______ _______ _______ _____ _____    ______ ____
ROOT
ATOM      1  O   UNL     1     -37.386  22.765   3.750  0.00  0.00    -0.337 OA
ATOM      2  N   UNL     1     -41.984  27.009   1.029  0.00  0.00    +0.390 N 
ATOM      3  C   UNL     1     -37.627  23.786   2.734  0.00  0.00    +0.097 C 
ATOM      4  C   UNL     1     -36.290  24.557   2.646  0.00  0.00    +0.028 C 
ATOM      5  C   UNL     1     -37.973  23.057   1.414  0.00  0.00    +0.050 C 
ATOM      6  C   UNL     1     -39.437  22.628   1.624  0.00  0.00    +0.093 C 
ATOM      7  C   UNL     1     -40.062  23.898   2.250  0.00  0.00    +0.025 C 
ATOM      8  C   UNL     1     -35.372  23.319   2.653  0.00  0.00    +0.056 C 
ATOM      9  C   UNL     1     -38.909  24.547   3.084  0.00  0.00    +0.030 C 
ATOM     10  C   UNL     1     -35.953  22.608   3.893  0.00  0.00    +0.208 C 
ATOM     11  C   UNL     1     -40.622  24.922   1.220  0.00  0.00    -0.014 C 
ATOM     12  C   UNL     1     -36.955  21.958   1.110  0.00  0.00    +0.005 C 
ATOM     13  C   UNL     1     -35.520  22.450   1.372  0.00  0.00    +0.005 C 
ATOM     14  C   UNL     1     -35.993  25.436   3.901  0.00  0.00    +0.005 C 
ATOM     15  C   UNL     1     -41.468  24.252   0.114  0.00  0.00    +0.048 C 
ATOM     16  C   UNL     1     -40.160  22.104   0.383  0.00  0.00    +0.056 C 
ATOM     17  C   UNL     1     -40.632  23.168  -0.602  0.00  0.00    +0.115 C 
ATOM     18  C   UNL     1     -35.549  23.310   5.200  0.00  0.00    +0.161 C 
ATOM     19  C   UNL     1     -36.122  25.468   1.422  0.00  0.00    +0.002 C 
ATOM     20  C   UNL     1     -36.114  24.726   5.250  0.00  0.00    +0.034 C 
ATOM     21  C   UNL     1     -42.083  25.333  -0.837  0.00  0.00    +0.074 C 
ATOM     22  C   UNL     1     -41.472  25.980   1.945  0.00  0.00    -0.077 C 
ATOM     23  C   UNL     1     -42.857  26.423  -0.015  0.00  0.00    -0.033 C 
ATOM     24  C   UNL     1     -43.415  27.544  -0.930  0.00  0.00    -0.019 C 
ATOM     25  C   UNL     1     -43.008  24.662  -1.872  0.00  0.00    +0.027 C 
ATOM     26  C   UNL     1     -42.684  28.040   1.817  0.00  0.00    -0.077 C 
ATOM     27  C   UNL     1     -43.182  29.206   0.957  0.00  0.00    -0.021 C 
ATOM     28  C   UNL     1     -44.088  28.667  -0.149  0.00  0.00    -0.004 C 
ATOM     29  C   UNL     1     -42.024  30.038   0.398  0.00  0.00    -0.002 C 
ATOM     30  H   UNL     1     -41.204  27.441   0.535  0.00  0.00    -0.080 HD
ENDROOT
BRANCH   6  31
ATOM     31  O   UNL     1     -39.507  21.553   2.574  0.00  0.00    -0.387 OA
ATOM     32  H   UNL     1     -40.122  21.789   3.285  0.00  0.00    +0.210 HD
ENDBRANCH   6  31
BRANCH  10  33
ATOM     33  O   UNL     1     -35.562  21.244   3.928  0.00  0.00    -0.362 OA
ATOM     34  H   UNL     1     -34.621  21.171   3.706  0.00  0.00    +0.213 HD
ENDBRANCH  10  33
BRANCH  17  35
ATOM     35  O   UNL     1     -39.503  23.708  -1.278  0.00  0.00    -0.384 OA
ATOM     36  H   UNL     1     -39.135  23.039  -1.877  0.00  0.00    +0.210 HD
ENDBRANCH  17  35
BRANCH  18  37
ATOM     37  O   UNL     1     -34.131  23.370   5.314  0.00  0.00    -0.380 OA
ATOM     38  H   UNL     1     -33.729  22.747   4.688  0.00  0.00    +0.211 HD
ENDBRANCH  18  37
BRANCH  21  39
ATOM     39  O   UNL     1     -41.016  25.967  -1.553  0.00  0.00    -0.389 OA
ATOM     40  H   UNL     1     -41.385  26.592  -2.197  0.00  0.00    +0.210 HD
ENDBRANCH  21  39
TORSDOF 5
ENDMDL
MODEL 9
REMARK VINA RESULT:      -6.4      1.807      2.102
REMARK  Name = 53348738
REMARK  5 active torsions:
REMARK  status: ('A' for Active; 'I' for Inactive)
REMARK    1  A    between atoms: C_6  and  O_31
REMARK    2  A    between atoms: C_10  and  O_33
REMARK    3  A    between atoms: C_17  and  O_35
REMARK    4  A    between atoms: C_18  and  O_37
REMARK    5  A    between atoms: C_21  and  O_39
REMARK                            x       y       z     vdW  Elec       q    Type
REMARK                         _______ _______ _______ _____ _____    ______ ____
ROOT
ATOM      1  O   UNL     1     -34.511  18.811   1.257  0.00  0.00    -0.337 OA
ATOM      2  N   UNL     1     -34.889  25.570   2.110  0.00  0.00    +0.390 N 
ATOM      3  C   UNL     1     -34.636  20.103   0.587  0.00  0.00    +0.097 C 
ATOM      4  C   UNL     1     -33.853  19.923  -0.733  0.00  0.00    +0.028 C 
ATOM      5  C   UNL     1     -36.143  20.358   0.346  0.00  0.00    +0.050 C 
ATOM      6  C   UNL     1     -36.650  20.797   1.732  0.00  0.00    +0.093 C 
ATOM      7  C   UNL     1     -35.539  21.772   2.192  0.00  0.00    +0.025 C 
ATOM      8  C   UNL     1     -34.415  18.531  -1.083  0.00  0.00    +0.056 C 
ATOM      9  C   UNL     1     -34.223  21.212   1.559  0.00  0.00    +0.030 C 
ATOM     10  C   UNL     1     -34.139  17.827   0.261  0.00  0.00    +0.208 C 
ATOM     11  C   UNL     1     -35.756  23.252   1.763  0.00  0.00    -0.014 C 
ATOM     12  C   UNL     1     -36.811  19.141  -0.294  0.00  0.00    +0.005 C 
ATOM     13  C   UNL     1     -35.933  18.559  -1.417  0.00  0.00    +0.005 C 
ATOM     14  C   UNL     1     -32.308  19.829  -0.534  0.00  0.00    +0.005 C 
ATOM     15  C   UNL     1     -37.200  23.739   2.013  0.00  0.00    +0.048 C 
ATOM     16  C   UNL     1     -38.065  21.375   1.769  0.00  0.00    +0.056 C 
ATOM     17  C   UNL     1     -38.200  22.815   1.284  0.00  0.00    +0.115 C 
ATOM     18  C   UNL     1     -32.645  17.526   0.458  0.00  0.00    +0.161 C 
ATOM     19  C   UNL     1     -34.092  20.996  -1.805  0.00  0.00    +0.002 C 
ATOM     20  C   UNL     1     -31.835  18.817   0.511  0.00  0.00    +0.034 C 
ATOM     21  C   UNL     1     -37.337  25.258   1.654  0.00  0.00    +0.074 C 
ATOM     22  C   UNL     1     -34.770  24.162   2.516  0.00  0.00    -0.077 C 
ATOM     23  C   UNL     1     -36.242  26.105   2.391  0.00  0.00    -0.033 C 
ATOM     24  C   UNL     1     -36.312  27.603   1.995  0.00  0.00    -0.019 C 
ATOM     25  C   UNL     1     -38.752  25.758   2.005  0.00  0.00    +0.027 C 
ATOM     26  C   UNL     1     -33.836  26.350   2.788  0.00  0.00    -0.077 C 
ATOM     27  C   UNL     1     -33.823  27.822   2.362  0.00  0.00    -0.021 C 
ATOM     28  C   UNL     1     -35.198  28.435   2.621  0.00  0.00    -0.004 C 
ATOM     29  C   UNL     1     -33.383  27.990   0.905  0.00  0.00    -0.002 C 
ATOM     30  H   UNL     1     -34.759  25.644   1.101  0.00  0.00    -0.080 HD
ENDROOT
BRANCH   6  31
ATOM     31  O   UNL     1     -36.688  19.672   2.625  0.00  0.00    -0.387 OA
ATOM     32  H   UNL     1     -35.935  19.089   2.442  0.00  0.00    +0.210 HD
ENDBRANCH   6  31
BRANCH  10  33
ATOM     33  O   UNL     1     -34.900  16.633   0.375  0.00  0.00    -0.362 OA
ATOM     34  H   UNL     1     -34.510  15.946  -0.187  0.00  0.00    +0.213 HD
ENDBRANCH  10  33
BRANCH  17  35
ATOM     35  O   UNL     1     -38.041  22.844  -0.128  0.00  0.00    -0.384 OA
ATOM     36  H   UNL     1     -38.075  23.763  -0.438  0.00  0.00    +0.210 HD
ENDBRANCH  17  35
BRANCH  18  37
ATOM     37  O   UNL     1     -32.158  16.714  -0.607  0.00  0.00    -0.380 OA
ATOM     38  H   UNL     1     -32.143  17.232  -1.427  0.00  0.00    +0.211 HD
ENDBRANCH  18  37
BRANCH  21  39
ATOM     39  O   UNL     1     -37.161  25.406   0.240  0.00  0.00    -0.389 OA
ATOM     40  H   UNL     1     -36.665  24.646  -0.106  0.00  0.00    +0.210 HD
ENDBRANCH  21  39
TORSDOF 5
ENDMDL
