MODEL 1
REMARK VINA RESULT:      -4.7      0.000      0.000
REMARK  Name = 193593
REMARK  10 active torsions:
REMARK  status: ('A' for Active; 'I' for Inactive)
REMARK    1  A    between atoms: C_1  and  N_3
REMARK    2  A    between atoms: C_1  and  C_10
REMARK    3  A    between atoms: C_1  and  C_17
REMARK    4  A    between atoms: C_1  and  C_24
REMARK    5  A    between atoms: C_5  and  C_7
REMARK    6  A    between atoms: N_6  and  C_7
REMARK    7  A    between atoms: C_10  and  C_11
REMARK    8  A    between atoms: C_11  and  N_12
REMARK    9  A    between atoms: C_17  and  C_18
REMARK   10  A    between atoms: C_18  and  N_19
REMARK                            x       y       z     vdW  Elec       q    Type
REMARK                         _______ _______ _______ _____ _____    ______ ____
ROOT
ATOM      1  C   UNL     1     -35.938  24.218   3.712  0.00  0.00    +0.217 C 
ENDROOT
BRANCH   1   3
ATOM      2  O   UNL     1     -33.142  24.944   4.110  0.00  0.00    -0.273 OA
ATOM      3  N   UNL     1     -35.417  25.189   4.647  0.00  0.00    -0.262 N 
ATOM      4  C   UNL     1     -36.405  25.877   5.482  0.00  0.00    +0.116 C 
ATOM      5  C   UNL     1     -34.052  25.454   4.751  0.00  0.00    +0.244 C 
BRANCH   5   6
ATOM      6  C   UNL     1     -33.644  26.468   5.763  0.00  0.00    +0.174 C 
BRANCH   6   7
ATOM      7  N   UNL     1     -32.845  27.399   5.395  0.00  0.00    -0.207 NA
ATOM      8  C   UNL     1     -32.082  28.003   6.482  0.00  0.00    +0.108 C 
ENDBRANCH   6   7
ENDBRANCH   5   6
ENDBRANCH   1   3
BRANCH   1  10
ATOM      9  O   UNL     1     -38.252  23.625   3.491  0.00  0.00    -0.296 OA
ATOM     10  C   UNL     1     -37.403  24.512   3.358  0.00  0.00    +0.159 C 
BRANCH  10  11
ATOM     11  C   UNL     1     -37.762  25.893   2.835  0.00  0.00    -0.013 C 
BRANCH  11  12
ATOM     12  N   UNL     1     -39.123  26.223   3.239  0.00  0.00    +0.387 N 
ATOM     13  C   UNL     1     -40.026  26.187   2.098  0.00  0.00    -0.105 C 
ATOM     14  H   UNL     1     -39.133  27.158   3.644  0.00  0.00    -0.084 HD
ATOM     15  H   UNL     1     -39.435  25.533   3.923  0.00  0.00    -0.084 HD
ENDBRANCH  11  12
ENDBRANCH  10  11
ENDBRANCH   1  10
BRANCH   1  17
ATOM     16  O   UNL     1     -36.103  22.789   5.645  0.00  0.00    -0.296 OA
ATOM     17  C   UNL     1     -35.816  22.875   4.448  0.00  0.00    +0.159 C 
BRANCH  17  18
ATOM     18  C   UNL     1     -35.413  21.658   3.633  0.00  0.00    -0.013 C 
BRANCH  18  19
ATOM     19  N   UNL     1     -36.598  21.075   3.018  0.00  0.00    +0.387 N 
ATOM     20  C   UNL     1     -36.239  20.271   1.858  0.00  0.00    -0.105 C 
ATOM     21  H   UNL     1     -37.225  21.823   2.726  0.00  0.00    -0.084 HD
ATOM     22  H   UNL     1     -37.056  20.472   3.703  0.00  0.00    -0.084 HD
ENDBRANCH  18  19
ENDBRANCH  17  18
ENDBRANCH   1  17
BRANCH   1  24
ATOM     23  O   UNL     1     -35.370  24.070   1.356  0.00  0.00    -0.286 OA
ATOM     24  C   UNL     1     -35.027  24.353   2.501  0.00  0.00    +0.239 C 
ENDBRANCH   1  24
TORSDOF 10
ENDMDL
MODEL 2
REMARK VINA RESULT:      -4.7      1.667      5.096
REMARK  Name = 193593
REMARK  10 active torsions:
REMARK  status: ('A' for Active; 'I' for Inactive)
REMARK    1  A    between atoms: C_1  and  N_3
REMARK    2  A    between atoms: C_1  and  C_10
REMARK    3  A    between atoms: C_1  and  C_17
REMARK    4  A    between atoms: C_1  and  C_24
REMARK    5  A    between atoms: C_5  and  C_7
REMARK    6  A    between atoms: N_6  and  C_7
REMARK    7  A    between atoms: C_10  and  C_11
REMARK    8  A    between atoms: C_11  and  N_12
REMARK    9  A    between atoms: C_17  and  C_18
REMARK   10  A    between atoms: C_18  and  N_19
REMARK                            x       y       z     vdW  Elec       q    Type
REMARK                         _______ _______ _______ _____ _____    ______ ____
ROOT
ATOM      1  C   UNL     1     -35.397  25.268   3.286  0.00  0.00    +0.217 C 
ENDROOT
BRANCH   1   3
ATOM      2  O   UNL     1     -36.444  22.884   4.597  0.00  0.00    -0.273 OA
ATOM      3  N   UNL     1     -35.601  23.968   2.690  0.00  0.00    -0.262 N 
ATOM      4  C   UNL     1     -35.241  23.841   1.276  0.00  0.00    +0.116 C 
ATOM      5  C   UNL     1     -36.111  22.894   3.419  0.00  0.00    +0.244 C 
BRANCH   5   6
ATOM      6  C   UNL     1     -36.262  21.604   2.691  0.00  0.00    +0.174 C 
BRANCH   6   7
ATOM      7  N   UNL     1     -35.474  20.642   2.999  0.00  0.00    -0.207 NA
ATOM      8  C   UNL     1     -34.763  20.058   1.866  0.00  0.00    +0.108 C 
ENDBRANCH   6   7
ENDBRANCH   5   6
ENDBRANCH   1   3
BRANCH   1  10
ATOM      9  O   UNL     1     -33.685  24.194   4.578  0.00  0.00    -0.296 OA
ATOM     10  C   UNL     1     -34.186  25.268   4.230  0.00  0.00    +0.159 C 
BRANCH  10  11
ATOM     11  C   UNL     1     -33.647  26.601   4.723  0.00  0.00    -0.013 C 
BRANCH  11  12
ATOM     12  N   UNL     1     -33.732  26.647   6.177  0.00  0.00    +0.387 N 
ATOM     13  C   UNL     1     -32.570  27.317   6.744  0.00  0.00    -0.105 C 
ATOM     14  H   UNL     1     -33.778  25.695   6.539  0.00  0.00    -0.084 HD
ATOM     15  H   UNL     1     -34.569  27.169   6.438  0.00  0.00    -0.084 HD
ENDBRANCH  11  12
ENDBRANCH  10  11
ENDBRANCH   1  10
BRANCH   1  17
ATOM     16  O   UNL     1     -36.668  25.677   5.293  0.00  0.00    -0.296 OA
ATOM     17  C   UNL     1     -36.693  25.537   4.067  0.00  0.00    +0.159 C 
BRANCH  17  18
ATOM     18  C   UNL     1     -37.976  25.703   3.269  0.00  0.00    -0.013 C 
BRANCH  18  19
ATOM     19  N   UNL     1     -38.969  24.752   3.750  0.00  0.00    +0.387 N 
ATOM     20  C   UNL     1     -39.553  24.006   2.644  0.00  0.00    -0.105 C 
ATOM     21  H   UNL     1     -39.707  25.258   4.238  0.00  0.00    -0.084 HD
ATOM     22  H   UNL     1     -38.510  24.093   4.381  0.00  0.00    -0.084 HD
ENDBRANCH  18  19
ENDBRANCH  17  18
ENDBRANCH   1  17
BRANCH   1  24
ATOM     23  O   UNL     1     -35.464  27.383   2.095  0.00  0.00    -0.286 OA
ATOM     24  C   UNL     1     -35.183  26.187   2.093  0.00  0.00    +0.239 C 
ENDBRANCH   1  24
TORSDOF 10
ENDMDL
MODEL 3
REMARK VINA RESULT:      -4.7      2.139      2.782
REMARK  Name = 193593
REMARK  10 active torsions:
REMARK  status: ('A' for Active; 'I' for Inactive)
REMARK    1  A    between atoms: C_1  and  N_3
REMARK    2  A    between atoms: C_1  and  C_10
REMARK    3  A    between atoms: C_1  and  C_17
REMARK    4  A    between atoms: C_1  and  C_24
REMARK    5  A    between atoms: C_5  and  C_7
REMARK    6  A    between atoms: N_6  and  C_7
REMARK    7  A    between atoms: C_10  and  C_11
REMARK    8  A    between atoms: C_11  and  N_12
REMARK    9  A    between atoms: C_17  and  C_18
REMARK   10  A    between atoms: C_18  and  N_19
REMARK                            x       y       z     vdW  Elec       q    Type
REMARK                         _______ _______ _______ _____ _____    ______ ____
ROOT
ATOM      1  C   UNL     1     -36.065  25.213   2.620  0.00  0.00    +0.217 C 
ENDROOT
BRANCH   1   3
ATOM      2  O   UNL     1     -35.649  26.730   5.074  0.00  0.00    -0.273 OA
ATOM      3  N   UNL     1     -34.800  25.638   3.174  0.00  0.00    -0.262 N 
ATOM      4  C   UNL     1     -33.603  25.263   2.417  0.00  0.00    +0.116 C 
ATOM      5  C   UNL     1     -34.722  26.365   4.362  0.00  0.00    +0.244 C 
BRANCH   5   6
ATOM      6  C   UNL     1     -33.359  26.752   4.819  0.00  0.00    +0.174 C 
BRANCH   6   7
ATOM      7  N   UNL     1     -33.173  26.933   6.074  0.00  0.00    -0.207 NA
ATOM      8  C   UNL     1     -32.157  27.930   6.395  0.00  0.00    +0.108 C 
ENDBRANCH   6   7
ENDBRANCH   5   6
ENDBRANCH   1   3
BRANCH   1  10
ATOM      9  O   UNL     1     -38.128  26.422   2.818  0.00  0.00    -0.296 OA
ATOM     10  C   UNL     1     -36.986  26.410   2.346  0.00  0.00    +0.159 C 
BRANCH  10  11
ATOM     11  C   UNL     1     -36.465  27.546   1.481  0.00  0.00    -0.013 C 
BRANCH  11  12
ATOM     12  N   UNL     1     -36.043  28.648   2.337  0.00  0.00    +0.387 N 
ATOM     13  C   UNL     1     -34.731  29.140   1.942  0.00  0.00    -0.105 C 
ATOM     14  H   UNL     1     -36.002  28.324   3.303  0.00  0.00    -0.084 HD
ATOM     15  H   UNL     1     -36.718  29.408   2.245  0.00  0.00    -0.084 HD
ENDBRANCH  11  12
ENDBRANCH  10  11
ENDBRANCH   1  10
BRANCH   1  17
ATOM     16  O   UNL     1     -37.738  24.590   4.238  0.00  0.00    -0.296 OA
ATOM     17  C   UNL     1     -36.667  24.300   3.699  0.00  0.00    +0.159 C 
BRANCH  17  18
ATOM     18  C   UNL     1     -35.939  23.003   4.012  0.00  0.00    -0.013 C 
BRANCH  18  19
ATOM     19  N   UNL     1     -36.241  22.598   5.379  0.00  0.00    +0.387 N 
ATOM     20  C   UNL     1     -35.105  21.914   5.981  0.00  0.00    -0.105 C 
ATOM     21  H   UNL     1     -37.044  21.971   5.371  0.00  0.00    -0.084 HD
ATOM     22  H   UNL     1     -36.446  23.434   5.927  0.00  0.00    -0.084 HD
ENDBRANCH  18  19
ENDBRANCH  17  18
ENDBRANCH   1  17
BRANCH   1  24
ATOM     23  O   UNL     1     -36.487  24.143   0.481  0.00  0.00    -0.286 OA
ATOM     24  C   UNL     1     -35.677  24.494   1.336  0.00  0.00    +0.239 C 
ENDBRANCH   1  24
TORSDOF 10
ENDMDL
MODEL 4
REMARK VINA RESULT:      -4.6      1.746      2.271
REMARK  Name = 193593
REMARK  10 active torsions:
REMARK  status: ('A' for Active; 'I' for Inactive)
REMARK    1  A    between atoms: C_1  and  N_3
REMARK    2  A    between atoms: C_1  and  C_10
REMARK    3  A    between atoms: C_1  and  C_17
REMARK    4  A    between atoms: C_1  and  C_24
REMARK    5  A    between atoms: C_5  and  C_7
REMARK    6  A    between atoms: N_6  and  C_7
REMARK    7  A    between atoms: C_10  and  C_11
REMARK    8  A    between atoms: C_11  and  N_12
REMARK    9  A    between atoms: C_17  and  C_18
REMARK   10  A    between atoms: C_18  and  N_19
REMARK                            x       y       z     vdW  Elec       q    Type
REMARK                         _______ _______ _______ _____ _____    ______ ____
ROOT
ATOM      1  C   UNL     1     -35.887  25.086   2.694  0.00  0.00    +0.217 C 
ENDROOT
BRANCH   1   3
ATOM      2  O   UNL     1     -35.557  26.646   5.134  0.00  0.00    -0.273 OA
ATOM      3  N   UNL     1     -34.672  25.706   3.171  0.00  0.00    -0.262 N 
ATOM      4  C   UNL     1     -33.483  25.528   2.333  0.00  0.00    +0.116 C 
ATOM      5  C   UNL     1     -34.633  26.434   4.360  0.00  0.00    +0.244 C 
BRANCH   5   6
ATOM      6  C   UNL     1     -33.321  27.033   4.733  0.00  0.00    +0.174 C 
BRANCH   6   7
ATOM      7  N   UNL     1     -32.988  27.030   5.969  0.00  0.00    -0.207 NA
ATOM      8  C   UNL     1     -32.074  28.103   6.349  0.00  0.00    +0.108 C 
ENDBRANCH   6   7
ENDBRANCH   5   6
ENDBRANCH   1   3
BRANCH   1  10
ATOM      9  O   UNL     1     -36.602  27.314   2.164  0.00  0.00    -0.296 OA
ATOM     10  C   UNL     1     -36.941  26.137   2.318  0.00  0.00    +0.159 C 
BRANCH  10  11
ATOM     11  C   UNL     1     -38.387  25.693   2.160  0.00  0.00    -0.013 C 
BRANCH  11  12
ATOM     12  N   UNL     1     -39.195  26.304   3.207  0.00  0.00    +0.387 N 
ATOM     13  C   UNL     1     -40.602  25.966   3.042  0.00  0.00    -0.105 C 
ATOM     14  H   UNL     1     -39.088  27.317   3.163  0.00  0.00    -0.084 HD
ATOM     15  H   UNL     1     -38.879  25.951   4.110  0.00  0.00    -0.084 HD
ENDBRANCH  11  12
ENDBRANCH  10  11
ENDBRANCH   1  10
BRANCH   1  17
ATOM     16  O   UNL     1     -37.459  24.462   4.411  0.00  0.00    -0.296 OA
ATOM     17  C   UNL     1     -36.370  24.234   3.878  0.00  0.00    +0.159 C 
BRANCH  17  18
ATOM     18  C   UNL     1     -35.500  23.063   4.305  0.00  0.00    -0.013 C 
BRANCH  18  19
ATOM     19  N   UNL     1     -36.035  22.486   5.531  0.00  0.00    +0.387 N 
ATOM     20  C   UNL     1     -35.141  21.465   6.059  0.00  0.00    -0.105 C 
ATOM     21  H   UNL     1     -36.942  22.066   5.334  0.00  0.00    -0.084 HD
ATOM     22  H   UNL     1     -36.129  23.228   6.226  0.00  0.00    -0.084 HD
ENDBRANCH  18  19
ENDBRANCH  17  18
ENDBRANCH   1  17
BRANCH   1  24
ATOM     23  O   UNL     1     -36.151  23.469   0.902  0.00  0.00    -0.286 OA
ATOM     24  C   UNL     1     -35.436  24.280   1.486  0.00  0.00    +0.239 C 
ENDBRANCH   1  24
TORSDOF 10
ENDMDL
MODEL 5
REMARK VINA RESULT:      -4.6      2.431      5.637
REMARK  Name = 193593
REMARK  10 active torsions:
REMARK  status: ('A' for Active; 'I' for Inactive)
REMARK    1  A    between atoms: C_1  and  N_3
REMARK    2  A    between atoms: C_1  and  C_10
REMARK    3  A    between atoms: C_1  and  C_17
REMARK    4  A    between atoms: C_1  and  C_24
REMARK    5  A    between atoms: C_5  and  C_7
REMARK    6  A    between atoms: N_6  and  C_7
REMARK    7  A    between atoms: C_10  and  C_11
REMARK    8  A    between atoms: C_11  and  N_12
REMARK    9  A    between atoms: C_17  and  C_18
REMARK   10  A    between atoms: C_18  and  N_19
REMARK                            x       y       z     vdW  Elec       q    Type
REMARK                         _______ _______ _______ _____ _____    ______ ____
ROOT
ATOM      1  C   UNL     1     -35.211  25.256   3.329  0.00  0.00    +0.217 C 
ENDROOT
BRANCH   1   3
ATOM      2  O   UNL     1     -37.425  23.376   3.587  0.00  0.00    -0.273 OA
ATOM      3  N   UNL     1     -35.472  24.101   2.499  0.00  0.00    -0.262 N 
ATOM      4  C   UNL     1     -34.517  23.855   1.416  0.00  0.00    +0.116 C 
ATOM      5  C   UNL     1     -36.568  23.268   2.719  0.00  0.00    +0.244 C 
BRANCH   5   6
ATOM      6  C   UNL     1     -36.717  22.105   1.801  0.00  0.00    +0.174 C 
BRANCH   6   7
ATOM      7  N   UNL     1     -36.633  20.928   2.300  0.00  0.00    -0.207 NA
ATOM      8  C   UNL     1     -35.296  20.345   2.247  0.00  0.00    +0.108 C 
ENDBRANCH   6   7
ENDBRANCH   5   6
ENDBRANCH   1   3
BRANCH   1  10
ATOM      9  O   UNL     1     -36.325  25.668   5.414  0.00  0.00    -0.296 OA
ATOM     10  C   UNL     1     -35.513  24.963   4.806  0.00  0.00    +0.159 C 
BRANCH  10  11
ATOM     11  C   UNL     1     -34.784  23.814   5.483  0.00  0.00    -0.013 C 
BRANCH  11  12
ATOM     12  N   UNL     1     -35.760  22.872   6.017  0.00  0.00    +0.387 N 
ATOM     13  C   UNL     1     -35.275  21.504   5.908  0.00  0.00    -0.105 C 
ATOM     14  H   UNL     1     -36.630  22.961   5.494  0.00  0.00    -0.084 HD
ATOM     15  H   UNL     1     -35.913  23.086   7.003  0.00  0.00    -0.084 HD
ENDBRANCH  11  12
ENDBRANCH  10  11
ENDBRANCH   1  10
BRANCH   1  17
ATOM     16  O   UNL     1     -37.381  26.199   2.871  0.00  0.00    -0.296 OA
ATOM     17  C   UNL     1     -36.157  26.337   2.786  0.00  0.00    +0.159 C 
BRANCH  17  18
ATOM     18  C   UNL     1     -35.532  27.602   2.222  0.00  0.00    -0.013 C 
BRANCH  18  19
ATOM     19  N   UNL     1     -35.299  28.549   3.304  0.00  0.00    +0.387 N 
ATOM     20  C   UNL     1     -34.593  29.728   2.820  0.00  0.00    -0.105 C 
ATOM     21  H   UNL     1     -34.741  28.099   4.028  0.00  0.00    -0.084 HD
ATOM     22  H   UNL     1     -36.202  28.842   3.679  0.00  0.00    -0.084 HD
ENDBRANCH  18  19
ENDBRANCH  17  18
ENDBRANCH   1  17
BRANCH   1  24
ATOM     23  O   UNL     1     -33.052  26.236   3.852  0.00  0.00    -0.286 OA
ATOM     24  C   UNL     1     -33.735  25.543   3.101  0.00  0.00    +0.239 C 
ENDBRANCH   1  24
TORSDOF 10
ENDMDL
MODEL 6
REMARK VINA RESULT:      -4.6      2.552      5.874
REMARK  Name = 193593
REMARK  10 active torsions:
REMARK  status: ('A' for Active; 'I' for Inactive)
REMARK    1  A    between atoms: C_1  and  N_3
REMARK    2  A    between atoms: C_1  and  C_10
REMARK    3  A    between atoms: C_1  and  C_17
REMARK    4  A    between atoms: C_1  and  C_24
REMARK    5  A    between atoms: C_5  and  C_7
REMARK    6  A    between atoms: N_6  and  C_7
REMARK    7  A    between atoms: C_10  and  C_11
REMARK    8  A    between atoms: C_11  and  N_12
REMARK    9  A    between atoms: C_17  and  C_18
REMARK   10  A    between atoms: C_18  and  N_19
REMARK                            x       y       z     vdW  Elec       q    Type
REMARK                         _______ _______ _______ _____ _____    ______ ____
ROOT
ATOM      1  C   UNL     1     -35.212  25.485   3.105  0.00  0.00    +0.217 C 
ENDROOT
BRANCH   1   3
ATOM      2  O   UNL     1     -37.777  24.440   4.016  0.00  0.00    -0.273 OA
ATOM      3  N   UNL     1     -35.944  24.371   2.546  0.00  0.00    -0.262 N 
ATOM      4  C   UNL     1     -35.326  23.700   1.400  0.00  0.00    +0.116 C 
ATOM      5  C   UNL     1     -37.169  23.957   3.069  0.00  0.00    +0.244 C 
BRANCH   5   6
ATOM      6  C   UNL     1     -37.816  22.789   2.409  0.00  0.00    +0.174 C 
BRANCH   6   7
ATOM      7  N   UNL     1     -39.092  22.790   2.299  0.00  0.00    -0.207 NA
ATOM      8  C   UNL     1     -39.655  21.536   1.808  0.00  0.00    +0.108 C 
ENDBRANCH   6   7
ENDBRANCH   5   6
ENDBRANCH   1   3
BRANCH   1  10
ATOM      9  O   UNL     1     -35.830  26.439   5.218  0.00  0.00    -0.296 OA
ATOM     10  C   UNL     1     -35.290  25.492   4.639  0.00  0.00    +0.159 C 
BRANCH  10  11
ATOM     11  C   UNL     1     -34.678  24.329   5.403  0.00  0.00    -0.013 C 
BRANCH  11  12
ATOM     12  N   UNL     1     -35.743  23.514   5.973  0.00  0.00    +0.387 N 
ATOM     13  C   UNL     1     -35.388  22.102   5.946  0.00  0.00    -0.105 C 
ATOM     14  H   UNL     1     -36.596  23.654   5.432  0.00  0.00    -0.084 HD
ATOM     15  H   UNL     1     -35.885  23.796   6.943  0.00  0.00    -0.084 HD
ENDBRANCH  11  12
ENDBRANCH  10  11
ENDBRANCH   1  10
BRANCH   1  17
ATOM     16  O   UNL     1     -37.123  26.739   2.344  0.00  0.00    -0.296 OA
ATOM     17  C   UNL     1     -35.903  26.726   2.521  0.00  0.00    +0.159 C 
BRANCH  17  18
ATOM     18  C   UNL     1     -35.042  27.950   2.252  0.00  0.00    -0.013 C 
BRANCH  18  19
ATOM     19  N   UNL     1     -35.255  28.931   3.308  0.00  0.00    +0.387 N 
ATOM     20  C   UNL     1     -35.240  30.285   2.771  0.00  0.00    -0.105 C 
ATOM     21  H   UNL     1     -34.515  28.839   4.003  0.00  0.00    -0.084 HD
ATOM     22  H   UNL     1     -36.167  28.759   3.733  0.00  0.00    -0.084 HD
ENDBRANCH  18  19
ENDBRANCH  17  18
ENDBRANCH   1  17
BRANCH   1  24
ATOM     23  O   UNL     1     -32.796  25.710   3.187  0.00  0.00    -0.286 OA
ATOM     24  C   UNL     1     -33.789  25.269   2.613  0.00  0.00    +0.239 C 
ENDBRANCH   1  24
TORSDOF 10
ENDMDL
MODEL 7
REMARK VINA RESULT:      -4.5      1.295      3.648
REMARK  Name = 193593
REMARK  10 active torsions:
REMARK  status: ('A' for Active; 'I' for Inactive)
REMARK    1  A    between atoms: C_1  and  N_3
REMARK    2  A    between atoms: C_1  and  C_10
REMARK    3  A    between atoms: C_1  and  C_17
REMARK    4  A    between atoms: C_1  and  C_24
REMARK    5  A    between atoms: C_5  and  C_7
REMARK    6  A    between atoms: N_6  and  C_7
REMARK    7  A    between atoms: C_10  and  C_11
REMARK    8  A    between atoms: C_11  and  N_12
REMARK    9  A    between atoms: C_17  and  C_18
REMARK   10  A    between atoms: C_18  and  N_19
REMARK                            x       y       z     vdW  Elec       q    Type
REMARK                         _______ _______ _______ _____ _____    ______ ____
ROOT
ATOM      1  C   UNL     1     -36.142  24.261   3.805  0.00  0.00    +0.217 C 
ENDROOT
BRANCH   1   3
ATOM      2  O   UNL     1     -33.339  24.547   4.555  0.00  0.00    -0.273 OA
ATOM      3  N   UNL     1     -35.579  25.246   4.700  0.00  0.00    -0.262 N 
ATOM      4  C   UNL     1     -36.522  26.198   5.290  0.00  0.00    +0.116 C 
ATOM      5  C   UNL     1     -34.215  25.286   4.987  0.00  0.00    +0.244 C 
BRANCH   5   6
ATOM      6  C   UNL     1     -33.763  26.343   5.935  0.00  0.00    +0.174 C 
BRANCH   6   7
ATOM      7  N   UNL     1     -32.970  27.248   5.495  0.00  0.00    -0.207 NA
ATOM      8  C   UNL     1     -32.158  27.890   6.524  0.00  0.00    +0.108 C 
ENDBRANCH   6   7
ENDBRANCH   5   6
ENDBRANCH   1   3
BRANCH   1  10
ATOM      9  O   UNL     1     -35.959  22.623   5.549  0.00  0.00    -0.296 OA
ATOM     10  C   UNL     1     -35.924  22.835   4.333  0.00  0.00    +0.159 C 
BRANCH  10  11
ATOM     11  C   UNL     1     -35.654  21.723   3.333  0.00  0.00    -0.013 C 
BRANCH  11  12
ATOM     12  N   UNL     1     -36.921  21.224   2.814  0.00  0.00    +0.387 N 
ATOM     13  C   UNL     1     -36.879  21.108   1.363  0.00  0.00    -0.105 C 
ATOM     14  H   UNL     1     -37.666  21.868   3.076  0.00  0.00    -0.084 HD
ATOM     15  H   UNL     1     -37.093  20.299   3.209  0.00  0.00    -0.084 HD
ENDBRANCH  11  12
ENDBRANCH  10  11
ENDBRANCH   1  10
BRANCH   1  17
ATOM     16  O   UNL     1     -34.611  23.609   2.062  0.00  0.00    -0.296 OA
ATOM     17  C   UNL     1     -35.387  24.470   2.484  0.00  0.00    +0.159 C 
BRANCH  17  18
ATOM     18  C   UNL     1     -35.695  25.728   1.688  0.00  0.00    -0.013 C 
BRANCH  18  19
ATOM     19  N   UNL     1     -34.491  26.544   1.591  0.00  0.00    +0.387 N 
ATOM     20  C   UNL     1     -34.668  27.815   2.279  0.00  0.00    -0.105 C 
ATOM     21  H   UNL     1     -34.286  26.721   0.609  0.00  0.00    -0.084 HD
ATOM     22  H   UNL     1     -33.721  26.040   2.032  0.00  0.00    -0.084 HD
ENDBRANCH  18  19
ENDBRANCH  17  18
ENDBRANCH   1  17
BRANCH   1  24
ATOM     23  O   UNL     1     -38.485  23.876   3.298  0.00  0.00    -0.286 OA
ATOM     24  C   UNL     1     -37.618  24.622   3.748  0.00  0.00    +0.239 C 
ENDBRANCH   1  24
TORSDOF 10
ENDMDL
MODEL 8
REMARK VINA RESULT:      -4.5      2.257      5.608
REMARK  Name = 193593
REMARK  10 active torsions:
REMARK  status: ('A' for Active; 'I' for Inactive)
REMARK    1  A    between atoms: C_1  and  N_3
REMARK    2  A    between atoms: C_1  and  C_10
REMARK    3  A    between atoms: C_1  and  C_17
REMARK    4  A    between atoms: C_1  and  C_24
REMARK    5  A    between atoms: C_5  and  C_7
REMARK    6  A    between atoms: N_6  and  C_7
REMARK    7  A    between atoms: C_10  and  C_11
REMARK    8  A    between atoms: C_11  and  N_12
REMARK    9  A    between atoms: C_17  and  C_18
REMARK   10  A    between atoms: C_18  and  N_19
REMARK                            x       y       z     vdW  Elec       q    Type
REMARK                         _______ _______ _______ _____ _____    ______ ____
ROOT
ATOM      1  C   UNL     1     -37.873  23.602   1.761  0.00  0.00    +0.217 C 
ENDROOT
BRANCH   1   3
ATOM      2  O   UNL     1     -39.785  24.488   3.776  0.00  0.00    -0.273 OA
ATOM      3  N   UNL     1     -38.892  24.615   1.606  0.00  0.00    -0.262 N 
ATOM      4  C   UNL     1     -38.967  25.260   0.293  0.00  0.00    +0.116 C 
ATOM      5  C   UNL     1     -39.756  24.957   2.645  0.00  0.00    +0.244 C 
BRANCH   5   6
ATOM      6  C   UNL     1     -40.769  26.009   2.352  0.00  0.00    +0.174 C 
BRANCH   6   7
ATOM      7  N   UNL     1     -40.951  26.930   3.223  0.00  0.00    -0.207 NA
ATOM      8  C   UNL     1     -42.311  27.007   3.745  0.00  0.00    +0.108 C 
ENDBRANCH   6   7
ENDBRANCH   5   6
ENDBRANCH   1   3
BRANCH   1  10
ATOM      9  O   UNL     1     -39.630  22.036   2.231  0.00  0.00    -0.296 OA
ATOM     10  C   UNL     1     -38.485  22.193   1.796  0.00  0.00    +0.159 C 
BRANCH  10  11
ATOM     11  C   UNL     1     -37.648  21.025   1.303  0.00  0.00    -0.013 C 
BRANCH  11  12
ATOM     12  N   UNL     1     -36.994  20.387   2.438  0.00  0.00    +0.387 N 
ATOM     13  C   UNL     1     -35.546  20.418   2.290  0.00  0.00    -0.105 C 
ATOM     14  H   UNL     1     -37.303  19.417   2.500  0.00  0.00    -0.084 HD
ATOM     15  H   UNL     1     -37.245  20.896   3.286  0.00  0.00    -0.084 HD
ENDBRANCH  11  12
ENDBRANCH  10  11
ENDBRANCH   1  10
BRANCH   1  17
ATOM     16  O   UNL     1     -37.093  23.074   3.979  0.00  0.00    -0.296 OA
ATOM     17  C   UNL     1     -37.205  23.935   3.103  0.00  0.00    +0.159 C 
BRANCH  17  18
ATOM     18  C   UNL     1     -36.623  25.329   3.274  0.00  0.00    -0.013 C 
BRANCH  18  19
ATOM     19  N   UNL     1     -37.038  25.872   4.560  0.00  0.00    +0.387 N 
ATOM     20  C   UNL     1     -35.908  25.965   5.474  0.00  0.00    -0.105 C 
ATOM     21  H   UNL     1     -37.747  25.263   4.966  0.00  0.00    -0.084 HD
ATOM     22  H   UNL     1     -37.415  26.809   4.411  0.00  0.00    -0.084 HD
ENDBRANCH  18  19
ENDBRANCH  17  18
ENDBRANCH   1  17
BRANCH   1  24
ATOM     23  O   UNL     1     -35.757  23.649   0.573  0.00  0.00    -0.286 OA
ATOM     24  C   UNL     1     -36.976  23.797   0.549  0.00  0.00    +0.239 C 
ENDBRANCH   1  24
TORSDOF 10
ENDMDL
MODEL 9
REMARK VINA RESULT:      -4.5      1.833      4.061
REMARK  Name = 193593
REMARK  10 active torsions:
REMARK  status: ('A' for Active; 'I' for Inactive)
REMARK    1  A    between atoms: C_1  and  N_3
REMARK    2  A    between atoms: C_1  and  C_10
REMARK    3  A    between atoms: C_1  and  C_17
REMARK    4  A    between atoms: C_1  and  C_24
REMARK    5  A    between atoms: C_5  and  C_7
REMARK    6  A    between atoms: N_6  and  C_7
REMARK    7  A    between atoms: C_10  and  C_11
REMARK    8  A    between atoms: C_11  and  N_12
REMARK    9  A    between atoms: C_17  and  C_18
REMARK   10  A    between atoms: C_18  and  N_19
REMARK                            x       y       z     vdW  Elec       q    Type
REMARK                         _______ _______ _______ _____ _____    ______ ____
ROOT
ATOM      1  C   UNL     1     -35.557  24.027   4.023  0.00  0.00    +0.217 C 
ENDROOT
BRANCH   1   3
ATOM      2  O   UNL     1     -33.301  25.828   4.430  0.00  0.00    -0.273 OA
ATOM      3  N   UNL     1     -34.618  24.483   3.024  0.00  0.00    -0.262 N 
ATOM      4  C   UNL     1     -34.829  23.984   1.663  0.00  0.00    +0.116 C 
ATOM      5  C   UNL     1     -33.572  25.350   3.336  0.00  0.00    +0.244 C 
BRANCH   5   6
ATOM      6  C   UNL     1     -32.682  25.755   2.212  0.00  0.00    +0.174 C 
BRANCH   6   7
ATOM      7  N   UNL     1     -31.437  25.924   2.461  0.00  0.00    -0.207 NA
ATOM      8  C   UNL     1     -30.946  27.271   2.186  0.00  0.00    +0.108 C 
ENDBRANCH   6   7
ENDBRANCH   5   6
ENDBRANCH   1   3
BRANCH   1  10
ATOM      9  O   UNL     1     -37.668  23.103   3.355  0.00  0.00    -0.296 OA
ATOM     10  C   UNL     1     -36.455  22.907   3.478  0.00  0.00    +0.159 C 
BRANCH  10  11
ATOM     11  C   UNL     1     -35.819  21.574   3.120  0.00  0.00    -0.013 C 
BRANCH  11  12
ATOM     12  N   UNL     1     -36.852  20.655   2.660  0.00  0.00    +0.387 N 
ATOM     13  C   UNL     1     -36.441  19.980   1.437  0.00  0.00    -0.105 C 
ATOM     14  H   UNL     1     -37.708  21.178   2.481  0.00  0.00    -0.084 HD
ATOM     15  H   UNL     1     -37.008  19.953   3.383  0.00  0.00    -0.084 HD
ENDBRANCH  11  12
ENDBRANCH  10  11
ENDBRANCH   1  10
BRANCH   1  17
ATOM     16  O   UNL     1     -36.408  25.719   5.512  0.00  0.00    -0.296 OA
ATOM     17  C   UNL     1     -36.389  25.273   4.362  0.00  0.00    +0.159 C 
BRANCH  17  18
ATOM     18  C   UNL     1     -37.111  25.970   3.221  0.00  0.00    -0.013 C 
BRANCH  18  19
ATOM     19  N   UNL     1     -38.527  26.086   3.545  0.00  0.00    +0.387 N 
ATOM     20  C   UNL     1     -39.345  25.978   2.346  0.00  0.00    -0.105 C 
ATOM     21  H   UNL     1     -38.696  26.990   3.984  0.00  0.00    -0.084 HD
ATOM     22  H   UNL     1     -38.778  25.328   4.180  0.00  0.00    -0.084 HD
ENDBRANCH  18  19
ENDBRANCH  17  18
ENDBRANCH   1  17
BRANCH   1  24
ATOM     23  O   UNL     1     -35.086  22.887   6.115  0.00  0.00    -0.286 OA
ATOM     24  C   UNL     1     -34.671  23.537   5.159  0.00  0.00    +0.239 C 
ENDBRANCH   1  24
TORSDOF 10
ENDMDL
