MODEL 1
REMARK VINA RESULT:      -6.9      0.000      0.000
REMARK  Name = 5312149
REMARK  5 active torsions:
REMARK  status: ('A' for Active; 'I' for Inactive)
REMARK    1  A    between atoms: N_1  and  C_6
REMARK    2  A    between atoms: N_1  and  S_19
REMARK    3  A    between atoms: C_3  and  N_9
REMARK    4  A    between atoms: C_5  and  O_17
REMARK    5  A    between atoms: S_19  and  C_24
REMARK                            x       y       z     vdW  Elec       q    Type
REMARK                         _______ _______ _______ _____ _____    ______ ____
ROOT
ATOM      1  N   UNL     1     -38.068  20.659   1.945  0.00  0.00    -0.215 N 
ATOM      2  H   UNL     1     -38.050  19.973   2.650  0.00  0.00    +0.174 HD
ENDROOT
BRANCH   1   6
ATOM      3  C   UNL     1     -37.787  24.222   3.060  0.00  0.00    +0.083 C 
ATOM      4  C   UNL     1     -37.469  22.879   2.776  0.00  0.00    +0.033 C 
ATOM      5  C   UNL     1     -39.096  24.665   2.773  0.00  0.00    +0.152 C 
ATOM      6  C   UNL     1     -38.417  22.015   2.227  0.00  0.00    +0.066 C 
ATOM      7  C   UNL     1     -40.044  23.801   2.225  0.00  0.00    +0.039 C 
ATOM      8  C   UNL     1     -39.704  22.476   1.952  0.00  0.00    +0.019 C 
BRANCH   3   9
ATOM      9  N   UNL     1     -36.828  25.079   3.611  0.00  0.00    -0.309 N 
ATOM     10  N   UNL     1     -34.701  26.631   4.715  0.00  0.00    +0.386 N 
ATOM     11  C   UNL     1     -36.289  24.751   4.938  0.00  0.00    +0.068 C 
ATOM     12  C   UNL     1     -35.927  25.826   2.725  0.00  0.00    +0.068 C 
ATOM     13  C   UNL     1     -35.683  25.994   5.591  0.00  0.00    -0.060 C 
ATOM     14  C   UNL     1     -35.333  27.029   3.457  0.00  0.00    -0.060 C 
ATOM     15  H   UNL     1     -33.946  25.975   4.520  0.00  0.00    -0.084 HD
ATOM     16  H   UNL     1     -34.331  27.460   5.178  0.00  0.00    -0.084 HD
ENDBRANCH   3   9
BRANCH   5  17
ATOM     17  O   UNL     1     -39.447  25.956   3.033  0.00  0.00    -0.470 OA
ATOM     18  C   UNL     1     -40.842  26.250   3.081  0.00  0.00    +0.253 C 
ENDBRANCH   5  17
ENDBRANCH   1   6
BRANCH   1  19
ATOM     19  S   UNL     1     -37.677  20.284   0.301  0.00  0.00    +0.079 S 
ATOM     20  O   UNL     1     -38.608  19.307  -0.228  0.00  0.00    -0.149 OA
ATOM     21  O   UNL     1     -37.410  21.515  -0.416  0.00  0.00    -0.149 OA
BRANCH  19  24
ATOM     22 CL   UNL     1     -30.058  17.667   1.106  0.00  0.00    -0.082 Cl
ATOM     23  S   UNL     1     -36.104  17.914  -0.333  0.00  0.00    -0.067 S 
ATOM     24  C   UNL     1     -36.081  19.459   0.349  0.00  0.00    +0.151 A 
ATOM     25  C   UNL     1     -34.877  19.839   0.825  0.00  0.00    +0.004 A 
ATOM     26  C   UNL     1     -33.884  18.820   0.633  0.00  0.00    +0.005 A 
ATOM     27  C   UNL     1     -34.427  17.697   0.002  0.00  0.00    +0.031 A 
ATOM     28  C   UNL     1     -34.603  21.149   1.467  0.00  0.00    +0.033 C 
ATOM     29  C   UNL     1     -32.510  18.797   0.976  0.00  0.00    +0.012 C 
ATOM     30  C   UNL     1     -33.641  16.565  -0.292  0.00  0.00    +0.007 C 
ATOM     31  C   UNL     1     -31.728  17.676   0.686  0.00  0.00    +0.058 C 
ATOM     32  C   UNL     1     -32.290  16.573   0.059  0.00  0.00    +0.012 C 
ENDBRANCH  19  24
ENDBRANCH   1  19
TORSDOF 5
ENDMDL
MODEL 2
REMARK VINA RESULT:      -6.9      5.908     10.311
REMARK  Name = 5312149
REMARK  5 active torsions:
REMARK  status: ('A' for Active; 'I' for Inactive)
REMARK    1  A    between atoms: N_1  and  C_6
REMARK    2  A    between atoms: N_1  and  S_19
REMARK    3  A    between atoms: C_3  and  N_9
REMARK    4  A    between atoms: C_5  and  O_17
REMARK    5  A    between atoms: S_19  and  C_24
REMARK                            x       y       z     vdW  Elec       q    Type
REMARK                         _______ _______ _______ _____ _____    ______ ____
ROOT
ATOM      1  N   UNL     1     -35.485  27.562   3.501  0.00  0.00    -0.215 N 
ATOM      2  H   UNL     1     -36.261  28.087   3.200  0.00  0.00    +0.174 HD
ENDROOT
BRANCH   1   6
ATOM      3  C   UNL     1     -36.332  23.932   3.859  0.00  0.00    +0.083 C 
ATOM      4  C   UNL     1     -36.174  25.223   3.316  0.00  0.00    +0.033 C 
ATOM      5  C   UNL     1     -35.930  23.724   5.195  0.00  0.00    +0.152 C 
ATOM      6  C   UNL     1     -35.637  26.263   4.076  0.00  0.00    +0.066 C 
ATOM      7  C   UNL     1     -35.394  24.764   5.956  0.00  0.00    +0.039 C 
ATOM      8  C   UNL     1     -35.247  26.033   5.395  0.00  0.00    +0.019 C 
BRANCH   3   9
ATOM      9  N   UNL     1     -36.871  22.897   3.086  0.00  0.00    -0.309 N 
ATOM     10  N   UNL     1     -37.952  20.944   1.306  0.00  0.00    +0.386 N 
ATOM     11  C   UNL     1     -38.193  23.105   2.479  0.00  0.00    +0.068 C 
ATOM     12  C   UNL     1     -35.976  21.987   2.364  0.00  0.00    +0.068 C 
ATOM     13  C   UNL     1     -38.839  21.764   2.131  0.00  0.00    -0.060 C 
ATOM     14  C   UNL     1     -36.701  20.686   2.018  0.00  0.00    -0.060 C 
ATOM     15  H   UNL     1     -37.750  21.435   0.437  0.00  0.00    -0.084 HD
ATOM     16  H   UNL     1     -38.411  20.056   1.106  0.00  0.00    -0.084 HD
ENDBRANCH   3   9
BRANCH   5  17
ATOM     17  O   UNL     1     -36.065  22.492   5.760  0.00  0.00    -0.470 OA
ATOM     18  C   UNL     1     -34.874  21.724   5.931  0.00  0.00    +0.253 C 
ENDBRANCH   5  17
ENDBRANCH   1   6
BRANCH   1  19
ATOM     19  S   UNL     1     -33.868  28.163   3.359  0.00  0.00    +0.079 S 
ATOM     20  O   UNL     1     -33.228  28.197   4.659  0.00  0.00    -0.149 OA
ATOM     21  O   UNL     1     -33.221  27.521   2.233  0.00  0.00    -0.149 OA
BRANCH  19  24
ATOM     22 CL   UNL     1     -33.367  36.043   1.573  0.00  0.00    -0.082 Cl
ATOM     23  S   UNL     1     -35.487  30.217   2.074  0.00  0.00    -0.067 S 
ATOM     24  C   UNL     1     -34.023  29.879   2.847  0.00  0.00    +0.151 A 
ATOM     25  C   UNL     1     -33.196  30.938   2.961  0.00  0.00    +0.004 A 
ATOM     26  C   UNL     1     -33.770  32.124   2.388  0.00  0.00    +0.005 A 
ATOM     27  C   UNL     1     -35.038  31.869   1.860  0.00  0.00    +0.031 A 
ATOM     28  C   UNL     1     -31.857  30.894   3.600  0.00  0.00    +0.033 C 
ATOM     29  C   UNL     1     -33.255  33.440   2.290  0.00  0.00    +0.012 C 
ATOM     30  C   UNL     1     -35.798  32.882   1.243  0.00  0.00    +0.007 C 
ATOM     31  C   UNL     1     -34.006  34.448   1.679  0.00  0.00    +0.058 C 
ATOM     32  C   UNL     1     -35.263  34.169   1.163  0.00  0.00    +0.012 C 
ENDBRANCH  19  24
ENDBRANCH   1  19
TORSDOF 5
ENDMDL
MODEL 3
REMARK VINA RESULT:      -6.7      5.971     10.299
REMARK  Name = 5312149
REMARK  5 active torsions:
REMARK  status: ('A' for Active; 'I' for Inactive)
REMARK    1  A    between atoms: N_1  and  C_6
REMARK    2  A    between atoms: N_1  and  S_19
REMARK    3  A    between atoms: C_3  and  N_9
REMARK    4  A    between atoms: C_5  and  O_17
REMARK    5  A    between atoms: S_19  and  C_24
REMARK                            x       y       z     vdW  Elec       q    Type
REMARK                         _______ _______ _______ _____ _____    ______ ____
ROOT
ATOM      1  N   UNL     1     -35.359  27.695   3.748  0.00  0.00    -0.215 N 
ATOM      2  H   UNL     1     -36.051  28.387   3.851  0.00  0.00    +0.174 HD
ENDROOT
BRANCH   1   6
ATOM      3  C   UNL     1     -36.424  24.108   3.870  0.00  0.00    +0.083 C 
ATOM      4  C   UNL     1     -36.221  25.430   3.426  0.00  0.00    +0.033 C 
ATOM      5  C   UNL     1     -35.932  23.757   5.145  0.00  0.00    +0.152 C 
ATOM      6  C   UNL     1     -35.554  26.362   4.222  0.00  0.00    +0.066 C 
ATOM      7  C   UNL     1     -35.266  24.689   5.941  0.00  0.00    +0.039 C 
ATOM      8  C   UNL     1     -35.077  25.991   5.480  0.00  0.00    +0.019 C 
BRANCH   3   9
ATOM      9  N   UNL     1     -37.094  23.182   3.062  0.00  0.00    -0.309 N 
ATOM     10  N   UNL     1     -38.446  21.468   1.223  0.00  0.00    +0.386 N 
ATOM     11  C   UNL     1     -38.443  23.525   2.591  0.00  0.00    +0.068 C 
ATOM     12  C   UNL     1     -36.325  22.287   2.191  0.00  0.00    +0.068 C 
ATOM     13  C   UNL     1     -39.205  22.263   2.188  0.00  0.00    -0.060 C 
ATOM     14  C   UNL     1     -37.163  21.070   1.799  0.00  0.00    -0.060 C 
ATOM     15  H   UNL     1     -38.282  22.022   0.384  0.00  0.00    -0.084 HD
ATOM     16  H   UNL     1     -38.980  20.631   0.989  0.00  0.00    -0.084 HD
ENDBRANCH   3   9
BRANCH   5  17
ATOM     17  O   UNL     1     -36.106  22.489   5.614  0.00  0.00    -0.470 OA
ATOM     18  C   UNL     1     -34.929  21.744   5.919  0.00  0.00    +0.253 C 
ENDBRANCH   5  17
ENDBRANCH   1   6
BRANCH   1  19
ATOM     19  S   UNL     1     -33.843  28.033   2.983  0.00  0.00    +0.079 S 
ATOM     20  O   UNL     1     -32.751  27.812   3.910  0.00  0.00    -0.149 OA
ATOM     21  O   UNL     1     -33.830  27.425   1.667  0.00  0.00    -0.149 OA
BRANCH  19  24
ATOM     22 CL   UNL     1     -35.047  35.773   0.940  0.00  0.00    -0.082 Cl
ATOM     23  S   UNL     1     -32.430  30.577   3.137  0.00  0.00    -0.067 S 
ATOM     24  C   UNL     1     -33.845  29.797   2.642  0.00  0.00    +0.151 A 
ATOM     25  C   UNL     1     -34.757  30.611   2.071  0.00  0.00    +0.004 A 
ATOM     26  C   UNL     1     -34.297  31.970   2.018  0.00  0.00    +0.005 A 
ATOM     27  C   UNL     1     -33.021  32.095   2.575  0.00  0.00    +0.031 A 
ATOM     28  C   UNL     1     -36.075  30.163   1.555  0.00  0.00    +0.033 C 
ATOM     29  C   UNL     1     -34.924  33.134   1.509  0.00  0.00    +0.012 C 
ATOM     30  C   UNL     1     -32.363  33.339   2.636  0.00  0.00    +0.007 C 
ATOM     31  C   UNL     1     -34.272  34.369   1.567  0.00  0.00    +0.058 C 
ATOM     32  C   UNL     1     -33.006  34.468   2.125  0.00  0.00    +0.012 C 
ENDBRANCH  19  24
ENDBRANCH   1  19
TORSDOF 5
ENDMDL
MODEL 4
REMARK VINA RESULT:      -6.6      6.257     10.483
REMARK  Name = 5312149
REMARK  5 active torsions:
REMARK  status: ('A' for Active; 'I' for Inactive)
REMARK    1  A    between atoms: N_1  and  C_6
REMARK    2  A    between atoms: N_1  and  S_19
REMARK    3  A    between atoms: C_3  and  N_9
REMARK    4  A    between atoms: C_5  and  O_17
REMARK    5  A    between atoms: S_19  and  C_24
REMARK                            x       y       z     vdW  Elec       q    Type
REMARK                         _______ _______ _______ _____ _____    ______ ____
ROOT
ATOM      1  N   UNL     1     -34.211  27.698   3.776  0.00  0.00    -0.215 N 
ATOM      2  H   UNL     1     -34.705  28.289   3.163  0.00  0.00    +0.174 HD
ENDROOT
BRANCH   1   6
ATOM      3  C   UNL     1     -36.418  24.678   3.952  0.00  0.00    +0.083 C 
ATOM      4  C   UNL     1     -35.883  25.925   3.573  0.00  0.00    +0.033 C 
ATOM      5  C   UNL     1     -35.754  23.958   4.969  0.00  0.00    +0.152 C 
ATOM      6  C   UNL     1     -34.735  26.432   4.181  0.00  0.00    +0.066 C 
ATOM      7  C   UNL     1     -34.606  24.464   5.578  0.00  0.00    +0.039 C 
ATOM      8  C   UNL     1     -34.096  25.702   5.184  0.00  0.00    +0.019 C 
BRANCH   3   9
ATOM      9  N   UNL     1     -37.570  24.180   3.334  0.00  0.00    -0.309 N 
ATOM     10  N   UNL     1     -39.869  23.324   1.875  0.00  0.00    +0.386 N 
ATOM     11  C   UNL     1     -38.692  25.104   3.118  0.00  0.00    +0.068 C 
ATOM     12  C   UNL     1     -37.461  23.077   2.374  0.00  0.00    +0.068 C 
ATOM     13  C   UNL     1     -39.995  24.329   2.929  0.00  0.00    -0.060 C 
ATOM     14  C   UNL     1     -38.809  22.374   2.210  0.00  0.00    -0.060 C 
ATOM     15  H   UNL     1     -39.644  23.784   0.994  0.00  0.00    -0.084 HD
ATOM     16  H   UNL     1     -40.752  22.820   1.788  0.00  0.00    -0.084 HD
ENDBRANCH   3   9
BRANCH   5  17
ATOM     17  O   UNL     1     -36.236  22.747   5.367  0.00  0.00    -0.470 OA
ATOM     18  C   UNL     1     -35.472  22.034   6.338  0.00  0.00    +0.253 C 
ENDBRANCH   5  17
ENDBRANCH   1   6
BRANCH   1  19
ATOM     19  S   UNL     1     -32.664  28.138   4.413  0.00  0.00    +0.079 S 
ATOM     20  O   UNL     1     -32.695  28.129   5.862  0.00  0.00    -0.149 OA
ATOM     21  O   UNL     1     -31.631  27.421   3.692  0.00  0.00    -0.149 OA
BRANCH  19  24
ATOM     22 CL   UNL     1     -30.367  35.762   2.952  0.00  0.00    -0.082 Cl
ATOM     23  S   UNL     1     -33.667  30.491   3.016  0.00  0.00    -0.067 S 
ATOM     24  C   UNL     1     -32.405  29.853   3.942  0.00  0.00    +0.151 A 
ATOM     25  C   UNL     1     -31.400  30.720   4.185  0.00  0.00    +0.004 A 
ATOM     26  C   UNL     1     -31.649  32.002   3.588  0.00  0.00    +0.005 A 
ATOM     27  C   UNL     1     -32.870  32.016   2.909  0.00  0.00    +0.031 A 
ATOM     28  C   UNL     1     -30.185  30.397   4.973  0.00  0.00    +0.033 C 
ATOM     29  C   UNL     1     -30.871  33.186   3.593  0.00  0.00    +0.012 C 
ATOM     30  C   UNL     1     -33.329  33.169   2.242  0.00  0.00    +0.007 C 
ATOM     31  C   UNL     1     -31.324  34.331   2.932  0.00  0.00    +0.058 C 
ATOM     32  C   UNL     1     -32.540  34.320   2.265  0.00  0.00    +0.012 C 
ENDBRANCH  19  24
ENDBRANCH   1  19
TORSDOF 5
ENDMDL
MODEL 5
REMARK VINA RESULT:      -6.3      2.352      3.027
REMARK  Name = 5312149
REMARK  5 active torsions:
REMARK  status: ('A' for Active; 'I' for Inactive)
REMARK    1  A    between atoms: N_1  and  C_6
REMARK    2  A    between atoms: N_1  and  S_19
REMARK    3  A    between atoms: C_3  and  N_9
REMARK    4  A    between atoms: C_5  and  O_17
REMARK    5  A    between atoms: S_19  and  C_24
REMARK                            x       y       z     vdW  Elec       q    Type
REMARK                         _______ _______ _______ _____ _____    ______ ____
ROOT
ATOM      1  N   UNL     1     -36.313  21.118   0.220  0.00  0.00    -0.215 N 
ATOM      2  H   UNL     1     -36.329  21.234  -0.757  0.00  0.00    +0.174 HD
ENDROOT
BRANCH   1   6
ATOM      3  C   UNL     1     -37.082  23.897   2.609  0.00  0.00    +0.083 C 
ATOM      4  C   UNL     1     -36.385  23.025   1.748  0.00  0.00    +0.033 C 
ATOM      5  C   UNL     1     -38.466  23.684   2.784  0.00  0.00    +0.152 C 
ATOM      6  C   UNL     1     -37.042  21.986   1.089  0.00  0.00    +0.066 C 
ATOM      7  C   UNL     1     -39.123  22.644   2.126  0.00  0.00    +0.039 C 
ATOM      8  C   UNL     1     -38.411  21.795   1.279  0.00  0.00    +0.019 C 
BRANCH   3   9
ATOM      9  N   UNL     1     -36.411  24.935   3.264  0.00  0.00    -0.309 N 
ATOM     10  N   UNL     1     -35.273  27.165   4.636  0.00  0.00    +0.386 N 
ATOM     11  C   UNL     1     -36.428  26.268   2.645  0.00  0.00    +0.068 C 
ATOM     12  C   UNL     1     -36.291  24.915   4.726  0.00  0.00    +0.068 C 
ATOM     13  C   UNL     1     -35.274  27.119   3.174  0.00  0.00    -0.060 C 
ATOM     14  C   UNL     1     -35.143  25.815   5.181  0.00  0.00    -0.060 C 
ATOM     15  H   UNL     1     -36.147  27.578   4.961  0.00  0.00    -0.084 HD
ATOM     16  H   UNL     1     -34.484  27.729   4.950  0.00  0.00    -0.084 HD
ENDBRANCH   3   9
BRANCH   5  17
ATOM     17  O   UNL     1     -39.179  24.503   3.607  0.00  0.00    -0.470 OA
ATOM     18  C   UNL     1     -40.120  25.380   2.991  0.00  0.00    +0.253 C 
ENDBRANCH   5  17
ENDBRANCH   1   6
BRANCH   1  19
ATOM     19  S   UNL     1     -35.404  19.850   0.971  0.00  0.00    +0.079 S 
ATOM     20  O   UNL     1     -35.403  20.017   2.410  0.00  0.00    -0.149 OA
ATOM     21  O   UNL     1     -35.776  18.583   0.373  0.00  0.00    -0.149 OA
BRANCH  19  24
ATOM     22 CL   UNL     1     -27.503  19.769  -0.791  0.00  0.00    -0.082 Cl
ATOM     23  S   UNL     1     -33.455  21.530  -0.397  0.00  0.00    -0.067 S 
ATOM     24  C   UNL     1     -33.701  20.089   0.450  0.00  0.00    +0.151 A 
ATOM     25  C   UNL     1     -32.591  19.339   0.606  0.00  0.00    +0.004 A 
ATOM     26  C   UNL     1     -31.443  19.958   0.004  0.00  0.00    +0.005 A 
ATOM     27  C   UNL     1     -31.778  21.179  -0.588  0.00  0.00    +0.031 A 
ATOM     28  C   UNL     1     -32.551  18.034   1.312  0.00  0.00    +0.033 C 
ATOM     29  C   UNL     1     -30.096  19.525  -0.068  0.00  0.00    +0.012 C 
ATOM     30  C   UNL     1     -30.814  21.970  -1.243  0.00  0.00    +0.007 C 
ATOM     31  C   UNL     1     -29.137  20.308  -0.717  0.00  0.00    +0.058 C 
ATOM     32  C   UNL     1     -29.495  21.516  -1.297  0.00  0.00    +0.012 C 
ENDBRANCH  19  24
ENDBRANCH   1  19
TORSDOF 5
ENDMDL
MODEL 6
REMARK VINA RESULT:      -6.3      3.701      8.470
REMARK  Name = 5312149
REMARK  5 active torsions:
REMARK  status: ('A' for Active; 'I' for Inactive)
REMARK    1  A    between atoms: N_1  and  C_6
REMARK    2  A    between atoms: N_1  and  S_19
REMARK    3  A    between atoms: C_3  and  N_9
REMARK    4  A    between atoms: C_5  and  O_17
REMARK    5  A    between atoms: S_19  and  C_24
REMARK                            x       y       z     vdW  Elec       q    Type
REMARK                         _______ _______ _______ _____ _____    ______ ____
ROOT
ATOM      1  N   UNL     1     -36.183  21.402   3.113  0.00  0.00    -0.215 N 
ATOM      2  H   UNL     1     -36.102  21.199   4.073  0.00  0.00    +0.174 HD
ENDROOT
BRANCH   1   6
ATOM      3  C   UNL     1     -36.389  18.874   0.358  0.00  0.00    +0.083 C 
ATOM      4  C   UNL     1     -36.754  19.803   1.354  0.00  0.00    +0.033 C 
ATOM      5  C   UNL     1     -35.014  18.633   0.153  0.00  0.00    +0.152 C 
ATOM      6  C   UNL     1     -35.787  20.463   2.112  0.00  0.00    +0.066 C 
ATOM      7  C   UNL     1     -34.046  19.292   0.912  0.00  0.00    +0.039 C 
ATOM      8  C   UNL     1     -34.433  20.207   1.891  0.00  0.00    +0.019 C 
BRANCH   3   9
ATOM      9  N   UNL     1     -37.369  18.219  -0.396  0.00  0.00    -0.309 N 
ATOM     10  N   UNL     1     -39.510  16.872  -1.718  0.00  0.00    +0.386 N 
ATOM     11  C   UNL     1     -37.676  16.821  -0.063  0.00  0.00    +0.068 C 
ATOM     12  C   UNL     1     -38.470  18.990  -0.984  0.00  0.00    +0.068 C 
ATOM     13  C   UNL     1     -38.344  16.124  -1.248  0.00  0.00    -0.060 C 
ATOM     14  C   UNL     1     -39.111  18.215  -2.135  0.00  0.00    -0.060 C 
ATOM     15  H   UNL     1     -40.193  16.941  -0.965  0.00  0.00    -0.084 HD
ATOM     16  H   UNL     1     -39.919  16.383  -2.514  0.00  0.00    -0.084 HD
ENDBRANCH   3   9
BRANCH   5  17
ATOM     17  O   UNL     1     -34.616  17.743  -0.799  0.00  0.00    -0.470 OA
ATOM     18  C   UNL     1     -33.998  16.541  -0.344  0.00  0.00    +0.253 C 
ENDBRANCH   5  17
ENDBRANCH   1   6
BRANCH   1  19
ATOM     19  S   UNL     1     -36.814  22.914   2.554  0.00  0.00    +0.079 S 
ATOM     20  O   UNL     1     -36.674  23.016   1.115  0.00  0.00    -0.149 OA
ATOM     21  O   UNL     1     -38.092  23.159   3.191  0.00  0.00    -0.149 OA
BRANCH  19  24
ATOM     22 CL   UNL     1     -32.154  28.000   6.791  0.00  0.00    -0.082 Cl
ATOM     23  S   UNL     1     -35.207  25.300   2.092  0.00  0.00    -0.067 S 
ATOM     24  C   UNL     1     -35.740  24.181   3.240  0.00  0.00    +0.151 A 
ATOM     25  C   UNL     1     -35.282  24.403   4.489  0.00  0.00    +0.004 A 
ATOM     26  C   UNL     1     -34.436  25.562   4.546  0.00  0.00    +0.005 A 
ATOM     27  C   UNL     1     -34.307  26.158   3.288  0.00  0.00    +0.031 A 
ATOM     28  C   UNL     1     -35.609  23.560   5.666  0.00  0.00    +0.033 C 
ATOM     29  C   UNL     1     -33.753  26.150   5.638  0.00  0.00    +0.012 C 
ATOM     30  C   UNL     1     -33.523  27.312   3.095  0.00  0.00    +0.007 C 
ATOM     31  C   UNL     1     -32.974  27.295   5.450  0.00  0.00    +0.058 C 
ATOM     32  C   UNL     1     -32.862  27.868   4.192  0.00  0.00    +0.012 C 
ENDBRANCH  19  24
ENDBRANCH   1  19
TORSDOF 5
ENDMDL
MODEL 7
REMARK VINA RESULT:      -6.2      5.619      9.106
REMARK  Name = 5312149
REMARK  5 active torsions:
REMARK  status: ('A' for Active; 'I' for Inactive)
REMARK    1  A    between atoms: N_1  and  C_6
REMARK    2  A    between atoms: N_1  and  S_19
REMARK    3  A    between atoms: C_3  and  N_9
REMARK    4  A    between atoms: C_5  and  O_17
REMARK    5  A    between atoms: S_19  and  C_24
REMARK                            x       y       z     vdW  Elec       q    Type
REMARK                         _______ _______ _______ _____ _____    ______ ____
ROOT
ATOM      1  N   UNL     1     -34.682  28.041   3.742  0.00  0.00    -0.215 N 
ATOM      2  H   UNL     1     -35.130  28.845   4.092  0.00  0.00    +0.174 HD
ENDROOT
BRANCH   1   6
ATOM      3  C   UNL     1     -36.504  24.775   3.918  0.00  0.00    +0.083 C 
ATOM      4  C   UNL     1     -36.113  26.071   3.525  0.00  0.00    +0.033 C 
ATOM      5  C   UNL     1     -35.797  24.165   4.976  0.00  0.00    +0.152 C 
ATOM      6  C   UNL     1     -35.061  26.729   4.161  0.00  0.00    +0.066 C 
ATOM      7  C   UNL     1     -34.745  24.823   5.613  0.00  0.00    +0.039 C 
ATOM      8  C   UNL     1     -34.377  26.106   5.205  0.00  0.00    +0.019 C 
BRANCH   3   9
ATOM      9  N   UNL     1     -37.562  24.125   3.272  0.00  0.00    -0.309 N 
ATOM     10  N   UNL     1     -39.671  22.949   1.749  0.00  0.00    +0.386 N 
ATOM     11  C   UNL     1     -38.755  24.913   2.936  0.00  0.00    +0.068 C 
ATOM     12  C   UNL     1     -37.284  22.984   2.392  0.00  0.00    +0.068 C 
ATOM     13  C   UNL     1     -39.961  23.997   2.728  0.00  0.00    -0.060 C 
ATOM     14  C   UNL     1     -38.542  22.137   2.201  0.00  0.00    -0.060 C 
ATOM     15  H   UNL     1     -39.440  23.378   0.854  0.00  0.00    -0.084 HD
ATOM     16  H   UNL     1     -40.492  22.353   1.647  0.00  0.00    -0.084 HD
ENDBRANCH   3   9
BRANCH   5  17
ATOM     17  O   UNL     1     -36.141  22.913   5.388  0.00  0.00    -0.470 OA
ATOM     18  C   UNL     1     -35.132  22.146   6.043  0.00  0.00    +0.253 C 
ENDBRANCH   5  17
ENDBRANCH   1   6
BRANCH   1  19
ATOM     19  S   UNL     1     -33.399  28.147   2.585  0.00  0.00    +0.079 S 
ATOM     20  O   UNL     1     -33.180  26.859   1.957  0.00  0.00    -0.149 OA
ATOM     21  O   UNL     1     -33.582  29.339   1.781  0.00  0.00    -0.149 OA
BRANCH  19  24
ATOM     22 CL   UNL     1     -27.398  30.637   7.414  0.00  0.00    -0.082 Cl
ATOM     23  S   UNL     1     -30.620  27.468   3.141  0.00  0.00    -0.067 S 
ATOM     24  C   UNL     1     -31.909  28.489   3.530  0.00  0.00    +0.151 A 
ATOM     25  C   UNL     1     -31.629  29.398   4.486  0.00  0.00    +0.004 A 
ATOM     26  C   UNL     1     -30.276  29.281   4.951  0.00  0.00    +0.005 A 
ATOM     27  C   UNL     1     -29.601  28.250   4.291  0.00  0.00    +0.031 A 
ATOM     28  C   UNL     1     -32.595  30.403   4.998  0.00  0.00    +0.033 C 
ATOM     29  C   UNL     1     -29.573  30.022   5.932  0.00  0.00    +0.012 C 
ATOM     30  C   UNL     1     -28.257  27.945   4.581  0.00  0.00    +0.007 C 
ATOM     31  C   UNL     1     -28.239  29.722   6.222  0.00  0.00    +0.058 C 
ATOM     32  C   UNL     1     -27.591  28.694   5.553  0.00  0.00    +0.012 C 
ENDBRANCH  19  24
ENDBRANCH   1  19
TORSDOF 5
ENDMDL
MODEL 8
REMARK VINA RESULT:      -6.2      2.948      4.973
REMARK  Name = 5312149
REMARK  5 active torsions:
REMARK  status: ('A' for Active; 'I' for Inactive)
REMARK    1  A    between atoms: N_1  and  C_6
REMARK    2  A    between atoms: N_1  and  S_19
REMARK    3  A    between atoms: C_3  and  N_9
REMARK    4  A    between atoms: C_5  and  O_17
REMARK    5  A    between atoms: S_19  and  C_24
REMARK                            x       y       z     vdW  Elec       q    Type
REMARK                         _______ _______ _______ _____ _____    ______ ____
ROOT
ATOM      1  N   UNL     1     -36.908  25.678   1.881  0.00  0.00    -0.215 N 
ATOM      2  H   UNL     1     -37.397  26.376   1.388  0.00  0.00    +0.174 HD
ENDROOT
BRANCH   1   6
ATOM      3  C   UNL     1     -33.581  26.412   3.434  0.00  0.00    +0.083 C 
ATOM      4  C   UNL     1     -34.972  26.337   3.221  0.00  0.00    +0.033 C 
ATOM      5  C   UNL     1     -32.732  25.871   2.444  0.00  0.00    +0.152 C 
ATOM      6  C   UNL     1     -35.494  25.745   2.071  0.00  0.00    +0.066 C 
ATOM      7  C   UNL     1     -33.253  25.280   1.293  0.00  0.00    +0.039 C 
ATOM      8  C   UNL     1     -34.635  25.217   1.107  0.00  0.00    +0.019 C 
BRANCH   3   9
ATOM      9  N   UNL     1     -33.070  27.008   4.592  0.00  0.00    -0.309 N 
ATOM     10  N   UNL     1     -32.226  28.390   6.943  0.00  0.00    +0.386 N 
ATOM     11  C   UNL     1     -32.564  28.384   4.496  0.00  0.00    +0.068 C 
ATOM     12  C   UNL     1     -33.596  26.614   5.904  0.00  0.00    +0.068 C 
ATOM     13  C   UNL     1     -31.609  28.685   5.650  0.00  0.00    -0.060 C 
ATOM     14  C   UNL     1     -32.605  26.980   7.009  0.00  0.00    -0.060 C 
ATOM     15  H   UNL     1     -33.057  28.968   7.060  0.00  0.00    -0.084 HD
ATOM     16  H   UNL     1     -31.556  28.591   7.685  0.00  0.00    -0.084 HD
ENDBRANCH   3   9
BRANCH   5  17
ATOM     17  O   UNL     1     -31.381  25.923   2.609  0.00  0.00    -0.470 OA
ATOM     18  C   UNL     1     -30.652  26.769   1.721  0.00  0.00    +0.253 C 
ENDBRANCH   5  17
ENDBRANCH   1   6
BRANCH   1  19
ATOM     19  S   UNL     1     -37.719  24.309   2.562  0.00  0.00    +0.079 S 
ATOM     20  O   UNL     1     -37.600  24.321   4.006  0.00  0.00    -0.149 OA
ATOM     21  O   UNL     1     -39.014  24.161   1.928  0.00  0.00    -0.149 OA
BRANCH  19  24
ATOM     22 CL   UNL     1     -32.973  17.887   1.230  0.00  0.00    -0.082 Cl
ATOM     23  S   UNL     1     -37.252  22.337   0.468  0.00  0.00    -0.067 S 
ATOM     24  C   UNL     1     -36.802  22.866   2.008  0.00  0.00    +0.151 A 
ATOM     25  C   UNL     1     -35.831  22.130   2.588  0.00  0.00    +0.004 A 
ATOM     26  C   UNL     1     -35.402  21.054   1.739  0.00  0.00    +0.005 A 
ATOM     27  C   UNL     1     -36.106  21.049   0.532  0.00  0.00    +0.031 A 
ATOM     28  C   UNL     1     -35.268  22.395   3.935  0.00  0.00    +0.033 C 
ATOM     29  C   UNL     1     -34.421  20.053   1.947  0.00  0.00    +0.012 C 
ATOM     30  C   UNL     1     -35.859  20.083  -0.462  0.00  0.00    +0.007 C 
ATOM     31  C   UNL     1     -34.173  19.093   0.962  0.00  0.00    +0.058 C 
ATOM     32  C   UNL     1     -34.885  19.110  -0.228  0.00  0.00    +0.012 C 
ENDBRANCH  19  24
ENDBRANCH   1  19
TORSDOF 5
ENDMDL
MODEL 9
REMARK VINA RESULT:      -6.2      3.527      7.825
REMARK  Name = 5312149
REMARK  5 active torsions:
REMARK  status: ('A' for Active; 'I' for Inactive)
REMARK    1  A    between atoms: N_1  and  C_6
REMARK    2  A    between atoms: N_1  and  S_19
REMARK    3  A    between atoms: C_3  and  N_9
REMARK    4  A    between atoms: C_5  and  O_17
REMARK    5  A    between atoms: S_19  and  C_24
REMARK                            x       y       z     vdW  Elec       q    Type
REMARK                         _______ _______ _______ _____ _____    ______ ____
ROOT
ATOM      1  N   UNL     1     -37.149  22.495   3.370  0.00  0.00    -0.215 N 
ATOM      2  H   UNL     1     -37.075  22.219   4.312  0.00  0.00    +0.174 HD
ENDROOT
BRANCH   1   6
ATOM      3  C   UNL     1     -35.257  20.319   0.981  0.00  0.00    +0.083 C 
ATOM      4  C   UNL     1     -35.557  21.213   2.029  0.00  0.00    +0.033 C 
ATOM      5  C   UNL     1     -36.331  19.819   0.214  0.00  0.00    +0.152 C 
ATOM      6  C   UNL     1     -36.872  21.590   2.300  0.00  0.00    +0.066 C 
ATOM      7  C   UNL     1     -37.646  20.197   0.484  0.00  0.00    +0.039 C 
ATOM      8  C   UNL     1     -37.917  21.082   1.527  0.00  0.00    +0.019 C 
BRANCH   3   9
ATOM      9  N   UNL     1     -33.934  19.949   0.720  0.00  0.00    -0.309 N 
ATOM     10  N   UNL     1     -31.163  19.352   0.377  0.00  0.00    +0.386 N 
ATOM     11  C   UNL     1     -33.016  20.977   0.208  0.00  0.00    +0.068 C 
ATOM     12  C   UNL     1     -33.312  18.874   1.500  0.00  0.00    +0.068 C 
ATOM     13  C   UNL     1     -31.822  20.328  -0.490  0.00  0.00    -0.060 C 
ATOM     14  C   UNL     1     -32.106  18.301   0.757  0.00  0.00    -0.060 C 
ATOM     15  H   UNL     1     -30.824  19.820   1.216  0.00  0.00    -0.084 HD
ATOM     16  H   UNL     1     -30.382  18.933  -0.127  0.00  0.00    -0.084 HD
ENDBRANCH   3   9
BRANCH   5  17
ATOM     17  O   UNL     1     -36.087  18.953  -0.809  0.00  0.00    -0.470 OA
ATOM     18  C   UNL     1     -36.162  19.478  -2.134  0.00  0.00    +0.253 C 
ENDBRANCH   5  17
ENDBRANCH   1   6
BRANCH   1  19
ATOM     19  S   UNL     1     -37.625  24.099   2.927  0.00  0.00    +0.079 S 
ATOM     20  O   UNL     1     -37.681  24.228   1.485  0.00  0.00    -0.149 OA
ATOM     21  O   UNL     1     -38.747  24.505   3.750  0.00  0.00    -0.149 OA
BRANCH  19  24
ATOM     22 CL   UNL     1     -31.520  28.147   6.375  0.00  0.00    -0.082 Cl
ATOM     23  S   UNL     1     -35.984  26.447   2.391  0.00  0.00    -0.067 S 
ATOM     24  C   UNL     1     -36.288  25.175   3.461  0.00  0.00    +0.151 A 
ATOM     25  C   UNL     1     -35.488  25.158   4.547  0.00  0.00    +0.004 A 
ATOM     26  C   UNL     1     -34.551  26.246   4.533  0.00  0.00    +0.005 A 
ATOM     27  C   UNL     1     -34.714  27.041   3.395  0.00  0.00    +0.031 A 
ATOM     28  C   UNL     1     -35.561  24.144   5.628  0.00  0.00    +0.033 C 
ATOM     29  C   UNL     1     -33.542  26.604   5.462  0.00  0.00    +0.012 C 
ATOM     30  C   UNL     1     -33.905  28.170   3.162  0.00  0.00    +0.007 C 
ATOM     31  C   UNL     1     -32.738  27.724   5.234  0.00  0.00    +0.058 C 
ATOM     32  C   UNL     1     -32.920  28.497   4.096  0.00  0.00    +0.012 C 
ENDBRANCH  19  24
ENDBRANCH   1  19
TORSDOF 5
ENDMDL
