MODEL 1
REMARK VINA RESULT:      -5.6      0.000      0.000
REMARK  Name = 194104
REMARK  13 active torsions:
REMARK  status: ('A' for Active; 'I' for Inactive)
REMARK    1  A    between atoms: N_2  and  C_5
REMARK    2  A    between atoms: C_3  and  C_22
REMARK    3  A    between atoms: C_5  and  C_8
REMARK    4  A    between atoms: C_5  and  C_16
REMARK    5  A    between atoms: N_7  and  C_10
REMARK    6  A    between atoms: C_10  and  C_13
REMARK    7  A    between atoms: C_16  and  C_19
REMARK    8  A    between atoms: C_22  and  N_23
REMARK    9  A    between atoms: C_22  and  C_27
REMARK   10  A    between atoms: C_27  and  C_28
REMARK   11  A    between atoms: C_28  and  C_29
REMARK   12  A    between atoms: C_29  and  C_30
REMARK   13  A    between atoms: C_30  and  N_31
REMARK                            x       y       z     vdW  Elec       q    Type
REMARK                         _______ _______ _______ _____ _____    ______ ____
ROOT
ATOM      1  O   UNL     1     -33.339  24.950   4.343  0.00  0.00    -0.277 OA
ATOM      2  N   UNL     1     -33.918  27.171   4.686  0.00  0.00    -0.300 N 
ATOM      3  C   UNL     1     -34.103  25.801   4.795  0.00  0.00    +0.202 C 
ATOM      4  H   UNL     1     -34.592  27.768   5.085  0.00  0.00    +0.150 HD
ENDROOT
BRANCH   2   5
ATOM      5  C   UNL     1     -32.784  27.768   4.017  0.00  0.00    +0.151 C 
BRANCH   5   8
ATOM      6  O   UNL     1     -32.445  28.877   6.145  0.00  0.00    -0.273 OA
ATOM      7  N   UNL     1     -30.656  28.706   4.678  0.00  0.00    -0.295 N 
ATOM      8  C   UNL     1     -31.976  28.522   5.067  0.00  0.00    +0.241 C 
ATOM      9  H   UNL     1     -30.377  28.384   3.790  0.00  0.00    +0.150 HD
BRANCH   7  10
ATOM     10  C   UNL     1     -29.675  29.348   5.521  0.00  0.00    +0.175 C 
BRANCH  10  13
ATOM     11  O   UNL     1     -28.690  27.193   6.020  0.00  0.00    -0.273 OA
ATOM     12  N   UNL     1     -28.829  28.764   7.691  0.00  0.00    -0.327 N 
ATOM     13  C   UNL     1     -29.004  28.318   6.400  0.00  0.00    +0.239 C 
ATOM     14  H   UNL     1     -28.402  28.181   8.361  0.00  0.00    +0.145 HD
ATOM     15  H   UNL     1     -29.132  29.667   7.947  0.00  0.00    +0.145 HD
ENDBRANCH  10  13
ENDBRANCH   7  10
ENDBRANCH   5   8
BRANCH   5  16
ATOM     16  C   UNL     1     -33.213  28.712   2.892  0.00  0.00    +0.059 C 
BRANCH  16  19
ATOM     17  N   UNL     1     -35.532  28.035   2.411  0.00  0.00    -0.246 NA
ATOM     18  N   UNL     1     -35.867  29.928   1.174  0.00  0.00    -0.225 NA
ATOM     19  C   UNL     1     -34.683  29.100   2.983  0.00  0.00    +0.148 C 
ATOM     20  C   UNL     1     -35.010  30.244   2.080  0.00  0.00    +0.098 C 
ATOM     21  C   UNL     1     -36.143  28.608   1.419  0.00  0.00    +0.194 C 
ENDBRANCH  16  19
ENDBRANCH   5  16
ENDBRANCH   2   5
BRANCH   3  22
ATOM     22  C   UNL     1     -35.369  25.452   5.572  0.00  0.00    +0.013 C 
BRANCH  22  23
ATOM     23  N   UNL     1     -36.340  26.519   5.338  0.00  0.00    +0.387 N 
ATOM     24  H   UNL     1     -36.242  27.233   6.060  0.00  0.00    -0.089 HD
ATOM     25  H   UNL     1     -37.283  26.132   5.368  0.00  0.00    -0.089 HD
ATOM     26  H   UNL     1     -36.173  26.936   4.423  0.00  0.00    -0.089 HD
ENDBRANCH  22  23
BRANCH  22  27
ATOM     27  C   UNL     1     -35.888  24.082   5.113  0.00  0.00    -0.013 C 
BRANCH  27  28
ATOM     28  C   UNL     1     -35.432  22.926   6.010  0.00  0.00    -0.004 C 
BRANCH  28  29
ATOM     29  C   UNL     1     -35.276  21.631   5.210  0.00  0.00    -0.024 C 
BRANCH  29  30
ATOM     30  C   UNL     1     -35.455  21.882   3.713  0.00  0.00    -0.086 C 
BRANCH  30  31
ATOM     31  N   UNL     1     -36.223  20.801   3.107  0.00  0.00    +0.380 N 
ATOM     32  H   UNL     1     -37.028  21.190   2.616  0.00  0.00    -0.089 HD
ATOM     33  H   UNL     1     -36.545  20.162   3.834  0.00  0.00    -0.089 HD
ATOM     34  H   UNL     1     -35.634  20.294   2.446  0.00  0.00    -0.089 HD
ENDBRANCH  30  31
ENDBRANCH  29  30
ENDBRANCH  28  29
ENDBRANCH  27  28
ENDBRANCH  22  27
ENDBRANCH   3  22
TORSDOF 13
ENDMDL
MODEL 2
REMARK VINA RESULT:      -5.4      3.780      8.162
REMARK  Name = 194104
REMARK  13 active torsions:
REMARK  status: ('A' for Active; 'I' for Inactive)
REMARK    1  A    between atoms: N_2  and  C_5
REMARK    2  A    between atoms: C_3  and  C_22
REMARK    3  A    between atoms: C_5  and  C_8
REMARK    4  A    between atoms: C_5  and  C_16
REMARK    5  A    between atoms: N_7  and  C_10
REMARK    6  A    between atoms: C_10  and  C_13
REMARK    7  A    between atoms: C_16  and  C_19
REMARK    8  A    between atoms: C_22  and  N_23
REMARK    9  A    between atoms: C_22  and  C_27
REMARK   10  A    between atoms: C_27  and  C_28
REMARK   11  A    between atoms: C_28  and  C_29
REMARK   12  A    between atoms: C_29  and  C_30
REMARK   13  A    between atoms: C_30  and  N_31
REMARK                            x       y       z     vdW  Elec       q    Type
REMARK                         _______ _______ _______ _____ _____    ______ ____
ROOT
ATOM      1  O   UNL     1     -36.227  24.577   2.961  0.00  0.00    -0.277 OA
ATOM      2  N   UNL     1     -37.108  22.472   3.386  0.00  0.00    -0.300 N 
ATOM      3  C   UNL     1     -36.430  23.634   3.725  0.00  0.00    +0.202 C 
ATOM      4  H   UNL     1     -37.216  21.776   4.074  0.00  0.00    +0.150 HD
ENDROOT
BRANCH   2   5
ATOM      5  C   UNL     1     -37.664  22.231   2.073  0.00  0.00    +0.151 C 
BRANCH   5   8
ATOM      6  O   UNL     1     -40.072  21.986   2.204  0.00  0.00    -0.273 OA
ATOM      7  N   UNL     1     -39.176  24.117   2.000  0.00  0.00    -0.295 N 
ATOM      8  C   UNL     1     -39.104  22.733   2.086  0.00  0.00    +0.241 C 
ATOM      9  H   UNL     1     -38.339  24.628   1.907  0.00  0.00    +0.150 HD
BRANCH   7  10
ATOM     10  C   UNL     1     -40.427  24.838   2.043  0.00  0.00    +0.175 C 
BRANCH  10  13
ATOM     11  O   UNL     1     -41.155  26.913   3.056  0.00  0.00    -0.273 OA
ATOM     12  N   UNL     1     -39.036  26.142   3.502  0.00  0.00    -0.327 N 
ATOM     13  C   UNL     1     -40.281  26.062   2.918  0.00  0.00    +0.239 C 
ATOM     14  H   UNL     1     -38.818  26.898   4.096  0.00  0.00    +0.145 HD
ATOM     15  H   UNL     1     -38.362  25.445   3.326  0.00  0.00    +0.145 HD
ENDBRANCH  10  13
ENDBRANCH   7  10
ENDBRANCH   5   8
BRANCH   5  16
ATOM     16  C   UNL     1     -37.616  20.751   1.692  0.00  0.00    +0.059 C 
BRANCH  16  19
ATOM     17  N   UNL     1     -35.359  19.807   1.407  0.00  0.00    -0.246 NA
ATOM     18  N   UNL     1     -34.615  21.767   0.496  0.00  0.00    -0.225 NA
ATOM     19  C   UNL     1     -36.497  20.437   0.708  0.00  0.00    +0.148 C 
ATOM     20  C   UNL     1     -35.858  21.680   0.181  0.00  0.00    +0.098 C 
ATOM     21  C   UNL     1     -34.372  20.629   1.221  0.00  0.00    +0.194 C 
ENDBRANCH  16  19
ENDBRANCH   5  16
ENDBRANCH   2   5
BRANCH   3  22
ATOM     22  C   UNL     1     -35.974  23.630   5.180  0.00  0.00    +0.013 C 
BRANCH  22  23
ATOM     23  N   UNL     1     -35.976  22.243   5.641  0.00  0.00    +0.387 N 
ATOM     24  H   UNL     1     -36.461  22.183   6.537  0.00  0.00    -0.089 HD
ATOM     25  H   UNL     1     -35.016  21.920   5.752  0.00  0.00    -0.089 HD
ATOM     26  H   UNL     1     -36.454  21.658   4.956  0.00  0.00    -0.089 HD
ENDBRANCH  22  23
BRANCH  22  27
ATOM     27  C   UNL     1     -34.584  24.275   5.282  0.00  0.00    -0.013 C 
BRANCH  27  28
ATOM     28  C   UNL     1     -34.622  25.731   5.760  0.00  0.00    -0.004 C 
BRANCH  28  29
ATOM     29  C   UNL     1     -33.556  26.573   5.055  0.00  0.00    -0.024 C 
BRANCH  29  30
ATOM     30  C   UNL     1     -34.114  27.224   3.790  0.00  0.00    -0.086 C 
BRANCH  30  31
ATOM     31  N   UNL     1     -35.559  27.392   3.903  0.00  0.00    +0.380 N 
ATOM     32  H   UNL     1     -36.007  27.050   3.053  0.00  0.00    -0.089 HD
ATOM     33  H   UNL     1     -35.778  28.380   4.029  0.00  0.00    -0.089 HD
ATOM     34  H   UNL     1     -35.901  26.862   4.704  0.00  0.00    -0.089 HD
ENDBRANCH  30  31
ENDBRANCH  29  30
ENDBRANCH  28  29
ENDBRANCH  27  28
ENDBRANCH  22  27
ENDBRANCH   3  22
TORSDOF 13
ENDMDL
MODEL 3
REMARK VINA RESULT:      -5.4      4.052      7.654
REMARK  Name = 194104
REMARK  13 active torsions:
REMARK  status: ('A' for Active; 'I' for Inactive)
REMARK    1  A    between atoms: N_2  and  C_5
REMARK    2  A    between atoms: C_3  and  C_22
REMARK    3  A    between atoms: C_5  and  C_8
REMARK    4  A    between atoms: C_5  and  C_16
REMARK    5  A    between atoms: N_7  and  C_10
REMARK    6  A    between atoms: C_10  and  C_13
REMARK    7  A    between atoms: C_16  and  C_19
REMARK    8  A    between atoms: C_22  and  N_23
REMARK    9  A    between atoms: C_22  and  C_27
REMARK   10  A    between atoms: C_27  and  C_28
REMARK   11  A    between atoms: C_28  and  C_29
REMARK   12  A    between atoms: C_29  and  C_30
REMARK   13  A    between atoms: C_30  and  N_31
REMARK                            x       y       z     vdW  Elec       q    Type
REMARK                         _______ _______ _______ _____ _____    ______ ____
ROOT
ATOM      1  O   UNL     1     -35.210  20.807   4.178  0.00  0.00    -0.277 OA
ATOM      2  N   UNL     1     -35.303  22.294   2.399  0.00  0.00    -0.300 N 
ATOM      3  C   UNL     1     -35.215  21.032   2.969  0.00  0.00    +0.202 C 
ATOM      4  H   UNL     1     -35.299  22.365   1.417  0.00  0.00    +0.150 HD
ENDROOT
BRANCH   2   5
ATOM      5  C   UNL     1     -35.400  23.510   3.174  0.00  0.00    +0.151 C 
BRANCH   5   8
ATOM      6  O   UNL     1     -37.295  24.325   4.447  0.00  0.00    -0.273 OA
ATOM      7  N   UNL     1     -37.676  23.366   2.369  0.00  0.00    -0.295 N 
ATOM      8  C   UNL     1     -36.880  23.774   3.431  0.00  0.00    +0.241 C 
ATOM      9  H   UNL     1     -37.245  22.932   1.597  0.00  0.00    +0.150 HD
BRANCH   7  10
ATOM     10  C   UNL     1     -39.107  23.554   2.349  0.00  0.00    +0.175 C 
BRANCH  10  13
ATOM     11  O   UNL     1     -40.624  22.424   0.836  0.00  0.00    -0.273 OA
ATOM     12  N   UNL     1     -39.348  21.166   2.276  0.00  0.00    -0.327 N 
ATOM     13  C   UNL     1     -39.771  22.352   1.717  0.00  0.00    +0.239 C 
ATOM     14  H   UNL     1     -39.710  20.310   1.948  0.00  0.00    +0.145 HD
ATOM     15  H   UNL     1     -38.685  21.172   3.005  0.00  0.00    +0.145 HD
ENDBRANCH  10  13
ENDBRANCH   7  10
ENDBRANCH   5   8
BRANCH   5  16
ATOM     16  C   UNL     1     -34.761  24.701   2.458  0.00  0.00    +0.059 C 
BRANCH  16  19
ATOM     17  N   UNL     1     -33.725  24.854   4.688  0.00  0.00    -0.246 NA
ATOM     18  N   UNL     1     -34.657  26.914   5.020  0.00  0.00    -0.225 NA
ATOM     19  C   UNL     1     -33.846  25.509   3.370  0.00  0.00    +0.148 C 
ATOM     20  C   UNL     1     -34.460  26.815   3.753  0.00  0.00    +0.098 C 
ATOM     21  C   UNL     1     -34.202  25.724   5.524  0.00  0.00    +0.194 C 
ENDBRANCH  16  19
ENDBRANCH   5  16
ENDBRANCH   2   5
BRANCH   3  22
ATOM     22  C   UNL     1     -35.148  19.930   1.917  0.00  0.00    +0.013 C 
BRANCH  22  23
ATOM     23  N   UNL     1     -36.520  19.534   1.603  0.00  0.00    +0.387 N 
ATOM     24  H   UNL     1     -37.059  19.459   2.466  0.00  0.00    -0.089 HD
ATOM     25  H   UNL     1     -36.512  18.632   1.127  0.00  0.00    -0.089 HD
ATOM     26  H   UNL     1     -36.945  20.234   0.996  0.00  0.00    -0.089 HD
ENDBRANCH  22  23
BRANCH  22  27
ATOM     27  C   UNL     1     -34.395  20.446   0.683  0.00  0.00    -0.013 C 
BRANCH  27  28
ATOM     28  C   UNL     1     -33.273  19.511   0.219  0.00  0.00    -0.004 C 
BRANCH  28  29
ATOM     29  C   UNL     1     -32.867  18.539   1.329  0.00  0.00    -0.024 C 
BRANCH  29  30
ATOM     30  C   UNL     1     -31.468  17.975   1.085  0.00  0.00    -0.086 C 
BRANCH  30  31
ATOM     31  N   UNL     1     -31.555  16.618   0.558  0.00  0.00    +0.380 N 
ATOM     32  H   UNL     1     -32.370  16.150   0.955  0.00  0.00    -0.089 HD
ATOM     33  H   UNL     1     -30.711  16.101   0.808  0.00  0.00    -0.089 HD
ATOM     34  H   UNL     1     -31.644  16.653  -0.457  0.00  0.00    -0.089 HD
ENDBRANCH  30  31
ENDBRANCH  29  30
ENDBRANCH  28  29
ENDBRANCH  27  28
ENDBRANCH  22  27
ENDBRANCH   3  22
TORSDOF 13
ENDMDL
MODEL 4
REMARK VINA RESULT:      -5.4      3.690      6.961
REMARK  Name = 194104
REMARK  13 active torsions:
REMARK  status: ('A' for Active; 'I' for Inactive)
REMARK    1  A    between atoms: N_2  and  C_5
REMARK    2  A    between atoms: C_3  and  C_22
REMARK    3  A    between atoms: C_5  and  C_8
REMARK    4  A    between atoms: C_5  and  C_16
REMARK    5  A    between atoms: N_7  and  C_10
REMARK    6  A    between atoms: C_10  and  C_13
REMARK    7  A    between atoms: C_16  and  C_19
REMARK    8  A    between atoms: C_22  and  N_23
REMARK    9  A    between atoms: C_22  and  C_27
REMARK   10  A    between atoms: C_27  and  C_28
REMARK   11  A    between atoms: C_28  and  C_29
REMARK   12  A    between atoms: C_29  and  C_30
REMARK   13  A    between atoms: C_30  and  N_31
REMARK                            x       y       z     vdW  Elec       q    Type
REMARK                         _______ _______ _______ _____ _____    ______ ____
ROOT
ATOM      1  O   UNL     1     -37.514  25.215   2.048  0.00  0.00    -0.277 OA
ATOM      2  N   UNL     1     -37.300  24.136   4.091  0.00  0.00    -0.300 N 
ATOM      3  C   UNL     1     -38.015  24.723   3.057  0.00  0.00    +0.202 C 
ATOM      4  H   UNL     1     -37.800  23.770   4.857  0.00  0.00    +0.150 HD
ENDROOT
BRANCH   2   5
ATOM      5  C   UNL     1     -35.858  24.034   4.101  0.00  0.00    +0.151 C 
BRANCH   5   8
ATOM      6  O   UNL     1     -35.443  21.698   4.598  0.00  0.00    -0.273 OA
ATOM      7  N   UNL     1     -35.295  22.414   2.396  0.00  0.00    -0.295 N 
ATOM      8  C   UNL     1     -35.498  22.592   3.758  0.00  0.00    +0.241 C 
ATOM      9  H   UNL     1     -35.361  23.198   1.803  0.00  0.00    +0.150 HD
BRANCH   7  10
ATOM     10  C   UNL     1     -34.992  21.128   1.813  0.00  0.00    +0.175 C 
BRANCH  10  13
ATOM     11  O   UNL     1     -36.674  20.521   0.180  0.00  0.00    -0.273 OA
ATOM     12  N   UNL     1     -36.948  19.848   2.361  0.00  0.00    -0.327 N 
ATOM     13  C   UNL     1     -36.267  20.470   1.338  0.00  0.00    +0.239 C 
ATOM     14  H   UNL     1     -37.796  19.382   2.177  0.00  0.00    +0.145 HD
ATOM     15  H   UNL     1     -36.588  19.869   3.278  0.00  0.00    +0.145 HD
ENDBRANCH  10  13
ENDBRANCH   7  10
ENDBRANCH   5   8
BRANCH   5  16
ATOM     16  C   UNL     1     -35.264  24.426   5.455  0.00  0.00    +0.059 C 
BRANCH  16  19
ATOM     17  N   UNL     1     -35.139  26.597   4.298  0.00  0.00    -0.246 NA
ATOM     18  N   UNL     1     -33.122  27.044   5.275  0.00  0.00    -0.225 NA
ATOM     19  C   UNL     1     -35.124  25.934   5.617  0.00  0.00    +0.148 C 
ATOM     20  C   UNL     1     -33.768  26.314   6.114  0.00  0.00    +0.098 C 
ATOM     21  C   UNL     1     -33.983  27.181   4.218  0.00  0.00    +0.194 C 
ENDBRANCH  16  19
ENDBRANCH   5  16
ENDBRANCH   2   5
BRANCH   3  22
ATOM     22  C   UNL     1     -39.520  24.671   3.297  0.00  0.00    +0.013 C 
BRANCH  22  23
ATOM     23  N   UNL     1     -39.993  26.045   3.448  0.00  0.00    +0.387 N 
ATOM     24  H   UNL     1     -39.902  26.536   2.558  0.00  0.00    -0.089 HD
ATOM     25  H   UNL     1     -39.436  26.521   4.157  0.00  0.00    -0.089 HD
ATOM     26  H   UNL     1     -40.972  26.039   3.733  0.00  0.00    -0.089 HD
ENDBRANCH  22  23
BRANCH  22  27
ATOM     27  C   UNL     1     -40.200  23.947   2.125  0.00  0.00    -0.013 C 
BRANCH  27  28
ATOM     28  C   UNL     1     -39.686  22.519   1.911  0.00  0.00    -0.004 C 
BRANCH  28  29
ATOM     29  C   UNL     1     -39.712  22.137   0.429  0.00  0.00    -0.024 C 
BRANCH  29  30
ATOM     30  C   UNL     1     -39.179  23.273  -0.443  0.00  0.00    -0.086 C 
BRANCH  30  31
ATOM     31  N   UNL     1     -37.723  23.318  -0.382  0.00  0.00    +0.380 N 
ATOM     32  H   UNL     1     -37.423  24.256  -0.117  0.00  0.00    -0.089 HD
ATOM     33  H   UNL     1     -37.337  23.082  -1.296  0.00  0.00    -0.089 HD
ATOM     34  H   UNL     1     -37.391  22.647   0.311  0.00  0.00    -0.089 HD
ENDBRANCH  30  31
ENDBRANCH  29  30
ENDBRANCH  28  29
ENDBRANCH  27  28
ENDBRANCH  22  27
ENDBRANCH   3  22
TORSDOF 13
ENDMDL
MODEL 5
REMARK VINA RESULT:      -5.3      1.349      1.563
REMARK  Name = 194104
REMARK  13 active torsions:
REMARK  status: ('A' for Active; 'I' for Inactive)
REMARK    1  A    between atoms: N_2  and  C_5
REMARK    2  A    between atoms: C_3  and  C_22
REMARK    3  A    between atoms: C_5  and  C_8
REMARK    4  A    between atoms: C_5  and  C_16
REMARK    5  A    between atoms: N_7  and  C_10
REMARK    6  A    between atoms: C_10  and  C_13
REMARK    7  A    between atoms: C_16  and  C_19
REMARK    8  A    between atoms: C_22  and  N_23
REMARK    9  A    between atoms: C_22  and  C_27
REMARK   10  A    between atoms: C_27  and  C_28
REMARK   11  A    between atoms: C_28  and  C_29
REMARK   12  A    between atoms: C_29  and  C_30
REMARK   13  A    between atoms: C_30  and  N_31
REMARK                            x       y       z     vdW  Elec       q    Type
REMARK                         _______ _______ _______ _____ _____    ______ ____
ROOT
ATOM      1  O   UNL     1     -32.802  25.455   3.758  0.00  0.00    -0.277 OA
ATOM      2  N   UNL     1     -33.506  27.603   4.284  0.00  0.00    -0.300 N 
ATOM      3  C   UNL     1     -33.668  26.231   4.157  0.00  0.00    +0.202 C 
ATOM      4  H   UNL     1     -34.265  28.135   4.614  0.00  0.00    +0.150 HD
ENDROOT
BRANCH   2   5
ATOM      5  C   UNL     1     -32.278  28.290   3.955  0.00  0.00    +0.151 C 
BRANCH   5   8
ATOM      6  O   UNL     1     -32.289  28.837   6.316  0.00  0.00    -0.273 OA
ATOM      7  N   UNL     1     -30.318  29.097   5.119  0.00  0.00    -0.295 N 
ATOM      8  C   UNL     1     -31.662  28.780   5.261  0.00  0.00    +0.241 C 
ATOM      9  H   UNL     1     -29.906  29.017   4.228  0.00  0.00    +0.150 HD
BRANCH   7  10
ATOM     10  C   UNL     1     -29.498  29.536   6.224  0.00  0.00    +0.175 C 
BRANCH  10  13
ATOM     11  O   UNL     1     -28.827  27.214   6.377  0.00  0.00    -0.273 OA
ATOM     12  N   UNL     1     -28.192  28.667   8.042  0.00  0.00    -0.327 N 
ATOM     13  C   UNL     1     -28.806  28.347   6.851  0.00  0.00    +0.239 C 
ATOM     14  H   UNL     1     -27.707  27.974   8.547  0.00  0.00    +0.145 HD
ATOM     15  H   UNL     1     -28.238  29.587   8.389  0.00  0.00    +0.145 HD
ENDBRANCH  10  13
ENDBRANCH   7  10
ENDBRANCH   5   8
BRANCH   5  16
ATOM     16  C   UNL     1     -32.513  29.463   3.001  0.00  0.00    +0.059 C 
BRANCH  16  19
ATOM     17  N   UNL     1     -34.910  29.939   3.310  0.00  0.00    -0.246 NA
ATOM     18  N   UNL     1     -34.706  31.902   2.155  0.00  0.00    -0.225 NA
ATOM     19  C   UNL     1     -33.542  30.451   3.533  0.00  0.00    +0.148 C 
ATOM     20  C   UNL     1     -33.571  31.708   2.727  0.00  0.00    +0.098 C 
ATOM     21  C   UNL     1     -35.462  30.823   2.536  0.00  0.00    +0.194 C 
ENDBRANCH  16  19
ENDBRANCH   5  16
ENDBRANCH   2   5
BRANCH   3  22
ATOM     22  C   UNL     1     -35.055  25.773   4.597  0.00  0.00    +0.013 C 
BRANCH  22  23
ATOM     23  N   UNL     1     -35.920  26.950   4.631  0.00  0.00    +0.387 N 
ATOM     24  H   UNL     1     -36.869  26.669   4.880  0.00  0.00    -0.089 HD
ATOM     25  H   UNL     1     -35.927  27.394   3.713  0.00  0.00    -0.089 HD
ATOM     26  H   UNL     1     -35.569  27.611   5.324  0.00  0.00    -0.089 HD
ENDBRANCH  22  23
BRANCH  22  27
ATOM     27  C   UNL     1     -35.571  24.700   3.627  0.00  0.00    -0.013 C 
BRANCH  27  28
ATOM     28  C   UNL     1     -35.439  23.273   4.172  0.00  0.00    -0.004 C 
BRANCH  28  29
ATOM     29  C   UNL     1     -34.985  23.278   5.633  0.00  0.00    -0.024 C 
BRANCH  29  30
ATOM     30  C   UNL     1     -35.588  22.103   6.402  0.00  0.00    -0.086 C 
BRANCH  30  31
ATOM     31  N   UNL     1     -35.157  20.840   5.816  0.00  0.00    +0.380 N 
ATOM     32  H   UNL     1     -35.089  20.132   6.547  0.00  0.00    -0.089 HD
ATOM     33  H   UNL     1     -34.245  20.962   5.376  0.00  0.00    -0.089 HD
ATOM     34  H   UNL     1     -35.836  20.540   5.116  0.00  0.00    -0.089 HD
ENDBRANCH  30  31
ENDBRANCH  29  30
ENDBRANCH  28  29
ENDBRANCH  27  28
ENDBRANCH  22  27
ENDBRANCH   3  22
TORSDOF 13
ENDMDL
MODEL 6
REMARK VINA RESULT:      -5.3      1.560      2.064
REMARK  Name = 194104
REMARK  13 active torsions:
REMARK  status: ('A' for Active; 'I' for Inactive)
REMARK    1  A    between atoms: N_2  and  C_5
REMARK    2  A    between atoms: C_3  and  C_22
REMARK    3  A    between atoms: C_5  and  C_8
REMARK    4  A    between atoms: C_5  and  C_16
REMARK    5  A    between atoms: N_7  and  C_10
REMARK    6  A    between atoms: C_10  and  C_13
REMARK    7  A    between atoms: C_16  and  C_19
REMARK    8  A    between atoms: C_22  and  N_23
REMARK    9  A    between atoms: C_22  and  C_27
REMARK   10  A    between atoms: C_27  and  C_28
REMARK   11  A    between atoms: C_28  and  C_29
REMARK   12  A    between atoms: C_29  and  C_30
REMARK   13  A    between atoms: C_30  and  N_31
REMARK                            x       y       z     vdW  Elec       q    Type
REMARK                         _______ _______ _______ _____ _____    ______ ____
ROOT
ATOM      1  O   UNL     1     -33.398  24.892   4.408  0.00  0.00    -0.277 OA
ATOM      2  N   UNL     1     -33.778  27.084   5.070  0.00  0.00    -0.300 N 
ATOM      3  C   UNL     1     -34.098  25.738   4.962  0.00  0.00    +0.202 C 
ATOM      4  H   UNL     1     -34.410  27.679   5.536  0.00  0.00    +0.150 HD
ENDROOT
BRANCH   2   5
ATOM      5  C   UNL     1     -32.564  27.657   4.534  0.00  0.00    +0.151 C 
BRANCH   5   8
ATOM      6  O   UNL     1     -32.339  28.486   6.800  0.00  0.00    -0.273 OA
ATOM      7  N   UNL     1     -30.667  28.966   5.265  0.00  0.00    -0.295 N 
ATOM      8  C   UNL     1     -31.878  28.417   5.663  0.00  0.00    +0.241 C 
ATOM      9  H   UNL     1     -30.385  28.855   4.327  0.00  0.00    +0.150 HD
BRANCH   7  10
ATOM     10  C   UNL     1     -29.803  29.691   6.166  0.00  0.00    +0.175 C 
BRANCH  10  13
ATOM     11  O   UNL     1     -27.474  29.110   6.484  0.00  0.00    -0.273 OA
ATOM     12  N   UNL     1     -29.090  27.593   7.091  0.00  0.00    -0.327 N 
ATOM     13  C   UNL     1     -28.658  28.805   6.599  0.00  0.00    +0.239 C 
ATOM     14  H   UNL     1     -28.436  26.927   7.406  0.00  0.00    +0.145 HD
ATOM     15  H   UNL     1     -30.054  27.391   7.128  0.00  0.00    +0.145 HD
ENDBRANCH  10  13
ENDBRANCH   7  10
ENDBRANCH   5   8
BRANCH   5  16
ATOM     16  C   UNL     1     -32.842  28.588   3.353  0.00  0.00    +0.059 C 
BRANCH  16  19
ATOM     17  N   UNL     1     -33.197  27.469   1.187  0.00  0.00    -0.246 NA
ATOM     18  N   UNL     1     -31.630  25.888   1.706  0.00  0.00    -0.225 NA
ATOM     19  C   UNL     1     -32.192  28.105   2.063  0.00  0.00    +0.148 C 
ATOM     20  C   UNL     1     -31.260  26.963   2.307  0.00  0.00    +0.098 C 
ATOM     21  C   UNL     1     -32.783  26.246   1.056  0.00  0.00    +0.194 C 
ENDBRANCH  16  19
ENDBRANCH   5  16
ENDBRANCH   2   5
BRANCH   3  22
ATOM     22  C   UNL     1     -35.424  25.406   5.638  0.00  0.00    +0.013 C 
BRANCH  22  23
ATOM     23  N   UNL     1     -36.353  26.497   5.351  0.00  0.00    +0.387 N 
ATOM     24  H   UNL     1     -36.691  26.897   6.227  0.00  0.00    -0.089 HD
ATOM     25  H   UNL     1     -37.142  26.140   4.814  0.00  0.00    -0.089 HD
ATOM     26  H   UNL     1     -35.874  27.219   4.811  0.00  0.00    -0.089 HD
ENDBRANCH  22  23
BRANCH  22  27
ATOM     27  C   UNL     1     -35.937  24.054   5.121  0.00  0.00    -0.013 C 
BRANCH  27  28
ATOM     28  C   UNL     1     -35.495  22.866   5.981  0.00  0.00    -0.004 C 
BRANCH  28  29
ATOM     29  C   UNL     1     -35.298  21.609   5.130  0.00  0.00    -0.024 C 
BRANCH  29  30
ATOM     30  C   UNL     1     -35.574  21.892   3.655  0.00  0.00    -0.086 C 
BRANCH  30  31
ATOM     31  N   UNL     1     -36.158  20.718   3.015  0.00  0.00    +0.380 N 
ATOM     32  H   UNL     1     -36.698  21.009   2.200  0.00  0.00    -0.089 HD
ATOM     33  H   UNL     1     -36.769  20.239   3.676  0.00  0.00    -0.089 HD
ATOM     34  H   UNL     1     -35.413  20.086   2.720  0.00  0.00    -0.089 HD
ENDBRANCH  30  31
ENDBRANCH  29  30
ENDBRANCH  28  29
ENDBRANCH  27  28
ENDBRANCH  22  27
ENDBRANCH   3  22
TORSDOF 13
ENDMDL
MODEL 7
REMARK VINA RESULT:      -5.2      4.762      7.560
REMARK  Name = 194104
REMARK  13 active torsions:
REMARK  status: ('A' for Active; 'I' for Inactive)
REMARK    1  A    between atoms: N_2  and  C_5
REMARK    2  A    between atoms: C_3  and  C_22
REMARK    3  A    between atoms: C_5  and  C_8
REMARK    4  A    between atoms: C_5  and  C_16
REMARK    5  A    between atoms: N_7  and  C_10
REMARK    6  A    between atoms: C_10  and  C_13
REMARK    7  A    between atoms: C_16  and  C_19
REMARK    8  A    between atoms: C_22  and  N_23
REMARK    9  A    between atoms: C_22  and  C_27
REMARK   10  A    between atoms: C_27  and  C_28
REMARK   11  A    between atoms: C_28  and  C_29
REMARK   12  A    between atoms: C_29  and  C_30
REMARK   13  A    between atoms: C_30  and  N_31
REMARK                            x       y       z     vdW  Elec       q    Type
REMARK                         _______ _______ _______ _____ _____    ______ ____
ROOT
ATOM      1  O   UNL     1     -35.047  20.671   4.617  0.00  0.00    -0.277 OA
ATOM      2  N   UNL     1     -36.317  22.174   3.386  0.00  0.00    -0.300 N 
ATOM      3  C   UNL     1     -35.603  21.762   4.503  0.00  0.00    +0.202 C 
ATOM      4  H   UNL     1     -36.725  23.070   3.397  0.00  0.00    +0.150 HD
ENDROOT
BRANCH   2   5
ATOM      5  C   UNL     1     -36.493  21.353   2.210  0.00  0.00    +0.151 C 
BRANCH   5   8
ATOM      6  O   UNL     1     -34.605  22.252   0.983  0.00  0.00    -0.273 OA
ATOM      7  N   UNL     1     -34.598  20.003   1.552  0.00  0.00    -0.295 N 
ATOM      8  C   UNL     1     -35.146  21.276   1.499  0.00  0.00    +0.241 C 
ATOM      9  H   UNL     1     -35.113  19.286   1.990  0.00  0.00    +0.150 HD
BRANCH   7  10
ATOM     10  C   UNL     1     -33.304  19.685   0.996  0.00  0.00    +0.175 C 
BRANCH  10  13
ATOM     11  O   UNL     1     -31.999  17.791   1.754  0.00  0.00    -0.273 OA
ATOM     12  N   UNL     1     -33.973  17.406   0.642  0.00  0.00    -0.327 N 
ATOM     13  C   UNL     1     -33.008  18.216   1.198  0.00  0.00    +0.239 C 
ATOM     14  H   UNL     1     -33.891  16.426   0.707  0.00  0.00    +0.145 HD
ATOM     15  H   UNL     1     -34.745  17.805   0.177  0.00  0.00    +0.145 HD
ENDBRANCH  10  13
ENDBRANCH   7  10
ENDBRANCH   5   8
BRANCH   5  16
ATOM     16  C   UNL     1     -37.563  21.915   1.272  0.00  0.00    +0.059 C 
BRANCH  16  19
ATOM     17  N   UNL     1     -38.877  23.376   2.756  0.00  0.00    -0.246 NA
ATOM     18  N   UNL     1     -39.954  24.294   0.961  0.00  0.00    -0.225 NA
ATOM     19  C   UNL     1     -37.943  23.350   1.613  0.00  0.00    +0.148 C 
ATOM     20  C   UNL     1     -38.782  23.969   0.543  0.00  0.00    +0.098 C 
ATOM     21  C   UNL     1     -39.955  23.921   2.280  0.00  0.00    +0.194 C 
ENDBRANCH  16  19
ENDBRANCH   5  16
ENDBRANCH   2   5
BRANCH   3  22
ATOM     22  C   UNL     1     -35.558  22.836   5.585  0.00  0.00    +0.013 C 
BRANCH  22  23
ATOM     23  N   UNL     1     -35.149  22.192   6.831  0.00  0.00    +0.387 N 
ATOM     24  H   UNL     1     -34.165  21.926   6.771  0.00  0.00    -0.089 HD
ATOM     25  H   UNL     1     -35.717  21.360   6.987  0.00  0.00    -0.089 HD
ATOM     26  H   UNL     1     -35.278  22.841   7.608  0.00  0.00    -0.089 HD
ENDBRANCH  22  23
BRANCH  22  27
ATOM     27  C   UNL     1     -34.590  23.949   5.160  0.00  0.00    -0.013 C 
BRANCH  27  28
ATOM     28  C   UNL     1     -35.117  25.358   5.451  0.00  0.00    -0.004 C 
BRANCH  28  29
ATOM     29  C   UNL     1     -35.058  26.241   4.201  0.00  0.00    -0.024 C 
BRANCH  29  30
ATOM     30  C   UNL     1     -36.333  26.108   3.370  0.00  0.00    -0.086 C 
BRANCH  30  31
ATOM     31  N   UNL     1     -37.480  25.867   4.238  0.00  0.00    +0.380 N 
ATOM     32  H   UNL     1     -37.153  25.587   5.163  0.00  0.00    -0.089 HD
ATOM     33  H   UNL     1     -38.057  25.125   3.842  0.00  0.00    -0.089 HD
ATOM     34  H   UNL     1     -38.032  26.721   4.317  0.00  0.00    -0.089 HD
ENDBRANCH  30  31
ENDBRANCH  29  30
ENDBRANCH  28  29
ENDBRANCH  27  28
ENDBRANCH  22  27
ENDBRANCH   3  22
TORSDOF 13
ENDMDL
MODEL 8
REMARK VINA RESULT:      -5.2      2.531      7.369
REMARK  Name = 194104
REMARK  13 active torsions:
REMARK  status: ('A' for Active; 'I' for Inactive)
REMARK    1  A    between atoms: N_2  and  C_5
REMARK    2  A    between atoms: C_3  and  C_22
REMARK    3  A    between atoms: C_5  and  C_8
REMARK    4  A    between atoms: C_5  and  C_16
REMARK    5  A    between atoms: N_7  and  C_10
REMARK    6  A    between atoms: C_10  and  C_13
REMARK    7  A    between atoms: C_16  and  C_19
REMARK    8  A    between atoms: C_22  and  N_23
REMARK    9  A    between atoms: C_22  and  C_27
REMARK   10  A    between atoms: C_27  and  C_28
REMARK   11  A    between atoms: C_28  and  C_29
REMARK   12  A    between atoms: C_29  and  C_30
REMARK   13  A    between atoms: C_30  and  N_31
REMARK                            x       y       z     vdW  Elec       q    Type
REMARK                         _______ _______ _______ _____ _____    ______ ____
ROOT
ATOM      1  O   UNL     1     -31.474  27.478   4.097  0.00  0.00    -0.277 OA
ATOM      2  N   UNL     1     -33.465  27.473   5.289  0.00  0.00    -0.300 N 
ATOM      3  C   UNL     1     -32.181  27.913   5.004  0.00  0.00    +0.202 C 
ATOM      4  H   UNL     1     -33.947  27.890   6.040  0.00  0.00    +0.150 HD
ENDROOT
BRANCH   2   5
ATOM      5  C   UNL     1     -34.132  26.433   4.540  0.00  0.00    +0.151 C 
BRANCH   5   8
ATOM      6  O   UNL     1     -35.043  28.257   3.229  0.00  0.00    -0.273 OA
ATOM      7  N   UNL     1     -36.204  26.250   3.306  0.00  0.00    -0.295 N 
ATOM      8  C   UNL     1     -35.163  27.105   3.639  0.00  0.00    +0.241 C 
ATOM      9  H   UNL     1     -36.209  25.342   3.689  0.00  0.00    +0.150 HD
BRANCH   7  10
ATOM     10  C   UNL     1     -37.280  26.635   2.423  0.00  0.00    +0.175 C 
BRANCH  10  13
ATOM     11  O   UNL     1     -39.689  26.437   2.573  0.00  0.00    -0.273 OA
ATOM     12  N   UNL     1     -38.377  25.003   3.801  0.00  0.00    -0.327 N 
ATOM     13  C   UNL     1     -38.578  26.030   2.906  0.00  0.00    +0.239 C 
ATOM     14  H   UNL     1     -39.148  24.528   4.188  0.00  0.00    +0.145 HD
ATOM     15  H   UNL     1     -37.461  24.743   4.056  0.00  0.00    +0.145 HD
ENDBRANCH  10  13
ENDBRANCH   7  10
ENDBRANCH   5   8
BRANCH   5  16
ATOM     16  C   UNL     1     -34.807  25.408   5.454  0.00  0.00    +0.059 C 
BRANCH  16  19
ATOM     17  N   UNL     1     -35.163  23.592   3.827  0.00  0.00    -0.246 NA
ATOM     18  N   UNL     1     -35.901  22.203   5.485  0.00  0.00    -0.225 NA
ATOM     19  C   UNL     1     -34.468  23.973   5.073  0.00  0.00    +0.148 C 
ATOM     20  C   UNL     1     -35.051  22.993   6.038  0.00  0.00    +0.098 C 
ATOM     21  C   UNL     1     -35.927  22.603   4.174  0.00  0.00    +0.194 C 
ENDBRANCH  16  19
ENDBRANCH   5  16
ENDBRANCH   2   5
BRANCH   3  22
ATOM     22  C   UNL     1     -31.737  29.034   5.938  0.00  0.00    +0.013 C 
BRANCH  22  23
ATOM     23  N   UNL     1     -31.937  28.573   7.311  0.00  0.00    +0.387 N 
ATOM     24  H   UNL     1     -31.227  28.988   7.916  0.00  0.00    -0.089 HD
ATOM     25  H   UNL     1     -31.860  27.557   7.342  0.00  0.00    -0.089 HD
ATOM     26  H   UNL     1     -32.863  28.854   7.632  0.00  0.00    -0.089 HD
ENDBRANCH  22  23
BRANCH  22  27
ATOM     27  C   UNL     1     -30.271  29.388   5.651  0.00  0.00    -0.013 C 
BRANCH  27  28
ATOM     28  C   UNL     1     -29.304  28.905   6.737  0.00  0.00    -0.004 C 
BRANCH  28  29
ATOM     29  C   UNL     1     -28.297  27.899   6.175  0.00  0.00    -0.024 C 
BRANCH  29  30
ATOM     30  C   UNL     1     -27.293  27.467   7.243  0.00  0.00    -0.086 C 
BRANCH  30  31
ATOM     31  N   UNL     1     -27.327  26.019   7.414  0.00  0.00    +0.380 N 
ATOM     32  H   UNL     1     -27.740  25.793   8.319  0.00  0.00    -0.089 HD
ATOM     33  H   UNL     1     -26.378  25.649   7.371  0.00  0.00    -0.089 HD
ATOM     34  H   UNL     1     -27.889  25.602   6.671  0.00  0.00    -0.089 HD
ENDBRANCH  30  31
ENDBRANCH  29  30
ENDBRANCH  28  29
ENDBRANCH  27  28
ENDBRANCH  22  27
ENDBRANCH   3  22
TORSDOF 13
ENDMDL
MODEL 9
REMARK VINA RESULT:      -5.2      4.013      7.008
REMARK  Name = 194104
REMARK  13 active torsions:
REMARK  status: ('A' for Active; 'I' for Inactive)
REMARK    1  A    between atoms: N_2  and  C_5
REMARK    2  A    between atoms: C_3  and  C_22
REMARK    3  A    between atoms: C_5  and  C_8
REMARK    4  A    between atoms: C_5  and  C_16
REMARK    5  A    between atoms: N_7  and  C_10
REMARK    6  A    between atoms: C_10  and  C_13
REMARK    7  A    between atoms: C_16  and  C_19
REMARK    8  A    between atoms: C_22  and  N_23
REMARK    9  A    between atoms: C_22  and  C_27
REMARK   10  A    between atoms: C_27  and  C_28
REMARK   11  A    between atoms: C_28  and  C_29
REMARK   12  A    between atoms: C_29  and  C_30
REMARK   13  A    between atoms: C_30  and  N_31
REMARK                            x       y       z     vdW  Elec       q    Type
REMARK                         _______ _______ _______ _____ _____    ______ ____
ROOT
ATOM      1  O   UNL     1     -35.337  20.916   4.194  0.00  0.00    -0.277 OA
ATOM      2  N   UNL     1     -35.160  22.357   2.384  0.00  0.00    -0.300 N 
ATOM      3  C   UNL     1     -35.222  21.108   2.985  0.00  0.00    +0.202 C 
ATOM      4  H   UNL     1     -35.068  22.401   1.404  0.00  0.00    +0.150 HD
ENDROOT
BRANCH   2   5
ATOM      5  C   UNL     1     -35.222  23.597   3.123  0.00  0.00    +0.151 C 
BRANCH   5   8
ATOM      6  O   UNL     1     -37.189  24.001   4.481  0.00  0.00    -0.273 OA
ATOM      7  N   UNL     1     -37.378  24.146   2.173  0.00  0.00    -0.295 N 
ATOM      8  C   UNL     1     -36.695  23.917   3.360  0.00  0.00    +0.241 C 
ATOM      9  H   UNL     1     -36.889  24.053   1.323  0.00  0.00    +0.150 HD
BRANCH   7  10
ATOM     10  C   UNL     1     -38.773  24.517   2.134  0.00  0.00    +0.175 C 
BRANCH  10  13
ATOM     11  O   UNL     1     -39.757  26.564   2.974  0.00  0.00    -0.273 OA
ATOM     12  N   UNL     1     -38.002  26.699   1.494  0.00  0.00    -0.327 N 
ATOM     13  C   UNL     1     -38.907  26.015   2.276  0.00  0.00    +0.239 C 
ATOM     14  H   UNL     1     -37.991  27.684   1.500  0.00  0.00    +0.145 HD
ATOM     15  H   UNL     1     -37.366  26.203   0.928  0.00  0.00    +0.145 HD
ENDBRANCH  10  13
ENDBRANCH   7  10
ENDBRANCH   5   8
BRANCH   5  16
ATOM     16  C   UNL     1     -34.539  24.746   2.378  0.00  0.00    +0.059 C 
BRANCH  16  19
ATOM     17  N   UNL     1     -33.617  25.059   4.641  0.00  0.00    -0.246 NA
ATOM     18  N   UNL     1     -34.860  26.958   4.923  0.00  0.00    -0.225 NA
ATOM     19  C   UNL     1     -33.788  25.684   3.314  0.00  0.00    +0.148 C 
ATOM     20  C   UNL     1     -34.605  26.885   3.665  0.00  0.00    +0.098 C 
ATOM     21  C   UNL     1     -34.249  25.851   5.453  0.00  0.00    +0.194 C 
ENDBRANCH  16  19
ENDBRANCH   5  16
ENDBRANCH   2   5
BRANCH   3  22
ATOM     22  C   UNL     1     -35.158  19.976   1.965  0.00  0.00    +0.013 C 
BRANCH  22  23
ATOM     23  N   UNL     1     -36.530  19.572   1.664  0.00  0.00    +0.387 N 
ATOM     24  H   UNL     1     -36.654  18.587   1.900  0.00  0.00    -0.089 HD
ATOM     25  H   UNL     1     -36.714  19.710   0.671  0.00  0.00    -0.089 HD
ATOM     26  H   UNL     1     -37.179  20.137   2.212  0.00  0.00    -0.089 HD
ENDBRANCH  22  23
BRANCH  22  27
ATOM     27  C   UNL     1     -34.405  20.455   0.716  0.00  0.00    -0.013 C 
BRANCH  27  28
ATOM     28  C   UNL     1     -33.029  19.802   0.545  0.00  0.00    -0.004 C 
BRANCH  28  29
ATOM     29  C   UNL     1     -32.906  18.539   1.401  0.00  0.00    -0.024 C 
BRANCH  29  30
ATOM     30  C   UNL     1     -32.076  17.470   0.691  0.00  0.00    -0.086 C 
BRANCH  30  31
ATOM     31  N   UNL     1     -30.696  17.506   1.163  0.00  0.00    +0.380 N 
ATOM     32  H   UNL     1     -30.205  18.282   0.719  0.00  0.00    -0.089 HD
ATOM     33  H   UNL     1     -30.233  16.629   0.924  0.00  0.00    -0.089 HD
ATOM     34  H   UNL     1     -30.686  17.631   2.175  0.00  0.00    -0.089 HD
ENDBRANCH  30  31
ENDBRANCH  29  30
ENDBRANCH  28  29
ENDBRANCH  27  28
ENDBRANCH  22  27
ENDBRANCH   3  22
TORSDOF 13
ENDMDL
