MODEL 1
REMARK VINA RESULT:      -5.3      0.000      0.000
REMARK  Name = 194659
REMARK  13 active torsions:
REMARK  status: ('A' for Active; 'I' for Inactive)
REMARK    1  A    between atoms: C_1  and  O_2
REMARK    2  A    between atoms: C_1  and  C_9
REMARK    3  A    between atoms: C_1  and  C_17
REMARK    4  A    between atoms: O_2  and  C_3
REMARK    5  A    between atoms: C_3  and  C_6
REMARK    6  A    between atoms: C_6  and  O_7
REMARK    7  A    between atoms: C_9  and  O_10
REMARK    8  A    between atoms: C_9  and  C_12
REMARK    9  A    between atoms: C_12  and  O_13
REMARK   10  A    between atoms: C_12  and  C_16
REMARK   11  A    between atoms: C_17  and  O_18
REMARK   12  A    between atoms: C_17  and  C_21
REMARK   13  A    between atoms: C_21  and  O_22
REMARK                            x       y       z     vdW  Elec       q    Type
REMARK                         _______ _______ _______ _____ _____    ______ ____
ROOT
ATOM      1  C   UNL     1     -36.396  24.658   4.262  0.00  0.00    +0.183 C 
ENDROOT
BRANCH   1   2
ATOM      2  O   UNL     1     -36.611  23.363   4.828  0.00  0.00    -0.342 OA
BRANCH   2   3
ATOM      3  C   UNL     1     -35.486  22.523   4.632  0.00  0.00    +0.213 C 
ATOM      4  C   UNL     1     -35.150  21.870   5.961  0.00  0.00    +0.044 C 
BRANCH   3   6
ATOM      5  O   UNL     1     -35.141  20.523   3.297  0.00  0.00    -0.248 OA
ATOM      6  C   UNL     1     -35.836  21.489   3.584  0.00  0.00    +0.341 C 
BRANCH   6   7
ATOM      7  O   UNL     1     -37.037  21.735   2.997  0.00  0.00    -0.479 OA
ATOM      8  H   UNL     1     -37.133  21.638   2.070  0.00  0.00    +0.295 HD
ENDBRANCH   6   7
ENDBRANCH   3   6
ENDBRANCH   2   3
ENDBRANCH   1   2
BRANCH   1   9
ATOM      9  C   UNL     1     -37.730  25.171   3.674  0.00  0.00    +0.175 C 
BRANCH   9  10
ATOM     10  O   UNL     1     -38.614  24.068   3.464  0.00  0.00    -0.379 OA
ATOM     11  H   UNL     1     -39.318  24.085   4.131  0.00  0.00    +0.211 HD
ENDBRANCH   9  10
BRANCH   9  12
ATOM     12  C   UNL     1     -37.562  25.898   2.333  0.00  0.00    +0.205 C 
BRANCH  12  13
ATOM     13  O   UNL     1     -37.039  27.203   2.514  0.00  0.00    -0.375 OA
ATOM     14  H   UNL     1     -36.852  27.348   3.455  0.00  0.00    +0.211 HD
ENDBRANCH  12  13
BRANCH  12  16
ATOM     15  O   UNL     1     -36.814  24.000   1.010  0.00  0.00    -0.286 OA
ATOM     16  C   UNL     1     -36.611  25.135   1.429  0.00  0.00    +0.239 C 
ENDBRANCH  12  16
ENDBRANCH   9  12
ENDBRANCH   1   9
BRANCH   1  17
ATOM     17  C   UNL     1     -35.782  25.572   5.334  0.00  0.00    +0.239 C 
BRANCH  17  18
ATOM     18  O   UNL     1     -36.653  26.669   5.577  0.00  0.00    -0.373 OA
ATOM     19  H   UNL     1     -36.128  27.474   5.715  0.00  0.00    +0.211 HD
ENDBRANCH  17  18
BRANCH  17  21
ATOM     20  O   UNL     1     -33.365  25.646   5.015  0.00  0.00    -0.248 OA
ATOM     21  C   UNL     1     -34.465  26.161   4.869  0.00  0.00    +0.344 C 
BRANCH  21  22
ATOM     22  O   UNL     1     -34.652  27.369   4.278  0.00  0.00    -0.478 OA
ATOM     23  H   UNL     1     -33.967  27.749   3.765  0.00  0.00    +0.295 HD
ENDBRANCH  21  22
ENDBRANCH  17  21
ENDBRANCH   1  17
TORSDOF 13
ENDMDL
MODEL 2
REMARK VINA RESULT:      -4.9      1.949      4.070
REMARK  Name = 194659
REMARK  13 active torsions:
REMARK  status: ('A' for Active; 'I' for Inactive)
REMARK    1  A    between atoms: C_1  and  O_2
REMARK    2  A    between atoms: C_1  and  C_9
REMARK    3  A    between atoms: C_1  and  C_17
REMARK    4  A    between atoms: O_2  and  C_3
REMARK    5  A    between atoms: C_3  and  C_6
REMARK    6  A    between atoms: C_6  and  O_7
REMARK    7  A    between atoms: C_9  and  O_10
REMARK    8  A    between atoms: C_9  and  C_12
REMARK    9  A    between atoms: C_12  and  O_13
REMARK   10  A    between atoms: C_12  and  C_16
REMARK   11  A    between atoms: C_17  and  O_18
REMARK   12  A    between atoms: C_17  and  C_21
REMARK   13  A    between atoms: C_21  and  O_22
REMARK                            x       y       z     vdW  Elec       q    Type
REMARK                         _______ _______ _______ _____ _____    ______ ____
ROOT
ATOM      1  C   UNL     1     -36.716  23.211   2.544  0.00  0.00    +0.183 C 
ENDROOT
BRANCH   1   2
ATOM      2  O   UNL     1     -36.763  22.999   3.957  0.00  0.00    -0.342 OA
BRANCH   2   3
ATOM      3  C   UNL     1     -35.460  22.860   4.499  0.00  0.00    +0.213 C 
ATOM      4  C   UNL     1     -35.007  24.224   4.988  0.00  0.00    +0.044 C 
BRANCH   3   6
ATOM      5  O   UNL     1     -35.928  22.106   6.761  0.00  0.00    -0.248 OA
ATOM      6  C   UNL     1     -35.517  21.861   5.634  0.00  0.00    +0.341 C 
BRANCH   6   7
ATOM      7  O   UNL     1     -35.074  20.631   5.260  0.00  0.00    -0.479 OA
ATOM      8  H   UNL     1     -35.185  19.900   5.836  0.00  0.00    +0.295 HD
ENDBRANCH   6   7
ENDBRANCH   3   6
ENDBRANCH   2   3
ENDBRANCH   1   2
BRANCH   1   9
ATOM      9  C   UNL     1     -37.338  21.985   1.837  0.00  0.00    +0.175 C 
BRANCH   9  10
ATOM     10  O   UNL     1     -38.537  21.603   2.514  0.00  0.00    -0.379 OA
ATOM     11  H   UNL     1     -38.369  21.551   3.467  0.00  0.00    +0.211 HD
ENDBRANCH   9  10
BRANCH   9  12
ATOM     12  C   UNL     1     -36.407  20.764   1.809  0.00  0.00    +0.205 C 
BRANCH  12  13
ATOM     13  O   UNL     1     -36.659  19.897   2.902  0.00  0.00    -0.375 OA
ATOM     14  H   UNL     1     -36.077  20.132   3.641  0.00  0.00    +0.211 HD
ENDBRANCH  12  13
BRANCH  12  16
ATOM     15  O   UNL     1     -36.029  18.920   0.271  0.00  0.00    -0.286 OA
ATOM     16  C   UNL     1     -36.604  19.973   0.530  0.00  0.00    +0.239 C 
ENDBRANCH  12  16
ENDBRANCH   9  12
ENDBRANCH   1   9
BRANCH   1  17
ATOM     17  C   UNL     1     -37.404  24.546   2.219  0.00  0.00    +0.239 C 
BRANCH  17  18
ATOM     18  O   UNL     1     -36.428  25.575   2.137  0.00  0.00    -0.373 OA
ATOM     19  H   UNL     1     -36.581  26.223   2.844  0.00  0.00    +0.211 HD
ENDBRANCH  17  18
BRANCH  17  21
ATOM     20  O   UNL     1     -39.482  24.477   3.494  0.00  0.00    -0.248 OA
ATOM     21  C   UNL     1     -38.369  24.951   3.316  0.00  0.00    +0.344 C 
BRANCH  21  22
ATOM     22  O   UNL     1     -37.849  25.945   4.080  0.00  0.00    -0.478 OA
ATOM     23  H   UNL     1     -36.971  26.238   3.932  0.00  0.00    +0.295 HD
ENDBRANCH  21  22
ENDBRANCH  17  21
ENDBRANCH   1  17
TORSDOF 13
ENDMDL
MODEL 3
REMARK VINA RESULT:      -4.8      1.331      4.531
REMARK  Name = 194659
REMARK  13 active torsions:
REMARK  status: ('A' for Active; 'I' for Inactive)
REMARK    1  A    between atoms: C_1  and  O_2
REMARK    2  A    between atoms: C_1  and  C_9
REMARK    3  A    between atoms: C_1  and  C_17
REMARK    4  A    between atoms: O_2  and  C_3
REMARK    5  A    between atoms: C_3  and  C_6
REMARK    6  A    between atoms: C_6  and  O_7
REMARK    7  A    between atoms: C_9  and  O_10
REMARK    8  A    between atoms: C_9  and  C_12
REMARK    9  A    between atoms: C_12  and  O_13
REMARK   10  A    between atoms: C_12  and  C_16
REMARK   11  A    between atoms: C_17  and  O_18
REMARK   12  A    between atoms: C_17  and  C_21
REMARK   13  A    between atoms: C_21  and  O_22
REMARK                            x       y       z     vdW  Elec       q    Type
REMARK                         _______ _______ _______ _____ _____    ______ ____
ROOT
ATOM      1  C   UNL     1     -36.322  24.426   4.380  0.00  0.00    +0.183 C 
ENDROOT
BRANCH   1   2
ATOM      2  O   UNL     1     -37.714  24.717   4.240  0.00  0.00    -0.342 OA
BRANCH   2   3
ATOM      3  C   UNL     1     -38.092  24.771   2.874  0.00  0.00    +0.213 C 
ATOM      4  C   UNL     1     -39.187  23.744   2.649  0.00  0.00    +0.044 C 
BRANCH   3   6
ATOM      5  O   UNL     1     -39.756  26.492   2.457  0.00  0.00    -0.248 OA
ATOM      6  C   UNL     1     -38.580  26.171   2.566  0.00  0.00    +0.341 C 
BRANCH   6   7
ATOM      7  O   UNL     1     -37.557  27.057   2.442  0.00  0.00    -0.479 OA
ATOM      8  H   UNL     1     -37.006  27.032   1.684  0.00  0.00    +0.295 HD
ENDBRANCH   6   7
ENDBRANCH   3   6
ENDBRANCH   2   3
ENDBRANCH   1   2
BRANCH   1   9
ATOM      9  C   UNL     1     -35.693  25.462   5.340  0.00  0.00    +0.175 C 
BRANCH   9  10
ATOM     10  O   UNL     1     -36.542  26.609   5.425  0.00  0.00    -0.379 OA
ATOM     11  H   UNL     1     -36.340  27.217   4.697  0.00  0.00    +0.211 HD
ENDBRANCH   9  10
BRANCH   9  12
ATOM     12  C   UNL     1     -34.305  25.940   4.890  0.00  0.00    +0.205 C 
BRANCH  12  13
ATOM     13  O   UNL     1     -33.459  24.847   4.576  0.00  0.00    -0.375 OA
ATOM     14  H   UNL     1     -33.292  24.328   5.379  0.00  0.00    +0.211 HD
ENDBRANCH  12  13
BRANCH  12  16
ATOM     15  O   UNL     1     -34.877  27.951   3.650  0.00  0.00    -0.286 OA
ATOM     16  C   UNL     1     -34.416  26.814   3.655  0.00  0.00    +0.239 C 
ENDBRANCH  12  16
ENDBRANCH   9  12
ENDBRANCH   1   9
BRANCH   1  17
ATOM     17  C   UNL     1     -36.164  22.966   4.833  0.00  0.00    +0.239 C 
BRANCH  17  18
ATOM     18  O   UNL     1     -35.322  22.912   5.976  0.00  0.00    -0.373 OA
ATOM     19  H   UNL     1     -34.494  22.459   5.748  0.00  0.00    +0.211 HD
ENDBRANCH  17  18
BRANCH  17  21
ATOM     20  O   UNL     1     -34.974  22.558   2.743  0.00  0.00    -0.248 OA
ATOM     21  C   UNL     1     -35.493  22.127   3.763  0.00  0.00    +0.344 C 
BRANCH  21  22
ATOM     22  O   UNL     1     -35.561  20.806   4.065  0.00  0.00    -0.478 OA
ATOM     23  H   UNL     1     -35.582  20.169   3.378  0.00  0.00    +0.295 HD
ENDBRANCH  21  22
ENDBRANCH  17  21
ENDBRANCH   1  17
TORSDOF 13
ENDMDL
MODEL 4
REMARK VINA RESULT:      -4.6      1.985      4.759
REMARK  Name = 194659
REMARK  13 active torsions:
REMARK  status: ('A' for Active; 'I' for Inactive)
REMARK    1  A    between atoms: C_1  and  O_2
REMARK    2  A    between atoms: C_1  and  C_9
REMARK    3  A    between atoms: C_1  and  C_17
REMARK    4  A    between atoms: O_2  and  C_3
REMARK    5  A    between atoms: C_3  and  C_6
REMARK    6  A    between atoms: C_6  and  O_7
REMARK    7  A    between atoms: C_9  and  O_10
REMARK    8  A    between atoms: C_9  and  C_12
REMARK    9  A    between atoms: C_12  and  O_13
REMARK   10  A    between atoms: C_12  and  C_16
REMARK   11  A    between atoms: C_17  and  O_18
REMARK   12  A    between atoms: C_17  and  C_21
REMARK   13  A    between atoms: C_21  and  O_22
REMARK                            x       y       z     vdW  Elec       q    Type
REMARK                         _______ _______ _______ _____ _____    ______ ____
ROOT
ATOM      1  C   UNL     1     -36.477  23.352   2.523  0.00  0.00    +0.183 C 
ENDROOT
BRANCH   1   2
ATOM      2  O   UNL     1     -37.666  22.909   3.180  0.00  0.00    -0.342 OA
BRANCH   2   3
ATOM      3  C   UNL     1     -38.826  23.376   2.512  0.00  0.00    +0.213 C 
ATOM      4  C   UNL     1     -38.386  24.331   1.418  0.00  0.00    +0.044 C 
BRANCH   3   6
ATOM      5  O   UNL     1     -40.546  22.253   1.214  0.00  0.00    -0.248 OA
ATOM      6  C   UNL     1     -39.561  22.184   1.938  0.00  0.00    +0.341 C 
BRANCH   6   7
ATOM      7  O   UNL     1     -38.992  21.004   2.299  0.00  0.00    -0.479 OA
ATOM      8  H   UNL     1     -39.285  20.204   1.908  0.00  0.00    +0.295 HD
ENDBRANCH   6   7
ENDBRANCH   3   6
ENDBRANCH   2   3
ENDBRANCH   1   2
BRANCH   1   9
ATOM      9  C   UNL     1     -35.766  24.387   3.425  0.00  0.00    +0.175 C 
BRANCH   9  10
ATOM     10  O   UNL     1     -34.409  23.986   3.630  0.00  0.00    -0.379 OA
ATOM     11  H   UNL     1     -33.994  24.572   4.281  0.00  0.00    +0.211 HD
ENDBRANCH   9  10
BRANCH   9  12
ATOM     12  C   UNL     1     -36.422  24.541   4.804  0.00  0.00    +0.205 C 
BRANCH  12  13
ATOM     13  O   UNL     1     -36.004  23.519   5.692  0.00  0.00    -0.375 OA
ATOM     14  H   UNL     1     -36.022  22.665   5.233  0.00  0.00    +0.211 HD
ENDBRANCH  12  13
BRANCH  12  16
ATOM     15  O   UNL     1     -34.910  26.307   5.515  0.00  0.00    -0.286 OA
ATOM     16  C   UNL     1     -36.056  25.877   5.422  0.00  0.00    +0.239 C 
ENDBRANCH  12  16
ENDBRANCH   9  12
ENDBRANCH   1   9
BRANCH   1  17
ATOM     17  C   UNL     1     -35.620  22.127   2.167  0.00  0.00    +0.239 C 
BRANCH  17  18
ATOM     18  O   UNL     1     -36.090  21.554   0.955  0.00  0.00    -0.373 OA
ATOM     19  H   UNL     1     -35.737  22.056   0.202  0.00  0.00    +0.211 HD
ENDBRANCH  17  18
BRANCH  17  21
ATOM     20  O   UNL     1     -35.180  21.063   4.318  0.00  0.00    -0.248 OA
ATOM     21  C   UNL     1     -35.733  21.049   3.227  0.00  0.00    +0.344 C 
BRANCH  21  22
ATOM     22  O   UNL     1     -36.521  20.028   2.802  0.00  0.00    -0.478 OA
ATOM     23  H   UNL     1     -37.433  20.020   3.019  0.00  0.00    +0.295 HD
ENDBRANCH  21  22
ENDBRANCH  17  21
ENDBRANCH   1  17
TORSDOF 13
ENDMDL
MODEL 5
REMARK VINA RESULT:      -4.6      1.532      4.476
REMARK  Name = 194659
REMARK  13 active torsions:
REMARK  status: ('A' for Active; 'I' for Inactive)
REMARK    1  A    between atoms: C_1  and  O_2
REMARK    2  A    between atoms: C_1  and  C_9
REMARK    3  A    between atoms: C_1  and  C_17
REMARK    4  A    between atoms: O_2  and  C_3
REMARK    5  A    between atoms: C_3  and  C_6
REMARK    6  A    between atoms: C_6  and  O_7
REMARK    7  A    between atoms: C_9  and  O_10
REMARK    8  A    between atoms: C_9  and  C_12
REMARK    9  A    between atoms: C_12  and  O_13
REMARK   10  A    between atoms: C_12  and  C_16
REMARK   11  A    between atoms: C_17  and  O_18
REMARK   12  A    between atoms: C_17  and  C_21
REMARK   13  A    between atoms: C_21  and  O_22
REMARK                            x       y       z     vdW  Elec       q    Type
REMARK                         _______ _______ _______ _____ _____    ______ ____
ROOT
ATOM      1  C   UNL     1     -36.035  23.755   3.766  0.00  0.00    +0.183 C 
ENDROOT
BRANCH   1   2
ATOM      2  O   UNL     1     -37.446  23.665   3.974  0.00  0.00    -0.342 OA
BRANCH   2   3
ATOM      3  C   UNL     1     -38.163  24.101   2.831  0.00  0.00    +0.213 C 
ATOM      4  C   UNL     1     -38.911  22.907   2.264  0.00  0.00    +0.044 C 
BRANCH   3   6
ATOM      5  O   UNL     1     -40.312  25.039   3.470  0.00  0.00    -0.248 OA
ATOM      6  C   UNL     1     -39.117  25.197   3.253  0.00  0.00    +0.341 C 
BRANCH   6   7
ATOM      7  O   UNL     1     -38.495  26.398   3.388  0.00  0.00    -0.479 OA
ATOM      8  H   UNL     1     -38.962  27.130   3.742  0.00  0.00    +0.295 HD
ENDBRANCH   6   7
ENDBRANCH   3   6
ENDBRANCH   2   3
ENDBRANCH   1   2
BRANCH   1   9
ATOM      9  C   UNL     1     -35.471  24.879   4.664  0.00  0.00    +0.175 C 
BRANCH   9  10
ATOM     10  O   UNL     1     -36.525  25.429   5.457  0.00  0.00    -0.379 OA
ATOM     11  H   UNL     1     -37.311  25.559   4.905  0.00  0.00    +0.211 HD
ENDBRANCH   9  10
BRANCH   9  12
ATOM     12  C   UNL     1     -34.833  26.027   3.870  0.00  0.00    +0.205 C 
BRANCH  12  13
ATOM     13  O   UNL     1     -35.795  27.005   3.512  0.00  0.00    -0.375 OA
ATOM     14  H   UNL     1     -35.870  27.660   4.225  0.00  0.00    +0.211 HD
ENDBRANCH  12  13
BRANCH  12  16
ATOM     15  O   UNL     1     -33.744  26.756   5.918  0.00  0.00    -0.286 OA
ATOM     16  C   UNL     1     -33.756  26.711   4.692  0.00  0.00    +0.239 C 
ENDBRANCH  12  16
ENDBRANCH   9  12
ENDBRANCH   1   9
BRANCH   1  17
ATOM     17  C   UNL     1     -35.408  22.373   4.010  0.00  0.00    +0.239 C 
BRANCH  17  18
ATOM     18  O   UNL     1     -36.095  21.397   3.239  0.00  0.00    -0.373 OA
ATOM     19  H   UNL     1     -36.784  20.983   3.782  0.00  0.00    +0.211 HD
ENDBRANCH  17  18
BRANCH  17  21
ATOM     20  O   UNL     1     -35.869  22.686   6.385  0.00  0.00    -0.248 OA
ATOM     21  C   UNL     1     -35.546  21.953   5.460  0.00  0.00    +0.344 C 
BRANCH  21  22
ATOM     22  O   UNL     1     -35.238  20.641   5.620  0.00  0.00    -0.478 OA
ATOM     23  H   UNL     1     -34.398  20.396   5.956  0.00  0.00    +0.295 HD
ENDBRANCH  21  22
ENDBRANCH  17  21
ENDBRANCH   1  17
TORSDOF 13
ENDMDL
MODEL 6
REMARK VINA RESULT:      -4.5      1.571      4.093
REMARK  Name = 194659
REMARK  13 active torsions:
REMARK  status: ('A' for Active; 'I' for Inactive)
REMARK    1  A    between atoms: C_1  and  O_2
REMARK    2  A    between atoms: C_1  and  C_9
REMARK    3  A    between atoms: C_1  and  C_17
REMARK    4  A    between atoms: O_2  and  C_3
REMARK    5  A    between atoms: C_3  and  C_6
REMARK    6  A    between atoms: C_6  and  O_7
REMARK    7  A    between atoms: C_9  and  O_10
REMARK    8  A    between atoms: C_9  and  C_12
REMARK    9  A    between atoms: C_12  and  O_13
REMARK   10  A    between atoms: C_12  and  C_16
REMARK   11  A    between atoms: C_17  and  O_18
REMARK   12  A    between atoms: C_17  and  C_21
REMARK   13  A    between atoms: C_21  and  O_22
REMARK                            x       y       z     vdW  Elec       q    Type
REMARK                         _______ _______ _______ _____ _____    ______ ____
ROOT
ATOM      1  C   UNL     1     -36.244  23.822   3.714  0.00  0.00    +0.183 C 
ENDROOT
BRANCH   1   2
ATOM      2  O   UNL     1     -35.377  24.643   2.929  0.00  0.00    -0.342 OA
BRANCH   2   3
ATOM      3  C   UNL     1     -34.209  24.995   3.651  0.00  0.00    +0.213 C 
ATOM      4  C   UNL     1     -33.214  25.593   2.672  0.00  0.00    +0.044 C 
BRANCH   3   6
ATOM      5  O   UNL     1     -35.120  27.075   4.516  0.00  0.00    -0.248 OA
ATOM      6  C   UNL     1     -34.590  25.991   4.725  0.00  0.00    +0.341 C 
BRANCH   6   7
ATOM      7  O   UNL     1     -34.297  25.540   5.973  0.00  0.00    -0.479 OA
ATOM      8  H   UNL     1     -33.433  25.236   6.170  0.00  0.00    +0.295 HD
ENDBRANCH   6   7
ENDBRANCH   3   6
ENDBRANCH   2   3
ENDBRANCH   1   2
BRANCH   1   9
ATOM      9  C   UNL     1     -37.633  23.775   3.037  0.00  0.00    +0.175 C 
BRANCH   9  10
ATOM     10  O   UNL     1     -37.469  23.609   1.627  0.00  0.00    -0.379 OA
ATOM     11  H   UNL     1     -37.793  24.399   1.168  0.00  0.00    +0.211 HD
ENDBRANCH   9  10
BRANCH   9  12
ATOM     12  C   UNL     1     -38.462  25.046   3.266  0.00  0.00    +0.205 C 
BRANCH  12  13
ATOM     13  O   UNL     1     -37.822  25.924   4.175  0.00  0.00    -0.375 OA
ATOM     14  H   UNL     1     -37.194  26.486   3.694  0.00  0.00    +0.211 HD
ENDBRANCH  12  13
BRANCH  12  16
ATOM     15  O   UNL     1     -39.388  26.776   1.830  0.00  0.00    -0.286 OA
ATOM     16  C   UNL     1     -38.666  25.793   1.961  0.00  0.00    +0.239 C 
ENDBRANCH  12  16
ENDBRANCH   9  12
ENDBRANCH   1   9
BRANCH   1  17
ATOM     17  C   UNL     1     -35.586  22.447   3.905  0.00  0.00    +0.239 C 
BRANCH  17  18
ATOM     18  O   UNL     1     -36.363  21.453   3.252  0.00  0.00    -0.373 OA
ATOM     19  H   UNL     1     -37.301  21.700   3.290  0.00  0.00    +0.211 HD
ENDBRANCH  17  18
BRANCH  17  21
ATOM     20  O   UNL     1     -35.735  22.813   6.312  0.00  0.00    -0.248 OA
ATOM     21  C   UNL     1     -35.532  22.059   5.370  0.00  0.00    +0.344 C 
BRANCH  21  22
ATOM     22  O   UNL     1     -35.200  20.752   5.517  0.00  0.00    -0.478 OA
ATOM     23  H   UNL     1     -34.868  20.269   4.786  0.00  0.00    +0.295 HD
ENDBRANCH  21  22
ENDBRANCH  17  21
ENDBRANCH   1  17
TORSDOF 13
ENDMDL
MODEL 7
REMARK VINA RESULT:      -4.5      2.324      3.650
REMARK  Name = 194659
REMARK  13 active torsions:
REMARK  status: ('A' for Active; 'I' for Inactive)
REMARK    1  A    between atoms: C_1  and  O_2
REMARK    2  A    between atoms: C_1  and  C_9
REMARK    3  A    between atoms: C_1  and  C_17
REMARK    4  A    between atoms: O_2  and  C_3
REMARK    5  A    between atoms: C_3  and  C_6
REMARK    6  A    between atoms: C_6  and  O_7
REMARK    7  A    between atoms: C_9  and  O_10
REMARK    8  A    between atoms: C_9  and  C_12
REMARK    9  A    between atoms: C_12  and  O_13
REMARK   10  A    between atoms: C_12  and  C_16
REMARK   11  A    between atoms: C_17  and  O_18
REMARK   12  A    between atoms: C_17  and  C_21
REMARK   13  A    between atoms: C_21  and  O_22
REMARK                            x       y       z     vdW  Elec       q    Type
REMARK                         _______ _______ _______ _____ _____    ______ ____
ROOT
ATOM      1  C   UNL     1     -37.105  23.111   2.638  0.00  0.00    +0.183 C 
ENDROOT
BRANCH   1   2
ATOM      2  O   UNL     1     -36.949  23.005   4.054  0.00  0.00    -0.342 OA
BRANCH   2   3
ATOM      3  C   UNL     1     -35.591  22.799   4.407  0.00  0.00    +0.213 C 
ATOM      4  C   UNL     1     -35.325  23.545   5.703  0.00  0.00    +0.044 C 
BRANCH   3   6
ATOM      5  O   UNL     1     -35.149  20.533   3.651  0.00  0.00    -0.248 OA
ATOM      6  C   UNL     1     -35.358  21.313   4.571  0.00  0.00    +0.341 C 
BRANCH   6   7
ATOM      7  O   UNL     1     -35.384  20.928   5.874  0.00  0.00    -0.479 OA
ATOM      8  H   UNL     1     -35.194  21.549   6.550  0.00  0.00    +0.295 HD
ENDBRANCH   6   7
ENDBRANCH   3   6
ENDBRANCH   2   3
ENDBRANCH   1   2
BRANCH   1   9
ATOM      9  C   UNL     1     -38.242  22.165   2.190  0.00  0.00    +0.175 C 
BRANCH   9  10
ATOM     10  O   UNL     1     -37.798  20.810   2.282  0.00  0.00    -0.379 OA
ATOM     11  H   UNL     1     -37.786  20.412   1.397  0.00  0.00    +0.211 HD
ENDBRANCH   9  10
BRANCH   9  12
ATOM     12  C   UNL     1     -38.703  22.411   0.747  0.00  0.00    +0.205 C 
BRANCH  12  13
ATOM     13  O   UNL     1     -37.804  21.837  -0.187  0.00  0.00    -0.375 OA
ATOM     14  H   UNL     1     -36.893  22.053   0.067  0.00  0.00    +0.211 HD
ENDBRANCH  12  13
BRANCH  12  16
ATOM     15  O   UNL     1     -40.582  20.946   1.230  0.00  0.00    -0.286 OA
ATOM     16  C   UNL     1     -40.072  21.801   0.512  0.00  0.00    +0.239 C 
ENDBRANCH  12  16
ENDBRANCH   9  12
ENDBRANCH   1   9
BRANCH   1  17
ATOM     17  C   UNL     1     -37.328  24.587   2.272  0.00  0.00    +0.239 C 
BRANCH  17  18
ATOM     18  O   UNL     1     -36.083  25.272   2.283  0.00  0.00    -0.373 OA
ATOM     19  H   UNL     1     -36.102  25.965   2.963  0.00  0.00    +0.211 HD
ENDBRANCH  17  18
BRANCH  17  21
ATOM     20  O   UNL     1     -39.435  25.266   3.296  0.00  0.00    -0.248 OA
ATOM     21  C   UNL     1     -38.212  25.280   3.290  0.00  0.00    +0.344 C 
BRANCH  21  22
ATOM     22  O   UNL     1     -37.469  25.955   4.203  0.00  0.00    -0.478 OA
ATOM     23  H   UNL     1     -37.631  25.836   5.118  0.00  0.00    +0.295 HD
ENDBRANCH  21  22
ENDBRANCH  17  21
ENDBRANCH   1  17
TORSDOF 13
ENDMDL
MODEL 8
REMARK VINA RESULT:      -4.4      1.567      4.267
REMARK  Name = 194659
REMARK  13 active torsions:
REMARK  status: ('A' for Active; 'I' for Inactive)
REMARK    1  A    between atoms: C_1  and  O_2
REMARK    2  A    between atoms: C_1  and  C_9
REMARK    3  A    between atoms: C_1  and  C_17
REMARK    4  A    between atoms: O_2  and  C_3
REMARK    5  A    between atoms: C_3  and  C_6
REMARK    6  A    between atoms: C_6  and  O_7
REMARK    7  A    between atoms: C_9  and  O_10
REMARK    8  A    between atoms: C_9  and  C_12
REMARK    9  A    between atoms: C_12  and  O_13
REMARK   10  A    between atoms: C_12  and  C_16
REMARK   11  A    between atoms: C_17  and  O_18
REMARK   12  A    between atoms: C_17  and  C_21
REMARK   13  A    between atoms: C_21  and  O_22
REMARK                            x       y       z     vdW  Elec       q    Type
REMARK                         _______ _______ _______ _____ _____    ______ ____
ROOT
ATOM      1  C   UNL     1     -36.758  23.282   3.162  0.00  0.00    +0.183 C 
ENDROOT
BRANCH   1   2
ATOM      2  O   UNL     1     -35.626  23.846   3.828  0.00  0.00    -0.342 OA
BRANCH   2   3
ATOM      3  C   UNL     1     -35.913  24.110   5.192  0.00  0.00    +0.213 C 
ATOM      4  C   UNL     1     -35.164  23.092   6.034  0.00  0.00    +0.044 C 
BRANCH   3   6
ATOM      5  O   UNL     1     -34.351  25.829   5.906  0.00  0.00    -0.248 OA
ATOM      6  C   UNL     1     -35.469  25.521   5.512  0.00  0.00    +0.341 C 
BRANCH   6   7
ATOM      7  O   UNL     1     -36.452  26.433   5.291  0.00  0.00    -0.479 OA
ATOM      8  H   UNL     1     -37.103  26.587   5.947  0.00  0.00    +0.295 HD
ENDBRANCH   6   7
ENDBRANCH   3   6
ENDBRANCH   2   3
ENDBRANCH   1   2
BRANCH   1   9
ATOM      9  C   UNL     1     -37.549  24.420   2.478  0.00  0.00    +0.175 C 
BRANCH   9  10
ATOM     10  O   UNL     1     -36.712  25.572   2.349  0.00  0.00    -0.379 OA
ATOM     11  H   UNL     1     -36.739  26.085   3.171  0.00  0.00    +0.211 HD
ENDBRANCH   9  10
BRANCH   9  12
ATOM     12  C   UNL     1     -38.805  24.838   3.256  0.00  0.00    +0.205 C 
BRANCH  12  13
ATOM     13  O   UNL     1     -38.890  26.247   3.381  0.00  0.00    -0.375 OA
ATOM     14  H   UNL     1     -38.315  26.542   4.105  0.00  0.00    +0.211 HD
ENDBRANCH  12  13
BRANCH  12  16
ATOM     15  O   UNL     1     -40.202  23.227   2.088  0.00  0.00    -0.286 OA
ATOM     16  C   UNL     1     -40.057  24.356   2.547  0.00  0.00    +0.239 C 
ENDBRANCH  12  16
ENDBRANCH   9  12
ENDBRANCH   1   9
BRANCH   1  17
ATOM     17  C   UNL     1     -36.272  22.184   2.203  0.00  0.00    +0.239 C 
BRANCH  17  18
ATOM     18  O   UNL     1     -37.285  21.906   1.246  0.00  0.00    -0.373 OA
ATOM     19  H   UNL     1     -37.837  22.695   1.122  0.00  0.00    +0.211 HD
ENDBRANCH  17  18
BRANCH  17  21
ATOM     20  O   UNL     1     -35.096  20.693   3.734  0.00  0.00    -0.248 OA
ATOM     21  C   UNL     1     -36.006  20.886   2.940  0.00  0.00    +0.344 C 
BRANCH  21  22
ATOM     22  O   UNL     1     -36.905  19.932   2.587  0.00  0.00    -0.478 OA
ATOM     23  H   UNL     1     -37.437  20.050   1.825  0.00  0.00    +0.295 HD
ENDBRANCH  21  22
ENDBRANCH  17  21
ENDBRANCH   1  17
TORSDOF 13
ENDMDL
MODEL 9
REMARK VINA RESULT:      -4.4      1.725      2.767
REMARK  Name = 194659
REMARK  13 active torsions:
REMARK  status: ('A' for Active; 'I' for Inactive)
REMARK    1  A    between atoms: C_1  and  O_2
REMARK    2  A    between atoms: C_1  and  C_9
REMARK    3  A    between atoms: C_1  and  C_17
REMARK    4  A    between atoms: O_2  and  C_3
REMARK    5  A    between atoms: C_3  and  C_6
REMARK    6  A    between atoms: C_6  and  O_7
REMARK    7  A    between atoms: C_9  and  O_10
REMARK    8  A    between atoms: C_9  and  C_12
REMARK    9  A    between atoms: C_12  and  O_13
REMARK   10  A    between atoms: C_12  and  C_16
REMARK   11  A    between atoms: C_17  and  O_18
REMARK   12  A    between atoms: C_17  and  C_21
REMARK   13  A    between atoms: C_21  and  O_22
REMARK                            x       y       z     vdW  Elec       q    Type
REMARK                         _______ _______ _______ _____ _____    ______ ____
ROOT
ATOM      1  C   UNL     1     -36.741  24.281   3.447  0.00  0.00    +0.183 C 
ENDROOT
BRANCH   1   2
ATOM      2  O   UNL     1     -37.271  22.957   3.362  0.00  0.00    -0.342 OA
BRANCH   2   3
ATOM      3  C   UNL     1     -36.639  22.216   2.332  0.00  0.00    +0.213 C 
ATOM      4  C   UNL     1     -35.485  23.045   1.797  0.00  0.00    +0.044 C 
BRANCH   3   6
ATOM      5  O   UNL     1     -35.185  20.791   3.659  0.00  0.00    -0.248 OA
ATOM      6  C   UNL     1     -36.150  20.907   2.914  0.00  0.00    +0.341 C 
BRANCH   6   7
ATOM      7  O   UNL     1     -36.921  19.854   2.535  0.00  0.00    -0.479 OA
ATOM      8  H   UNL     1     -37.648  19.592   3.065  0.00  0.00    +0.295 HD
ENDBRANCH   6   7
ENDBRANCH   3   6
ENDBRANCH   2   3
ENDBRANCH   1   2
BRANCH   1   9
ATOM      9  C   UNL     1     -37.763  25.266   2.833  0.00  0.00    +0.175 C 
BRANCH   9  10
ATOM     10  O   UNL     1     -37.796  26.464   3.611  0.00  0.00    -0.379 OA
ATOM     11  H   UNL     1     -37.298  27.160   3.155  0.00  0.00    +0.211 HD
ENDBRANCH   9  10
BRANCH   9  12
ATOM     12  C   UNL     1     -39.190  24.703   2.779  0.00  0.00    +0.205 C 
BRANCH  12  13
ATOM     13  O   UNL     1     -39.807  24.736   4.054  0.00  0.00    -0.375 OA
ATOM     14  H   UNL     1     -40.413  23.983   4.138  0.00  0.00    +0.211 HD
ENDBRANCH  12  13
BRANCH  12  16
ATOM     15  O   UNL     1     -39.973  26.731   1.691  0.00  0.00    -0.286 OA
ATOM     16  C   UNL     1     -40.047  25.514   1.825  0.00  0.00    +0.239 C 
ENDBRANCH  12  16
ENDBRANCH   9  12
ENDBRANCH   1   9
BRANCH   1  17
ATOM     17  C   UNL     1     -36.377  24.578   4.910  0.00  0.00    +0.239 C 
BRANCH  17  18
ATOM     18  O   UNL     1     -35.571  25.747   4.971  0.00  0.00    -0.373 OA
ATOM     19  H   UNL     1     -35.010  25.711   5.763  0.00  0.00    +0.211 HD
ENDBRANCH  17  18
BRANCH  17  21
ATOM     20  O   UNL     1     -35.963  22.631   6.320  0.00  0.00    -0.248 OA
ATOM     21  C   UNL     1     -35.556  23.455   5.513  0.00  0.00    +0.344 C 
BRANCH  21  22
ATOM     22  O   UNL     1     -34.278  23.487   5.058  0.00  0.00    -0.478 OA
ATOM     23  H   UNL     1     -34.094  23.277   4.164  0.00  0.00    +0.295 HD
ENDBRANCH  21  22
ENDBRANCH  17  21
ENDBRANCH   1  17
TORSDOF 13
ENDMDL
