MODEL 1
REMARK VINA RESULT:      -7.3      0.000      0.000
REMARK  Name = 5371549
REMARK  8 active torsions:
REMARK  status: ('A' for Active; 'I' for Inactive)
REMARK    1  A    between atoms: N_5  and  C_11
REMARK    2  A    between atoms: N_5  and  C_19
REMARK    3  A    between atoms: N_6  and  C_12
REMARK    4  A    between atoms: N_6  and  C_31
REMARK    5  A    between atoms: N_17  and  C_19
REMARK    6  A    between atoms: N_17  and  C_23
REMARK    7  A    between atoms: N_29  and  C_31
REMARK    8  A    between atoms: N_29  and  C_35
REMARK                            x       y       z     vdW  Elec       q    Type
REMARK                         _______ _______ _______ _____ _____    ______ ____
ROOT
ATOM      1  N   UNL     1     -33.894  26.204   5.251  0.00  0.00    -0.277 N 
ATOM      2  N   UNL     1     -35.936  24.443   4.239  0.00  0.00    -0.277 N 
ATOM      3  N   UNL     1     -32.944  27.097   7.103  0.00  0.00    -0.371 N 
ATOM      4  N   UNL     1     -38.063  24.275   3.482  0.00  0.00    -0.371 N 
ATOM      5  C   UNL     1     -33.710  25.469   4.001  0.00  0.00    +0.115 C 
ATOM      6  C   UNL     1     -35.156  26.016   5.964  0.00  0.00    +0.115 C 
ATOM      7  C   UNL     1     -34.517  24.174   4.008  0.00  0.00    +0.115 C 
ATOM      8  C   UNL     1     -36.278  25.645   4.998  0.00  0.00    +0.115 C 
ATOM      9  C   UNL     1     -32.931  27.027   5.730  0.00  0.00    +0.193 C 
ATOM     10  C   UNL     1     -36.894  23.611   3.769  0.00  0.00    +0.193 C 
ATOM     11  H   UNL     1     -33.607  26.580   7.616  0.00  0.00    +0.159 HD
ATOM     12  H   UNL     1     -32.290  27.663   7.573  0.00  0.00    +0.159 HD
ATOM     13  H   UNL     1     -38.126  25.247   3.627  0.00  0.00    +0.159 HD
ATOM     14  H   UNL     1     -38.838  23.779   3.131  0.00  0.00    +0.159 HD
ENDROOT
BRANCH   9  15
ATOM     15  N   UNL     1     -32.058  27.708   5.034  0.00  0.00    -0.181 NA
BRANCH  15  17
ATOM     16  N   UNL     1     -30.116  28.606   6.053  0.00  0.00    -0.368 N 
ATOM     17  C   UNL     1     -31.428  28.766   5.659  0.00  0.00    +0.225 C 
ATOM     18  H   UNL     1     -29.658  27.747   5.902  0.00  0.00    +0.159 HD
ATOM     19  H   UNL     1     -29.637  29.350   6.485  0.00  0.00    +0.159 HD
BRANCH  17  20
ATOM     20  N   UNL     1     -32.164  29.836   5.790  0.00  0.00    -0.212 NA
BRANCH  20  22
ATOM     21 CL   UNL     1     -32.207  33.828   1.434  0.00  0.00    -0.082 Cl
ATOM     22  C   UNL     1     -32.174  30.784   4.754  0.00  0.00    +0.084 C 
ATOM     23  C   UNL     1     -31.113  31.675   4.623  0.00  0.00    +0.020 C 
ATOM     24  C   UNL     1     -33.245  30.826   3.867  0.00  0.00    +0.020 C 
ATOM     25  C   UNL     1     -31.123  32.618   3.595  0.00  0.00    +0.013 C 
ATOM     26  C   UNL     1     -33.255  31.768   2.838  0.00  0.00    +0.013 C 
ATOM     27  C   UNL     1     -32.194  32.664   2.703  0.00  0.00    +0.058 C 
ENDBRANCH  20  22
ENDBRANCH  17  20
ENDBRANCH  15  17
ENDBRANCH   9  15
BRANCH  10  28
ATOM     28  N   UNL     1     -36.796  22.320   3.581  0.00  0.00    -0.181 NA
BRANCH  28  30
ATOM     29  N   UNL     1     -38.259  21.054   2.213  0.00  0.00    -0.368 N 
ATOM     30  C   UNL     1     -37.124  21.828   2.333  0.00  0.00    +0.225 C 
ATOM     31  H   UNL     1     -38.801  20.849   3.009  0.00  0.00    +0.159 HD
ATOM     32  H   UNL     1     -38.525  20.704   1.332  0.00  0.00    +0.159 HD
BRANCH  30  33
ATOM     33  N   UNL     1     -36.308  22.182   1.379  0.00  0.00    -0.212 NA
BRANCH  33  35
ATOM     34 CL   UNL     1     -31.435  18.968   0.458  0.00  0.00    -0.082 Cl
ATOM     35  C   UNL     1     -35.150  21.418   1.159  0.00  0.00    +0.084 C 
ATOM     36  C   UNL     1     -35.028  20.163   1.748  0.00  0.00    +0.020 C 
ATOM     37  C   UNL     1     -34.132  21.921   0.354  0.00  0.00    +0.020 C 
ATOM     38  C   UNL     1     -33.877  19.404   1.532  0.00  0.00    +0.013 C 
ATOM     39  C   UNL     1     -32.981  21.163   0.137  0.00  0.00    +0.013 C 
ATOM     40  C   UNL     1     -32.854  19.905   0.726  0.00  0.00    +0.058 C 
ENDBRANCH  33  35
ENDBRANCH  30  33
ENDBRANCH  28  30
ENDBRANCH  10  28
TORSDOF 8
ENDMDL
MODEL 2
REMARK VINA RESULT:      -7.3      0.067      9.725
REMARK  Name = 5371549
REMARK  8 active torsions:
REMARK  status: ('A' for Active; 'I' for Inactive)
REMARK    1  A    between atoms: N_5  and  C_11
REMARK    2  A    between atoms: N_5  and  C_19
REMARK    3  A    between atoms: N_6  and  C_12
REMARK    4  A    between atoms: N_6  and  C_31
REMARK    5  A    between atoms: N_17  and  C_19
REMARK    6  A    between atoms: N_17  and  C_23
REMARK    7  A    between atoms: N_29  and  C_31
REMARK    8  A    between atoms: N_29  and  C_35
REMARK                            x       y       z     vdW  Elec       q    Type
REMARK                         _______ _______ _______ _____ _____    ______ ____
ROOT
ATOM      1  N   UNL     1     -35.902  24.391   4.230  0.00  0.00    -0.277 N 
ATOM      2  N   UNL     1     -33.876  26.171   5.241  0.00  0.00    -0.277 N 
ATOM      3  N   UNL     1     -38.023  24.220   3.454  0.00  0.00    -0.371 N 
ATOM      4  N   UNL     1     -32.942  27.097   7.084  0.00  0.00    -0.371 N 
ATOM      5  C   UNL     1     -34.481  24.126   4.011  0.00  0.00    +0.115 C 
ATOM      6  C   UNL     1     -36.255  25.590   4.989  0.00  0.00    +0.115 C 
ATOM      7  C   UNL     1     -33.681  25.426   3.999  0.00  0.00    +0.115 C 
ATOM      8  C   UNL     1     -35.137  25.973   5.955  0.00  0.00    +0.115 C 
ATOM      9  C   UNL     1     -36.855  23.557   3.750  0.00  0.00    +0.193 C 
ATOM     10  C   UNL     1     -32.927  27.013   5.712  0.00  0.00    +0.193 C 
ATOM     11  H   UNL     1     -38.088  25.191   3.601  0.00  0.00    +0.159 HD
ATOM     12  H   UNL     1     -38.792  23.722   3.095  0.00  0.00    +0.159 HD
ATOM     13  H   UNL     1     -33.597  26.577   7.602  0.00  0.00    +0.159 HD
ATOM     14  H   UNL     1     -32.296  27.678   7.548  0.00  0.00    +0.159 HD
ENDROOT
BRANCH   9  15
ATOM     15  N   UNL     1     -36.751  22.267   3.561  0.00  0.00    -0.181 NA
BRANCH  15  17
ATOM     16  N   UNL     1     -38.223  20.999   2.203  0.00  0.00    -0.368 N 
ATOM     17  C   UNL     1     -37.087  21.775   2.315  0.00  0.00    +0.225 C 
ATOM     18  H   UNL     1     -38.760  20.796   3.003  0.00  0.00    +0.159 HD
ATOM     19  H   UNL     1     -38.496  20.650   1.324  0.00  0.00    +0.159 HD
BRANCH  17  20
ATOM     20  N   UNL     1     -36.278  22.128   1.354  0.00  0.00    -0.212 NA
BRANCH  20  22
ATOM     21 CL   UNL     1     -31.381  18.954   0.432  0.00  0.00    -0.082 Cl
ATOM     22  C   UNL     1     -35.114  21.374   1.136  0.00  0.00    +0.084 C 
ATOM     23  C   UNL     1     -34.102  21.883   0.328  0.00  0.00    +0.020 C 
ATOM     24  C   UNL     1     -34.981  20.122   1.729  0.00  0.00    +0.020 C 
ATOM     25  C   UNL     1     -32.946  21.134   0.110  0.00  0.00    +0.013 C 
ATOM     26  C   UNL     1     -33.824  19.373   1.511  0.00  0.00    +0.013 C 
ATOM     27  C   UNL     1     -32.808  19.879   0.702  0.00  0.00    +0.058 C 
ENDBRANCH  20  22
ENDBRANCH  17  20
ENDBRANCH  15  17
ENDBRANCH   9  15
BRANCH  10  28
ATOM     28  N   UNL     1     -32.061  27.699   5.009  0.00  0.00    -0.181 NA
BRANCH  28  30
ATOM     29  N   UNL     1     -30.125  28.625   6.013  0.00  0.00    -0.368 N 
ATOM     30  C   UNL     1     -31.441  28.767   5.625  0.00  0.00    +0.225 C 
ATOM     31  H   UNL     1     -29.658  27.771   5.864  0.00  0.00    +0.159 HD
ATOM     32  H   UNL     1     -29.653  29.376   6.440  0.00  0.00    +0.159 HD
BRANCH  30  33
ATOM     33  N   UNL     1     -32.189  29.828   5.755  0.00  0.00    -0.212 NA
BRANCH  33  35
ATOM     34 CL   UNL     1     -32.309  33.781   1.363  0.00  0.00    -0.082 Cl
ATOM     35  C   UNL     1     -32.218  30.768   4.711  0.00  0.00    +0.084 C 
ATOM     36  C   UNL     1     -33.306  30.807   3.845  0.00  0.00    +0.020 C 
ATOM     37  C   UNL     1     -31.157  31.656   4.551  0.00  0.00    +0.020 C 
ATOM     38  C   UNL     1     -33.335  31.739   2.808  0.00  0.00    +0.013 C 
ATOM     39  C   UNL     1     -31.186  32.589   3.514  0.00  0.00    +0.013 C 
ATOM     40  C   UNL     1     -32.274  32.630   2.643  0.00  0.00    +0.058 C 
ENDBRANCH  33  35
ENDBRANCH  30  33
ENDBRANCH  28  30
ENDBRANCH  10  28
TORSDOF 8
ENDMDL
MODEL 3
REMARK VINA RESULT:      -7.2      1.453      9.729
REMARK  Name = 5371549
REMARK  8 active torsions:
REMARK  status: ('A' for Active; 'I' for Inactive)
REMARK    1  A    between atoms: N_5  and  C_11
REMARK    2  A    between atoms: N_5  and  C_19
REMARK    3  A    between atoms: N_6  and  C_12
REMARK    4  A    between atoms: N_6  and  C_31
REMARK    5  A    between atoms: N_17  and  C_19
REMARK    6  A    between atoms: N_17  and  C_23
REMARK    7  A    between atoms: N_29  and  C_31
REMARK    8  A    between atoms: N_29  and  C_35
REMARK                            x       y       z     vdW  Elec       q    Type
REMARK                         _______ _______ _______ _____ _____    ______ ____
ROOT
ATOM      1  N   UNL     1     -35.684  24.462   3.834  0.00  0.00    -0.277 N 
ATOM      2  N   UNL     1     -33.843  26.630   4.288  0.00  0.00    -0.277 N 
ATOM      3  N   UNL     1     -37.860  23.869   3.625  0.00  0.00    -0.371 N 
ATOM      4  N   UNL     1     -32.670  27.804   5.828  0.00  0.00    -0.371 N 
ATOM      5  C   UNL     1     -34.339  24.448   3.261  0.00  0.00    +0.115 C 
ATOM      6  C   UNL     1     -36.056  25.615   4.653  0.00  0.00    +0.115 C 
ATOM      7  C   UNL     1     -33.827  25.868   3.040  0.00  0.00    +0.115 C 
ATOM      8  C   UNL     1     -34.825  26.243   5.300  0.00  0.00    +0.115 C 
ATOM      9  C   UNL     1     -36.552  23.445   3.616  0.00  0.00    +0.193 C 
ATOM     10  C   UNL     1     -32.982  27.653   4.498  0.00  0.00    +0.193 C 
ATOM     11  H   UNL     1     -38.068  24.818   3.780  0.00  0.00    +0.159 HD
ATOM     12  H   UNL     1     -38.586  23.223   3.476  0.00  0.00    +0.159 HD
ATOM     13  H   UNL     1     -33.065  27.201   6.498  0.00  0.00    +0.159 HD
ATOM     14  H   UNL     1     -32.050  28.516   6.110  0.00  0.00    +0.159 HD
ENDROOT
BRANCH   9  15
ATOM     15  N   UNL     1     -36.257  22.188   3.412  0.00  0.00    -0.181 NA
BRANCH  15  17
ATOM     16  N   UNL     1     -37.848  20.880   2.239  0.00  0.00    -0.368 N 
ATOM     17  C   UNL     1     -36.682  21.616   2.229  0.00  0.00    +0.225 C 
ATOM     18  H   UNL     1     -38.346  20.759   3.080  0.00  0.00    +0.159 HD
ATOM     19  H   UNL     1     -38.184  20.476   1.407  0.00  0.00    +0.159 HD
BRANCH  17  20
ATOM     20  N   UNL     1     -35.917  21.863   1.200  0.00  0.00    -0.212 NA
BRANCH  20  22
ATOM     21 CL   UNL     1     -31.012  18.655   0.453  0.00  0.00    -0.082 Cl
ATOM     22  C   UNL     1     -34.751  21.101   1.024  0.00  0.00    +0.084 C 
ATOM     23  C   UNL     1     -33.708  21.603   0.252  0.00  0.00    +0.020 C 
ATOM     24  C   UNL     1     -34.648  19.848   1.621  0.00  0.00    +0.020 C 
ATOM     25  C   UNL     1     -32.550  20.845   0.075  0.00  0.00    +0.013 C 
ATOM     26  C   UNL     1     -33.489  19.090   1.444  0.00  0.00    +0.013 C 
ATOM     27  C   UNL     1     -32.441  19.589   0.671  0.00  0.00    +0.058 C 
ENDBRANCH  20  22
ENDBRANCH  17  20
ENDBRANCH  15  17
ENDBRANCH   9  15
BRANCH  10  28
ATOM     28  N   UNL     1     -32.465  28.447   3.595  0.00  0.00    -0.181 NA
BRANCH  28  30
ATOM     29  N   UNL     1     -30.862  30.165   3.901  0.00  0.00    -0.368 N 
ATOM     30  C   UNL     1     -32.173  29.742   3.975  0.00  0.00    +0.225 C 
ATOM     31  H   UNL     1     -30.160  29.543   3.601  0.00  0.00    +0.159 HD
ATOM     32  H   UNL     1     -30.628  31.088   4.150  0.00  0.00    +0.159 HD
BRANCH  30  33
ATOM     33  N   UNL     1     -33.207  30.443   4.351  0.00  0.00    -0.212 NA
BRANCH  33  35
ATOM     34 CL   UNL     1     -36.404  33.233   0.238  0.00  0.00    -0.082 Cl
ATOM     35  C   UNL     1     -33.967  31.107   3.373  0.00  0.00    +0.084 C 
ATOM     36  C   UNL     1     -35.286  30.726   3.147  0.00  0.00    +0.020 C 
ATOM     37  C   UNL     1     -33.396  32.142   2.638  0.00  0.00    +0.020 C 
ATOM     38  C   UNL     1     -36.041  31.383   2.176  0.00  0.00    +0.013 C 
ATOM     39  C   UNL     1     -34.150  32.800   1.667  0.00  0.00    +0.013 C 
ATOM     40  C   UNL     1     -35.473  32.421   1.436  0.00  0.00    +0.058 C 
ENDBRANCH  33  35
ENDBRANCH  30  33
ENDBRANCH  28  30
ENDBRANCH  10  28
TORSDOF 8
ENDMDL
MODEL 4
REMARK VINA RESULT:      -7.2      1.456      1.950
REMARK  Name = 5371549
REMARK  8 active torsions:
REMARK  status: ('A' for Active; 'I' for Inactive)
REMARK    1  A    between atoms: N_5  and  C_11
REMARK    2  A    between atoms: N_5  and  C_19
REMARK    3  A    between atoms: N_6  and  C_12
REMARK    4  A    between atoms: N_6  and  C_31
REMARK    5  A    between atoms: N_17  and  C_19
REMARK    6  A    between atoms: N_17  and  C_23
REMARK    7  A    between atoms: N_29  and  C_31
REMARK    8  A    between atoms: N_29  and  C_35
REMARK                            x       y       z     vdW  Elec       q    Type
REMARK                         _______ _______ _______ _____ _____    ______ ____
ROOT
ATOM      1  N   UNL     1     -33.864  26.627   4.269  0.00  0.00    -0.277 N 
ATOM      2  N   UNL     1     -35.693  24.451   3.802  0.00  0.00    -0.277 N 
ATOM      3  N   UNL     1     -32.685  27.778   5.822  0.00  0.00    -0.371 N 
ATOM      4  N   UNL     1     -37.862  23.833   3.607  0.00  0.00    -0.371 N 
ATOM      5  C   UNL     1     -33.851  25.882   3.011  0.00  0.00    +0.115 C 
ATOM      6  C   UNL     1     -34.845  26.230   5.277  0.00  0.00    +0.115 C 
ATOM      7  C   UNL     1     -34.352  24.455   3.219  0.00  0.00    +0.115 C 
ATOM      8  C   UNL     1     -36.072  25.599   4.625  0.00  0.00    +0.115 C 
ATOM      9  C   UNL     1     -33.000  27.646   4.491  0.00  0.00    +0.193 C 
ATOM     10  C   UNL     1     -36.550  23.425   3.588  0.00  0.00    +0.193 C 
ATOM     11  H   UNL     1     -33.082  27.168   6.484  0.00  0.00    +0.159 HD
ATOM     12  H   UNL     1     -32.064  28.484   6.112  0.00  0.00    +0.159 HD
ATOM     13  H   UNL     1     -38.082  24.779   3.766  0.00  0.00    +0.159 HD
ATOM     14  H   UNL     1     -38.583  23.177   3.463  0.00  0.00    +0.159 HD
ENDROOT
BRANCH   9  15
ATOM     15  N   UNL     1     -32.483  28.449   3.597  0.00  0.00    -0.181 NA
BRANCH  15  17
ATOM     16  N   UNL     1     -30.870  30.150   3.949  0.00  0.00    -0.368 N 
ATOM     17  C   UNL     1     -32.186  29.738   3.993  0.00  0.00    +0.225 C 
ATOM     18  H   UNL     1     -30.169  29.524   3.656  0.00  0.00    +0.159 HD
ATOM     19  H   UNL     1     -30.632  31.069   4.209  0.00  0.00    +0.159 HD
BRANCH  17  20
ATOM     20  N   UNL     1     -33.220  30.447   4.357  0.00  0.00    -0.212 NA
BRANCH  20  22
ATOM     21 CL   UNL     1     -36.386  33.209   0.203  0.00  0.00    -0.082 Cl
ATOM     22  C   UNL     1     -33.972  31.104   3.370  0.00  0.00    +0.084 C 
ATOM     23  C   UNL     1     -35.282  30.707   3.121  0.00  0.00    +0.020 C 
ATOM     24  C   UNL     1     -33.403  32.148   2.648  0.00  0.00    +0.020 C 
ATOM     25  C   UNL     1     -36.030  31.358   2.140  0.00  0.00    +0.013 C 
ATOM     26  C   UNL     1     -34.150  32.801   1.667  0.00  0.00    +0.013 C 
ATOM     27  C   UNL     1     -35.463  32.405   1.414  0.00  0.00    +0.058 C 
ENDBRANCH  20  22
ENDBRANCH  17  20
ENDBRANCH  15  17
ENDBRANCH   9  15
BRANCH  10  28
ATOM     28  N   UNL     1     -36.242  22.171   3.378  0.00  0.00    -0.181 NA
BRANCH  28  30
ATOM     29  N   UNL     1     -37.848  20.855   2.237  0.00  0.00    -0.368 N 
ATOM     30  C   UNL     1     -36.683  21.592   2.205  0.00  0.00    +0.225 C 
ATOM     31  H   UNL     1     -38.333  20.738   3.087  0.00  0.00    +0.159 HD
ATOM     32  H   UNL     1     -38.194  20.444   1.412  0.00  0.00    +0.159 HD
BRANCH  30  33
ATOM     33  N   UNL     1     -35.933  21.834   1.166  0.00  0.00    -0.212 NA
BRANCH  33  35
ATOM     34 CL   UNL     1     -30.977  18.697   0.436  0.00  0.00    -0.082 Cl
ATOM     35  C   UNL     1     -34.755  21.087   0.992  0.00  0.00    +0.084 C 
ATOM     36  C   UNL     1     -34.641  19.829   1.575  0.00  0.00    +0.020 C 
ATOM     37  C   UNL     1     -33.710  21.612   0.237  0.00  0.00    +0.020 C 
ATOM     38  C   UNL     1     -33.471  19.089   1.404  0.00  0.00    +0.013 C 
ATOM     39  C   UNL     1     -32.540  20.872   0.065  0.00  0.00    +0.013 C 
ATOM     40  C   UNL     1     -32.421  19.611   0.648  0.00  0.00    +0.058 C 
ENDBRANCH  33  35
ENDBRANCH  30  33
ENDBRANCH  28  30
ENDBRANCH  10  28
TORSDOF 8
ENDMDL
MODEL 5
REMARK VINA RESULT:      -7.0      1.963      9.816
REMARK  Name = 5371549
REMARK  8 active torsions:
REMARK  status: ('A' for Active; 'I' for Inactive)
REMARK    1  A    between atoms: N_5  and  C_11
REMARK    2  A    between atoms: N_5  and  C_19
REMARK    3  A    between atoms: N_6  and  C_12
REMARK    4  A    between atoms: N_6  and  C_31
REMARK    5  A    between atoms: N_17  and  C_19
REMARK    6  A    between atoms: N_17  and  C_23
REMARK    7  A    between atoms: N_29  and  C_31
REMARK    8  A    between atoms: N_29  and  C_35
REMARK                            x       y       z     vdW  Elec       q    Type
REMARK                         _______ _______ _______ _____ _____    ______ ____
ROOT
ATOM      1  N   UNL     1     -35.879  22.971   2.273  0.00  0.00    -0.277 N 
ATOM      2  N   UNL     1     -35.452  24.949   4.323  0.00  0.00    -0.277 N 
ATOM      3  N   UNL     1     -35.679  22.488   0.070  0.00  0.00    -0.371 N 
ATOM      4  N   UNL     1     -36.350  26.671   5.485  0.00  0.00    -0.371 N 
ATOM      5  C   UNL     1     -35.592  22.583   3.654  0.00  0.00    +0.115 C 
ATOM      6  C   UNL     1     -35.947  24.400   1.975  0.00  0.00    +0.115 C 
ATOM      7  C   UNL     1     -34.768  23.656   4.360  0.00  0.00    +0.115 C 
ATOM      8  C   UNL     1     -36.365  25.195   3.209  0.00  0.00    +0.115 C 
ATOM      9  C   UNL     1     -36.074  22.041   1.308  0.00  0.00    +0.193 C 
ATOM     10  C   UNL     1     -35.245  25.881   5.283  0.00  0.00    +0.193 C 
ATOM     11  H   UNL     1     -35.307  23.394  -0.031  0.00  0.00    +0.159 HD
ATOM     12  H   UNL     1     -35.769  21.902  -0.716  0.00  0.00    +0.159 HD
ATOM     13  H   UNL     1     -37.167  26.522   4.955  0.00  0.00    +0.159 HD
ATOM     14  H   UNL     1     -36.326  27.388   6.160  0.00  0.00    +0.159 HD
ENDROOT
BRANCH   9  15
ATOM     15  N   UNL     1     -36.571  20.841   1.459  0.00  0.00    -0.181 NA
BRANCH  15  17
ATOM     16  N   UNL     1     -36.113  18.794   0.355  0.00  0.00    -0.368 N 
ATOM     17  C   UNL     1     -35.726  19.769   1.251  0.00  0.00    +0.225 C 
ATOM     18  H   UNL     1     -36.981  18.866  -0.105  0.00  0.00    +0.159 HD
ATOM     19  H   UNL     1     -35.523  18.028   0.174  0.00  0.00    +0.159 HD
BRANCH  17  20
ATOM     20  N   UNL     1     -34.613  19.813   1.932  0.00  0.00    -0.212 NA
BRANCH  20  22
ATOM     21 CL   UNL     1     -29.540  18.480  -0.788  0.00  0.00    -0.082 Cl
ATOM     22  C   UNL     1     -33.408  19.496   1.285  0.00  0.00    +0.084 C 
ATOM     23  C   UNL     1     -32.813  18.257   1.501  0.00  0.00    +0.020 C 
ATOM     24  C   UNL     1     -32.817  20.423   0.432  0.00  0.00    +0.020 C 
ATOM     25  C   UNL     1     -31.615  17.942   0.860  0.00  0.00    +0.013 C 
ATOM     26  C   UNL     1     -31.620  20.109  -0.211  0.00  0.00    +0.013 C 
ATOM     27  C   UNL     1     -31.019  18.868   0.004  0.00  0.00    +0.058 C 
ENDBRANCH  20  22
ENDBRANCH  17  20
ENDBRANCH  15  17
ENDBRANCH   9  15
BRANCH  10  28
ATOM     28  N   UNL     1     -34.153  26.067   5.979  0.00  0.00    -0.181 NA
BRANCH  28  30
ATOM     29  N   UNL     1     -33.098  27.177   4.172  0.00  0.00    -0.368 N 
ATOM     30  C   UNL     1     -33.265  27.025   5.532  0.00  0.00    +0.225 C 
ATOM     31  H   UNL     1     -33.593  26.598   3.547  0.00  0.00    +0.159 HD
ATOM     32  H   UNL     1     -32.483  27.863   3.824  0.00  0.00    +0.159 HD
BRANCH  30  33
ATOM     33  N   UNL     1     -32.683  27.709   6.478  0.00  0.00    -0.212 NA
BRANCH  33  35
ATOM     34 CL   UNL     1     -28.690  31.805   4.992  0.00  0.00    -0.082 Cl
ATOM     35  C   UNL     1     -31.734  28.683   6.124  0.00  0.00    +0.084 C 
ATOM     36  C   UNL     1     -30.378  28.371   6.157  0.00  0.00    +0.020 C 
ATOM     37  C   UNL     1     -32.156  29.953   5.743  0.00  0.00    +0.020 C 
ATOM     38  C   UNL     1     -29.436  29.338   5.808  0.00  0.00    +0.013 C 
ATOM     39  C   UNL     1     -31.214  30.920   5.392  0.00  0.00    +0.013 C 
ATOM     40  C   UNL     1     -29.854  30.613   5.425  0.00  0.00    +0.058 C 
ENDBRANCH  33  35
ENDBRANCH  30  33
ENDBRANCH  28  30
ENDBRANCH  10  28
TORSDOF 8
ENDMDL
MODEL 6
REMARK VINA RESULT:      -7.0      2.313      3.273
REMARK  Name = 5371549
REMARK  8 active torsions:
REMARK  status: ('A' for Active; 'I' for Inactive)
REMARK    1  A    between atoms: N_5  and  C_11
REMARK    2  A    between atoms: N_5  and  C_19
REMARK    3  A    between atoms: N_6  and  C_12
REMARK    4  A    between atoms: N_6  and  C_31
REMARK    5  A    between atoms: N_17  and  C_19
REMARK    6  A    between atoms: N_17  and  C_23
REMARK    7  A    between atoms: N_29  and  C_31
REMARK    8  A    between atoms: N_29  and  C_35
REMARK                            x       y       z     vdW  Elec       q    Type
REMARK                         _______ _______ _______ _____ _____    ______ ____
ROOT
ATOM      1  N   UNL     1     -35.405  25.237   3.620  0.00  0.00    -0.277 N 
ATOM      2  N   UNL     1     -36.272  22.584   2.907  0.00  0.00    -0.277 N 
ATOM      3  N   UNL     1     -34.936  26.657   5.320  0.00  0.00    -0.371 N 
ATOM      4  N   UNL     1     -38.037  21.259   2.402  0.00  0.00    -0.371 N 
ATOM      5  C   UNL     1     -34.956  24.598   2.384  0.00  0.00    +0.115 C 
ATOM      6  C   UNL     1     -36.317  24.480   4.476  0.00  0.00    +0.115 C 
ATOM      7  C   UNL     1     -34.949  23.079   2.528  0.00  0.00    +0.115 C 
ATOM      8  C   UNL     1     -37.140  23.491   3.657  0.00  0.00    +0.115 C 
ATOM      9  C   UNL     1     -34.993  26.481   3.958  0.00  0.00    +0.193 C 
ATOM     10  C   UNL     1     -36.676  21.334   2.579  0.00  0.00    +0.193 C 
ATOM     11  H   UNL     1     -35.182  25.918   5.922  0.00  0.00    +0.159 HD
ATOM     12  H   UNL     1     -34.648  27.521   5.692  0.00  0.00    +0.159 HD
ATOM     13  H   UNL     1     -38.594  22.062   2.518  0.00  0.00    +0.159 HD
ATOM     14  H   UNL     1     -38.455  20.401   2.158  0.00  0.00    +0.159 HD
ENDROOT
BRANCH   9  15
ATOM     15  N   UNL     1     -34.670  27.453   3.144  0.00  0.00    -0.181 NA
BRANCH  15  17
ATOM     16  N   UNL     1     -32.375  27.373   2.557  0.00  0.00    -0.368 N 
ATOM     17  C   UNL     1     -33.399  27.981   3.253  0.00  0.00    +0.225 C 
ATOM     18  H   UNL     1     -32.557  26.573   2.013  0.00  0.00    +0.159 HD
ATOM     19  H   UNL     1     -31.462  27.739   2.603  0.00  0.00    +0.159 HD
BRANCH  17  20
ATOM     20  N   UNL     1     -33.314  29.040   4.011  0.00  0.00    -0.212 NA
BRANCH  20  22
ATOM     21 CL   UNL     1     -28.385  29.911   7.150  0.00  0.00    -0.082 Cl
ATOM     22  C   UNL     1     -32.143  29.248   4.758  0.00  0.00    +0.084 C 
ATOM     23  C   UNL     1     -31.272  30.274   4.406  0.00  0.00    +0.020 C 
ATOM     24  C   UNL     1     -31.861  28.425   5.844  0.00  0.00    +0.020 C 
ATOM     25  C   UNL     1     -30.108  30.479   5.147  0.00  0.00    +0.013 C 
ATOM     26  C   UNL     1     -30.698  28.631   6.586  0.00  0.00    +0.013 C 
ATOM     27  C   UNL     1     -29.821  29.658   6.237  0.00  0.00    +0.058 C 
ENDBRANCH  20  22
ENDBRANCH  17  20
ENDBRANCH  15  17
ENDBRANCH   9  15
BRANCH  10  28
ATOM     28  N   UNL     1     -35.922  20.276   2.427  0.00  0.00    -0.181 NA
BRANCH  28  30
ATOM     29  N   UNL     1     -36.767  18.714   0.858  0.00  0.00    -0.368 N 
ATOM     30  C   UNL     1     -35.863  19.707   1.170  0.00  0.00    +0.225 C 
ATOM     31  H   UNL     1     -37.421  18.414   1.531  0.00  0.00    +0.159 HD
ATOM     32  H   UNL     1     -36.757  18.302  -0.036  0.00  0.00    +0.159 HD
BRANCH  30  33
ATOM     33  N   UNL     1     -34.942  20.206   0.392  0.00  0.00    -0.212 NA
BRANCH  33  35
ATOM     34 CL   UNL     1     -29.448  18.055   0.734  0.00  0.00    -0.082 Cl
ATOM     35  C   UNL     1     -33.636  19.696   0.474  0.00  0.00    +0.084 C 
ATOM     36  C   UNL     1     -32.579  20.404  -0.090  0.00  0.00    +0.020 C 
ATOM     37  C   UNL     1     -33.407  18.483   1.119  0.00  0.00    +0.020 C 
ATOM     38  C   UNL     1     -31.283  19.897  -0.010  0.00  0.00    +0.013 C 
ATOM     39  C   UNL     1     -32.111  17.975   1.199  0.00  0.00    +0.013 C 
ATOM     40  C   UNL     1     -31.048  18.682   0.635  0.00  0.00    +0.058 C 
ENDBRANCH  33  35
ENDBRANCH  30  33
ENDBRANCH  28  30
ENDBRANCH  10  28
TORSDOF 8
ENDMDL
MODEL 7
REMARK VINA RESULT:      -7.0      2.578      8.939
REMARK  Name = 5371549
REMARK  8 active torsions:
REMARK  status: ('A' for Active; 'I' for Inactive)
REMARK    1  A    between atoms: N_5  and  C_11
REMARK    2  A    between atoms: N_5  and  C_19
REMARK    3  A    between atoms: N_6  and  C_12
REMARK    4  A    between atoms: N_6  and  C_31
REMARK    5  A    between atoms: N_17  and  C_19
REMARK    6  A    between atoms: N_17  and  C_23
REMARK    7  A    between atoms: N_29  and  C_31
REMARK    8  A    between atoms: N_29  and  C_35
REMARK                            x       y       z     vdW  Elec       q    Type
REMARK                         _______ _______ _______ _____ _____    ______ ____
ROOT
ATOM      1  N   UNL     1     -36.075  22.859   2.318  0.00  0.00    -0.277 N 
ATOM      2  N   UNL     1     -35.582  24.774   4.413  0.00  0.00    -0.277 N 
ATOM      3  N   UNL     1     -35.924  22.436   0.099  0.00  0.00    -0.371 N 
ATOM      4  N   UNL     1     -36.436  26.475   5.640  0.00  0.00    -0.371 N 
ATOM      5  C   UNL     1     -35.766  22.430   3.681  0.00  0.00    +0.115 C 
ATOM      6  C   UNL     1     -36.131  24.298   2.061  0.00  0.00    +0.115 C 
ATOM      7  C   UNL     1     -34.915  23.473   4.400  0.00  0.00    +0.115 C 
ATOM      8  C   UNL     1     -36.515  25.063   3.324  0.00  0.00    +0.115 C 
ATOM      9  C   UNL     1     -36.300  21.960   1.332  0.00  0.00    +0.193 C 
ATOM     10  C   UNL     1     -35.345  25.676   5.394  0.00  0.00    +0.193 C 
ATOM     11  H   UNL     1     -35.543  23.340   0.016  0.00  0.00    +0.159 HD
ATOM     12  H   UNL     1     -36.037  21.874  -0.701  0.00  0.00    +0.159 HD
ATOM     13  H   UNL     1     -37.264  26.350   5.122  0.00  0.00    +0.159 HD
ATOM     14  H   UNL     1     -36.390  27.172   6.334  0.00  0.00    +0.159 HD
ENDROOT
BRANCH   9  15
ATOM     15  N   UNL     1     -36.810  20.762   1.460  0.00  0.00    -0.181 NA
BRANCH  15  17
ATOM     16  N   UNL     1     -36.335  18.710   0.372  0.00  0.00    -0.368 N 
ATOM     17  C   UNL     1     -35.965  19.686   1.274  0.00  0.00    +0.225 C 
ATOM     18  H   UNL     1     -37.192  18.784  -0.107  0.00  0.00    +0.159 HD
ATOM     19  H   UNL     1     -35.744  17.940   0.208  0.00  0.00    +0.159 HD
BRANCH  17  20
ATOM     20  N   UNL     1     -34.869  19.727   1.981  0.00  0.00    -0.212 NA
BRANCH  20  22
ATOM     21 CL   UNL     1     -29.691  18.807  -0.714  0.00  0.00    -0.082 Cl
ATOM     22  C   UNL     1     -33.639  19.508   1.340  0.00  0.00    +0.084 C 
ATOM     23  C   UNL     1     -32.959  18.310   1.539  0.00  0.00    +0.020 C 
ATOM     24  C   UNL     1     -33.107  20.491   0.511  0.00  0.00    +0.020 C 
ATOM     25  C   UNL     1     -31.737  18.093   0.903  0.00  0.00    +0.013 C 
ATOM     26  C   UNL     1     -31.885  20.274  -0.126  0.00  0.00    +0.013 C 
ATOM     27  C   UNL     1     -31.200  19.075   0.071  0.00  0.00    +0.058 C 
ENDBRANCH  20  22
ENDBRANCH  17  20
ENDBRANCH  15  17
ENDBRANCH   9  15
BRANCH  10  28
ATOM     28  N   UNL     1     -34.237  25.830   6.073  0.00  0.00    -0.181 NA
BRANCH  28  30
ATOM     29  N   UNL     1     -32.652  27.424   6.823  0.00  0.00    -0.368 N 
ATOM     30  C   UNL     1     -33.488  26.963   5.827  0.00  0.00    +0.225 C 
ATOM     31  H   UNL     1     -32.614  26.956   7.689  0.00  0.00    +0.159 HD
ATOM     32  H   UNL     1     -32.095  28.220   6.668  0.00  0.00    +0.159 HD
BRANCH  30  33
ATOM     33  N   UNL     1     -33.648  27.471   4.636  0.00  0.00    -0.212 NA
BRANCH  33  35
ATOM     34 CL   UNL     1     -29.428  26.631   0.586  0.00  0.00    -0.082 Cl
ATOM     35  C   UNL     1     -32.644  27.271   3.674  0.00  0.00    +0.084 C 
ATOM     36  C   UNL     1     -31.529  28.103   3.654  0.00  0.00    +0.020 C 
ATOM     37  C   UNL     1     -32.773  26.241   2.746  0.00  0.00    +0.020 C 
ATOM     38  C   UNL     1     -30.533  27.905   2.698  0.00  0.00    +0.013 C 
ATOM     39  C   UNL     1     -31.777  26.043   1.789  0.00  0.00    +0.013 C 
ATOM     40  C   UNL     1     -30.657  26.875   1.766  0.00  0.00    +0.058 C 
ENDBRANCH  33  35
ENDBRANCH  30  33
ENDBRANCH  28  30
ENDBRANCH  10  28
TORSDOF 8
ENDMDL
MODEL 8
REMARK VINA RESULT:      -7.0      2.278     10.120
REMARK  Name = 5371549
REMARK  8 active torsions:
REMARK  status: ('A' for Active; 'I' for Inactive)
REMARK    1  A    between atoms: N_5  and  C_11
REMARK    2  A    between atoms: N_5  and  C_19
REMARK    3  A    between atoms: N_6  and  C_12
REMARK    4  A    between atoms: N_6  and  C_31
REMARK    5  A    between atoms: N_17  and  C_19
REMARK    6  A    between atoms: N_17  and  C_23
REMARK    7  A    between atoms: N_29  and  C_31
REMARK    8  A    between atoms: N_29  and  C_35
REMARK                            x       y       z     vdW  Elec       q    Type
REMARK                         _______ _______ _______ _____ _____    ______ ____
ROOT
ATOM      1  N   UNL     1     -36.605  22.602   2.701  0.00  0.00    -0.277 N 
ATOM      2  N   UNL     1     -35.910  25.341   3.258  0.00  0.00    -0.277 N 
ATOM      3  N   UNL     1     -38.274  21.166   2.173  0.00  0.00    -0.371 N 
ATOM      4  N   UNL     1     -35.634  26.919   4.858  0.00  0.00    -0.371 N 
ATOM      5  C   UNL     1     -35.281  23.130   2.375  0.00  0.00    +0.115 C 
ATOM      6  C   UNL     1     -37.560  23.515   3.327  0.00  0.00    +0.115 C 
ATOM      7  C   UNL     1     -35.345  24.632   2.111  0.00  0.00    +0.115 C 
ATOM      8  C   UNL     1     -36.837  24.603   4.115  0.00  0.00    +0.115 C 
ATOM      9  C   UNL     1     -36.933  21.316   2.433  0.00  0.00    +0.193 C 
ATOM     10  C   UNL     1     -35.589  26.631   3.515  0.00  0.00    +0.193 C 
ATOM     11  H   UNL     1     -38.871  21.949   2.197  0.00  0.00    +0.159 HD
ATOM     12  H   UNL     1     -38.638  20.276   1.962  0.00  0.00    +0.159 HD
ATOM     13  H   UNL     1     -35.881  26.218   5.504  0.00  0.00    +0.159 HD
ATOM     14  H   UNL     1     -35.419  27.827   5.175  0.00  0.00    +0.159 HD
ENDROOT
BRANCH   9  15
ATOM     15  N   UNL     1     -36.127  20.286   2.406  0.00  0.00    -0.181 NA
BRANCH  15  17
ATOM     16  N   UNL     1     -36.691  18.584   0.856  0.00  0.00    -0.368 N 
ATOM     17  C   UNL     1     -35.914  19.674   1.187  0.00  0.00    +0.225 C 
ATOM     18  H   UNL     1     -37.366  18.251   1.491  0.00  0.00    +0.159 HD
ATOM     19  H   UNL     1     -36.572  18.139  -0.014  0.00  0.00    +0.159 HD
BRANCH  17  20
ATOM     20  N   UNL     1     -34.985  20.228   0.456  0.00  0.00    -0.212 NA
BRANCH  20  22
ATOM     21 CL   UNL     1     -29.483  18.092   0.736  0.00  0.00    -0.082 Cl
ATOM     22  C   UNL     1     -33.677  19.720   0.522  0.00  0.00    +0.084 C 
ATOM     23  C   UNL     1     -33.432  18.528   1.196  0.00  0.00    +0.020 C 
ATOM     24  C   UNL     1     -32.636  20.412  -0.088  0.00  0.00    +0.020 C 
ATOM     25  C   UNL     1     -32.133  18.024   1.263  0.00  0.00    +0.013 C 
ATOM     26  C   UNL     1     -31.336  19.908  -0.022  0.00  0.00    +0.013 C 
ATOM     27  C   UNL     1     -31.086  18.714   0.653  0.00  0.00    +0.058 C 
ENDBRANCH  20  22
ENDBRANCH  17  20
ENDBRANCH  15  17
ENDBRANCH   9  15
BRANCH  10  28
ATOM     28  N   UNL     1     -35.263  27.551   2.644  0.00  0.00    -0.181 NA
BRANCH  28  30
ATOM     29  N   UNL     1     -32.927  27.891   2.438  0.00  0.00    -0.368 N 
ATOM     30  C   UNL     1     -34.148  28.320   2.914  0.00  0.00    +0.225 C 
ATOM     31  H   UNL     1     -32.864  27.046   1.936  0.00  0.00    +0.159 HD
ATOM     32  H   UNL     1     -32.118  28.427   2.602  0.00  0.00    +0.159 HD
BRANCH  30  33
ATOM     33  N   UNL     1     -34.390  29.408   3.592  0.00  0.00    -0.212 NA
BRANCH  33  35
ATOM     34 CL   UNL     1     -35.241  34.464   0.652  0.00  0.00    -0.082 Cl
ATOM     35  C   UNL     1     -34.593  30.610   2.894  0.00  0.00    +0.084 C 
ATOM     36  C   UNL     1     -35.840  30.889   2.344  0.00  0.00    +0.020 C 
ATOM     37  C   UNL     1     -33.544  31.515   2.756  0.00  0.00    +0.020 C 
ATOM     38  C   UNL     1     -36.041  32.082   1.650  0.00  0.00    +0.013 C 
ATOM     39  C   UNL     1     -33.744  32.708   2.063  0.00  0.00    +0.013 C 
ATOM     40  C   UNL     1     -34.993  32.992   1.509  0.00  0.00    +0.058 C 
ENDBRANCH  33  35
ENDBRANCH  30  33
ENDBRANCH  28  30
ENDBRANCH  10  28
TORSDOF 8
ENDMDL
MODEL 9
REMARK VINA RESULT:      -6.9      2.556      3.658
REMARK  Name = 5371549
REMARK  8 active torsions:
REMARK  status: ('A' for Active; 'I' for Inactive)
REMARK    1  A    between atoms: N_5  and  C_11
REMARK    2  A    between atoms: N_5  and  C_19
REMARK    3  A    between atoms: N_6  and  C_12
REMARK    4  A    between atoms: N_6  and  C_31
REMARK    5  A    between atoms: N_17  and  C_19
REMARK    6  A    between atoms: N_17  and  C_23
REMARK    7  A    between atoms: N_29  and  C_31
REMARK    8  A    between atoms: N_29  and  C_35
REMARK                            x       y       z     vdW  Elec       q    Type
REMARK                         _______ _______ _______ _____ _____    ______ ____
ROOT
ATOM      1  N   UNL     1     -35.499  24.816   4.359  0.00  0.00    -0.277 N 
ATOM      2  N   UNL     1     -35.851  22.887   2.249  0.00  0.00    -0.277 N 
ATOM      3  N   UNL     1     -36.453  26.508   5.523  0.00  0.00    -0.371 N 
ATOM      4  N   UNL     1     -35.579  22.446   0.045  0.00  0.00    -0.371 N 
ATOM      5  C   UNL     1     -34.821  23.522   4.394  0.00  0.00    +0.115 C 
ATOM      6  C   UNL     1     -36.357  25.097   3.209  0.00  0.00    +0.115 C 
ATOM      7  C   UNL     1     -35.619  22.468   3.631  0.00  0.00    +0.115 C 
ATOM      8  C   UNL     1     -35.890  24.324   1.979  0.00  0.00    +0.115 C 
ATOM      9  C   UNL     1     -35.339  25.721   5.354  0.00  0.00    +0.193 C 
ATOM     10  C   UNL     1     -36.023  21.980   1.259  0.00  0.00    +0.193 C 
ATOM     11  H   UNL     1     -37.241  26.375   4.949  0.00  0.00    +0.159 HD
ATOM     12  H   UNL     1     -36.460  27.205   6.218  0.00  0.00    +0.159 HD
ATOM     13  H   UNL     1     -35.192  23.349  -0.025  0.00  0.00    +0.159 HD
ATOM     14  H   UNL     1     -35.649  21.877  -0.756  0.00  0.00    +0.159 HD
ENDROOT
BRANCH   9  15
ATOM     15  N   UNL     1     -34.282  25.884   6.107  0.00  0.00    -0.181 NA
BRANCH  15  17
ATOM     16  N   UNL     1     -32.603  27.390   6.835  0.00  0.00    -0.368 N 
ATOM     17  C   UNL     1     -33.480  26.979   5.853  0.00  0.00    +0.225 C 
ATOM     18  H   UNL     1     -32.573  26.916   7.697  0.00  0.00    +0.159 HD
ATOM     19  H   UNL     1     -32.007  28.157   6.674  0.00  0.00    +0.159 HD
BRANCH  17  20
ATOM     20  N   UNL     1     -33.635  27.502   4.667  0.00  0.00    -0.212 NA
BRANCH  20  22
ATOM     21 CL   UNL     1     -29.354  26.794   0.657  0.00  0.00    -0.082 Cl
ATOM     22  C   UNL     1     -32.618  27.335   3.713  0.00  0.00    +0.084 C 
ATOM     23  C   UNL     1     -32.677  26.270   2.820  0.00  0.00    +0.020 C 
ATOM     24  C   UNL     1     -31.557  28.234   3.669  0.00  0.00    +0.020 C 
ATOM     25  C   UNL     1     -31.667  26.102   1.873  0.00  0.00    +0.013 C 
ATOM     26  C   UNL     1     -30.546  28.067   2.722  0.00  0.00    +0.013 C 
ATOM     27  C   UNL     1     -30.601  27.001   1.825  0.00  0.00    +0.058 C 
ENDBRANCH  20  22
ENDBRANCH  17  20
ENDBRANCH  15  17
ENDBRANCH   9  15
BRANCH  10  28
ATOM     28  N   UNL     1     -36.541  20.783   1.367  0.00  0.00    -0.181 NA
BRANCH  28  30
ATOM     29  N   UNL     1     -36.076  18.726   0.287  0.00  0.00    -0.368 N 
ATOM     30  C   UNL     1     -35.699  19.704   1.183  0.00  0.00    +0.225 C 
ATOM     31  H   UNL     1     -36.936  18.799  -0.189  0.00  0.00    +0.159 HD
ATOM     32  H   UNL     1     -35.488  17.953   0.124  0.00  0.00    +0.159 HD
BRANCH  30  33
ATOM     33  N   UNL     1     -34.601  19.747   1.885  0.00  0.00    -0.212 NA
BRANCH  33  35
ATOM     34 CL   UNL     1     -29.469  18.494  -0.766  0.00  0.00    -0.082 Cl
ATOM     35  C   UNL     1     -33.381  19.448   1.254  0.00  0.00    +0.084 C 
ATOM     36  C   UNL     1     -32.761  18.225   1.491  0.00  0.00    +0.020 C 
ATOM     37  C   UNL     1     -32.801  20.379   0.397  0.00  0.00    +0.020 C 
ATOM     38  C   UNL     1     -31.550  17.930   0.866  0.00  0.00    +0.013 C 
ATOM     39  C   UNL     1     -31.590  20.084  -0.229  0.00  0.00    +0.013 C 
ATOM     40  C   UNL     1     -30.964  18.859   0.005  0.00  0.00    +0.058 C 
ENDBRANCH  33  35
ENDBRANCH  30  33
ENDBRANCH  28  30
ENDBRANCH  10  28
TORSDOF 8
ENDMDL
