MODEL 1
REMARK VINA RESULT:      -6.7      0.000      0.000
REMARK  Name = 5281789
REMARK  7 active torsions:
REMARK  status: ('A' for Active; 'I' for Inactive)
REMARK    1  A    between atoms: C_1  and  C_9
REMARK    2  A    between atoms: C_2  and  C_26
REMARK    3  A    between atoms: C_3  and  O_22
REMARK    4  A    between atoms: C_4  and  O_24
REMARK    5  A    between atoms: C_14  and  O_18
REMARK    6  A    between atoms: C_17  and  O_20
REMARK    7  A    between atoms: C_26  and  C_27
REMARK                            x       y       z     vdW  Elec       q    Type
REMARK                         _______ _______ _______ _____ _____    ______ ____
ROOT
ATOM      1  C   UNL     1     -34.970  24.441   4.120  0.00  0.00    +0.040 C 
ATOM      2  C   UNL     1     -35.437  22.093   3.758  0.00  0.00    +0.049 C 
ATOM      3  C   UNL     1     -35.216  23.374   3.252  0.00  0.00    +0.133 C 
ATOM      4  C   UNL     1     -35.413  21.874   5.135  0.00  0.00    +0.133 C 
ATOM      5  C   UNL     1     -34.947  24.217   5.500  0.00  0.00    +0.006 C 
ATOM      6  C   UNL     1     -35.167  22.935   6.006  0.00  0.00    +0.037 C 
ENDROOT
BRANCH   1   9
ATOM      7  O   UNL     1     -33.206  27.680   3.409  0.00  0.00    -0.450 OA
ATOM      8  O   UNL     1     -36.866  26.072   2.590  0.00  0.00    -0.286 OA
ATOM      9  C   UNL     1     -34.733  25.802   3.614  0.00  0.00    +0.080 C 
ATOM     10  C   UNL     1     -35.378  27.879   2.342  0.00  0.00    +0.107 C 
ATOM     11  C   UNL     1     -35.758  26.538   2.824  0.00  0.00    +0.205 C 
ATOM     12  C   UNL     1     -34.117  28.383   2.662  0.00  0.00    +0.154 C 
ATOM     13  C   UNL     1     -33.565  26.423   3.834  0.00  0.00    +0.183 C 
ATOM     14  C   UNL     1     -36.266  28.641   1.579  0.00  0.00    +0.143 C 
ATOM     15  C   UNL     1     -33.737  29.651   2.220  0.00  0.00    +0.074 C 
ATOM     16  C   UNL     1     -35.884  29.909   1.137  0.00  0.00    +0.073 C 
ATOM     17  C   UNL     1     -34.622  30.412   1.457  0.00  0.00    +0.140 C 
BRANCH  14  18
ATOM     18  O   UNL     1     -37.508  28.198   1.236  0.00  0.00    -0.505 OA
ATOM     19  H   UNL     1     -38.223  28.299   1.834  0.00  0.00    +0.292 HD
ENDBRANCH  14  18
BRANCH  17  20
ATOM     20  O   UNL     1     -34.256  31.650   1.025  0.00  0.00    -0.505 OA
ATOM     21  H   UNL     1     -33.351  31.853   0.900  0.00  0.00    +0.292 HD
ENDBRANCH  17  20
ENDBRANCH   1   9
BRANCH   3  22
ATOM     22  O   UNL     1     -35.242  23.580   1.901  0.00  0.00    -0.506 OA
ATOM     23  H   UNL     1     -35.918  23.193   1.382  0.00  0.00    +0.292 HD
ENDBRANCH   3  22
BRANCH   4  24
ATOM     24  O   UNL     1     -35.627  20.629   5.647  0.00  0.00    -0.506 OA
ATOM     25  H   UNL     1     -35.338  20.423   6.514  0.00  0.00    +0.292 HD
ENDBRANCH   4  24
BRANCH   2  26
ATOM     26  C   UNL     1     -35.700  20.954   2.826  0.00  0.00    +0.058 C 
BRANCH  26  27
ATOM     27  C   UNL     1     -34.448  20.200   2.455  0.00  0.00    -0.030 C 
ATOM     28  C   UNL     1     -34.240  19.411   1.383  0.00  0.00    -0.048 C 
ATOM     29  C   UNL     1     -32.960  18.688   1.074  0.00  0.00    +0.026 C 
ATOM     30  C   UNL     1     -35.339  19.187   0.379  0.00  0.00    +0.026 C 
ENDBRANCH  26  27
ENDBRANCH   2  26
TORSDOF 7
ENDMDL
MODEL 2
REMARK VINA RESULT:      -6.7      0.857      2.137
REMARK  Name = 5281789
REMARK  7 active torsions:
REMARK  status: ('A' for Active; 'I' for Inactive)
REMARK    1  A    between atoms: C_1  and  C_9
REMARK    2  A    between atoms: C_2  and  C_26
REMARK    3  A    between atoms: C_3  and  O_22
REMARK    4  A    between atoms: C_4  and  O_24
REMARK    5  A    between atoms: C_14  and  O_18
REMARK    6  A    between atoms: C_17  and  O_20
REMARK    7  A    between atoms: C_26  and  C_27
REMARK                            x       y       z     vdW  Elec       q    Type
REMARK                         _______ _______ _______ _____ _____    ______ ____
ROOT
ATOM      1  C   UNL     1     -35.250  24.482   4.115  0.00  0.00    +0.040 C 
ATOM      2  C   UNL     1     -35.536  22.105   3.752  0.00  0.00    +0.049 C 
ATOM      3  C   UNL     1     -35.431  23.402   3.247  0.00  0.00    +0.133 C 
ATOM      4  C   UNL     1     -35.461  21.885   5.127  0.00  0.00    +0.133 C 
ATOM      5  C   UNL     1     -35.175  24.256   5.492  0.00  0.00    +0.006 C 
ATOM      6  C   UNL     1     -35.280  22.959   5.997  0.00  0.00    +0.037 C 
ENDROOT
BRANCH   1   9
ATOM      7  O   UNL     1     -36.163  27.689   2.387  0.00  0.00    -0.450 OA
ATOM      8  O   UNL     1     -32.962  26.278   4.487  0.00  0.00    -0.286 OA
ATOM      9  C   UNL     1     -35.136  25.860   3.610  0.00  0.00    +0.080 C 
ATOM     10  C   UNL     1     -33.967  28.075   3.346  0.00  0.00    +0.107 C 
ATOM     11  C   UNL     1     -33.935  26.699   3.875  0.00  0.00    +0.205 C 
ATOM     12  C   UNL     1     -35.082  28.500   2.625  0.00  0.00    +0.154 C 
ATOM     13  C   UNL     1     -36.131  26.416   2.903  0.00  0.00    +0.183 C 
ATOM     14  C   UNL     1     -32.894  28.945   3.557  0.00  0.00    +0.143 C 
ATOM     15  C   UNL     1     -35.132  29.797   2.112  0.00  0.00    +0.074 C 
ATOM     16  C   UNL     1     -32.946  30.242   3.043  0.00  0.00    +0.073 C 
ATOM     17  C   UNL     1     -34.062  30.666   2.323  0.00  0.00    +0.140 C 
BRANCH  14  18
ATOM     18  O   UNL     1     -31.781  28.583   4.255  0.00  0.00    -0.505 OA
ATOM     19  H   UNL     1     -31.229  27.897   3.933  0.00  0.00    +0.292 HD
ENDBRANCH  14  18
BRANCH  17  20
ATOM     20  O   UNL     1     -34.107  31.932   1.823  0.00  0.00    -0.505 OA
ATOM     21  H   UNL     1     -33.591  32.159   1.076  0.00  0.00    +0.292 HD
ENDBRANCH  17  20
ENDBRANCH   1   9
BRANCH   3  22
ATOM     22  O   UNL     1     -35.507  23.610   1.899  0.00  0.00    -0.506 OA
ATOM     23  H   UNL     1     -35.348  24.463   1.548  0.00  0.00    +0.292 HD
ENDBRANCH   3  22
BRANCH   4  24
ATOM     24  O   UNL     1     -35.563  20.625   5.638  0.00  0.00    -0.506 OA
ATOM     25  H   UNL     1     -35.918  20.494   6.494  0.00  0.00    +0.292 HD
ENDBRANCH   4  24
BRANCH   2  26
ATOM     26  C   UNL     1     -35.730  20.952   2.820  0.00  0.00    +0.058 C 
BRANCH  26  27
ATOM     27  C   UNL     1     -34.439  20.254   2.476  0.00  0.00    -0.030 C 
ATOM     28  C   UNL     1     -34.173  19.481   1.407  0.00  0.00    -0.048 C 
ATOM     29  C   UNL     1     -32.856  18.813   1.125  0.00  0.00    +0.026 C 
ATOM     30  C   UNL     1     -35.237  19.216   0.375  0.00  0.00    +0.026 C 
ENDBRANCH  26  27
ENDBRANCH   2  26
TORSDOF 7
ENDMDL
MODEL 3
REMARK VINA RESULT:      -6.6      2.887      5.892
REMARK  Name = 5281789
REMARK  7 active torsions:
REMARK  status: ('A' for Active; 'I' for Inactive)
REMARK    1  A    between atoms: C_1  and  C_9
REMARK    2  A    between atoms: C_2  and  C_26
REMARK    3  A    between atoms: C_3  and  O_22
REMARK    4  A    between atoms: C_4  and  O_24
REMARK    5  A    between atoms: C_14  and  O_18
REMARK    6  A    between atoms: C_17  and  O_20
REMARK    7  A    between atoms: C_26  and  C_27
REMARK                            x       y       z     vdW  Elec       q    Type
REMARK                         _______ _______ _______ _____ _____    ______ ____
ROOT
ATOM      1  C   UNL     1     -34.674  20.021   1.079  0.00  0.00    +0.040 C 
ATOM      2  C   UNL     1     -35.479  18.259  -0.375  0.00  0.00    +0.049 C 
ATOM      3  C   UNL     1     -35.632  19.527   0.189  0.00  0.00    +0.133 C 
ATOM      4  C   UNL     1     -34.369  17.482  -0.050  0.00  0.00    +0.133 C 
ATOM      5  C   UNL     1     -33.562  19.238   1.400  0.00  0.00    +0.006 C 
ATOM      6  C   UNL     1     -33.409  17.970   0.836  0.00  0.00    +0.037 C 
ENDROOT
BRANCH   1   9
ATOM      7  O   UNL     1     -34.655  23.761   1.412  0.00  0.00    -0.450 OA
ATOM      8  O   UNL     1     -35.483  20.588   3.840  0.00  0.00    -0.286 OA
ATOM      9  C   UNL     1     -34.810  21.353   1.688  0.00  0.00    +0.080 C 
ATOM     10  C   UNL     1     -35.385  22.924   3.571  0.00  0.00    +0.107 C 
ATOM     11  C   UNL     1     -35.251  21.534   3.098  0.00  0.00    +0.205 C 
ATOM     12  C   UNL     1     -35.077  23.970   2.701  0.00  0.00    +0.154 C 
ATOM     13  C   UNL     1     -34.555  22.462   0.976  0.00  0.00    +0.183 C 
ATOM     14  C   UNL     1     -35.809  23.197   4.874  0.00  0.00    +0.143 C 
ATOM     15  C   UNL     1     -35.192  25.293   3.128  0.00  0.00    +0.074 C 
ATOM     16  C   UNL     1     -35.924  24.521   5.300  0.00  0.00    +0.073 C 
ATOM     17  C   UNL     1     -35.617  25.566   4.429  0.00  0.00    +0.140 C 
BRANCH  14  18
ATOM     18  O   UNL     1     -36.124  22.214   5.765  0.00  0.00    -0.505 OA
ATOM     19  H   UNL     1     -36.592  21.455   5.478  0.00  0.00    +0.292 HD
ENDBRANCH  14  18
BRANCH  17  20
ATOM     20  O   UNL     1     -35.729  26.856   4.850  0.00  0.00    -0.505 OA
ATOM     21  H   UNL     1     -35.709  27.054   5.765  0.00  0.00    +0.292 HD
ENDBRANCH  17  20
ENDBRANCH   1   9
BRANCH   3  22
ATOM     22  O   UNL     1     -36.724  20.282  -0.134  0.00  0.00    -0.506 OA
ATOM     23  H   UNL     1     -36.615  21.179  -0.381  0.00  0.00    +0.292 HD
ENDBRANCH   3  22
BRANCH   4  24
ATOM     24  O   UNL     1     -34.203  16.241  -0.591  0.00  0.00    -0.506 OA
ATOM     25  H   UNL     1     -34.578  15.493  -0.171  0.00  0.00    +0.292 HD
ENDBRANCH   4  24
BRANCH   2  26
ATOM     26  C   UNL     1     -36.506  17.734  -1.327  0.00  0.00    +0.058 C 
BRANCH  26  27
ATOM     27  C   UNL     1     -37.575  16.919  -0.643  0.00  0.00    -0.030 C 
ATOM     28  C   UNL     1     -38.294  15.899  -1.151  0.00  0.00    -0.048 C 
ATOM     29  C   UNL     1     -39.347  15.127  -0.409  0.00  0.00    +0.026 C 
ATOM     30  C   UNL     1     -38.080  15.452  -2.572  0.00  0.00    +0.026 C 
ENDBRANCH  26  27
ENDBRANCH   2  26
TORSDOF 7
ENDMDL
MODEL 4
REMARK VINA RESULT:      -6.4      3.182      5.326
REMARK  Name = 5281789
REMARK  7 active torsions:
REMARK  status: ('A' for Active; 'I' for Inactive)
REMARK    1  A    between atoms: C_1  and  C_9
REMARK    2  A    between atoms: C_2  and  C_26
REMARK    3  A    between atoms: C_3  and  O_22
REMARK    4  A    between atoms: C_4  and  O_24
REMARK    5  A    between atoms: C_14  and  O_18
REMARK    6  A    between atoms: C_17  and  O_20
REMARK    7  A    between atoms: C_26  and  C_27
REMARK                            x       y       z     vdW  Elec       q    Type
REMARK                         _______ _______ _______ _____ _____    ______ ____
ROOT
ATOM      1  C   UNL     1     -35.416  25.012   3.369  0.00  0.00    +0.040 C 
ATOM      2  C   UNL     1     -37.686  24.179   3.240  0.00  0.00    +0.049 C 
ATOM      3  C   UNL     1     -36.792  25.221   3.493  0.00  0.00    +0.133 C 
ATOM      4  C   UNL     1     -37.206  22.925   2.863  0.00  0.00    +0.133 C 
ATOM      5  C   UNL     1     -34.940  23.754   2.990  0.00  0.00    +0.006 C 
ATOM      6  C   UNL     1     -35.834  22.712   2.737  0.00  0.00    +0.037 C 
ENDROOT
BRANCH   1   9
ATOM      7  O   UNL     1     -33.178  27.964   2.748  0.00  0.00    -0.450 OA
ATOM      8  O   UNL     1     -34.165  25.632   5.948  0.00  0.00    -0.286 OA
ATOM      9  C   UNL     1     -34.451  26.092   3.629  0.00  0.00    +0.080 C 
ATOM     10  C   UNL     1     -32.964  27.478   5.117  0.00  0.00    +0.107 C 
ATOM     11  C   UNL     1     -33.890  26.338   4.986  0.00  0.00    +0.205 C 
ATOM     12  C   UNL     1     -32.654  28.234   3.987  0.00  0.00    +0.154 C 
ATOM     13  C   UNL     1     -34.056  26.912   2.643  0.00  0.00    +0.183 C 
ATOM     14  C   UNL     1     -32.399  27.800   6.354  0.00  0.00    +0.143 C 
ATOM     15  C   UNL     1     -31.778  29.315   4.087  0.00  0.00    +0.074 C 
ATOM     16  C   UNL     1     -31.523  28.881   6.452  0.00  0.00    +0.073 C 
ATOM     17  C   UNL     1     -31.213  29.638   5.321  0.00  0.00    +0.140 C 
BRANCH  14  18
ATOM     18  O   UNL     1     -32.668  27.096   7.490  0.00  0.00    -0.505 OA
ATOM     19  H   UNL     1     -32.961  27.544   8.259  0.00  0.00    +0.292 HD
ENDBRANCH  14  18
BRANCH  17  20
ATOM     20  O   UNL     1     -30.357  30.691   5.422  0.00  0.00    -0.505 OA
ATOM     21  H   UNL     1     -29.637  30.769   4.828  0.00  0.00    +0.292 HD
ENDBRANCH  17  20
ENDBRANCH   1   9
BRANCH   3  22
ATOM     22  O   UNL     1     -37.270  26.446   3.863  0.00  0.00    -0.506 OA
ATOM     23  H   UNL     1     -36.793  26.968   4.476  0.00  0.00    +0.292 HD
ENDBRANCH   3  22
BRANCH   4  24
ATOM     24  O   UNL     1     -38.064  21.896   2.613  0.00  0.00    -0.506 OA
ATOM     25  H   UNL     1     -38.913  21.887   3.008  0.00  0.00    +0.292 HD
ENDBRANCH   4  24
BRANCH   2  26
ATOM     26  C   UNL     1     -39.157  24.405   3.374  0.00  0.00    +0.058 C 
BRANCH  26  27
ATOM     27  C   UNL     1     -39.762  25.058   2.156  0.00  0.00    -0.030 C 
ATOM     28  C   UNL     1     -40.729  25.995   2.110  0.00  0.00    -0.048 C 
ATOM     29  C   UNL     1     -41.286  26.605   0.855  0.00  0.00    +0.026 C 
ATOM     30  C   UNL     1     -41.350  26.511   3.380  0.00  0.00    +0.026 C 
ENDBRANCH  26  27
ENDBRANCH   2  26
TORSDOF 7
ENDMDL
MODEL 5
REMARK VINA RESULT:      -6.3      3.082      5.179
REMARK  Name = 5281789
REMARK  7 active torsions:
REMARK  status: ('A' for Active; 'I' for Inactive)
REMARK    1  A    between atoms: C_1  and  C_9
REMARK    2  A    between atoms: C_2  and  C_26
REMARK    3  A    between atoms: C_3  and  O_22
REMARK    4  A    between atoms: C_4  and  O_24
REMARK    5  A    between atoms: C_14  and  O_18
REMARK    6  A    between atoms: C_17  and  O_20
REMARK    7  A    between atoms: C_26  and  C_27
REMARK                            x       y       z     vdW  Elec       q    Type
REMARK                         _______ _______ _______ _____ _____    ______ ____
ROOT
ATOM      1  C   UNL     1     -35.250  24.893   4.153  0.00  0.00    +0.040 C 
ATOM      2  C   UNL     1     -37.290  24.277   3.003  0.00  0.00    +0.049 C 
ATOM      3  C   UNL     1     -36.402  25.256   3.451  0.00  0.00    +0.133 C 
ATOM      4  C   UNL     1     -37.028  22.931   3.256  0.00  0.00    +0.133 C 
ATOM      5  C   UNL     1     -34.991  23.542   4.403  0.00  0.00    +0.006 C 
ATOM      6  C   UNL     1     -35.878  22.563   3.954  0.00  0.00    +0.037 C 
ENDROOT
BRANCH   1   9
ATOM      7  O   UNL     1     -33.246  26.991   6.538  0.00  0.00    -0.450 OA
ATOM      8  O   UNL     1     -33.605  26.659   2.486  0.00  0.00    -0.286 OA
ATOM      9  C   UNL     1     -34.297  25.904   4.637  0.00  0.00    +0.080 C 
ATOM     10  C   UNL     1     -32.544  27.685   4.320  0.00  0.00    +0.107 C 
ATOM     11  C   UNL     1     -33.490  26.738   3.703  0.00  0.00    +0.205 C 
ATOM     12  C   UNL     1     -32.471  27.764   5.711  0.00  0.00    +0.154 C 
ATOM     13  C   UNL     1     -34.108  26.097   5.951  0.00  0.00    +0.183 C 
ATOM     14  C   UNL     1     -31.730  28.499   3.527  0.00  0.00    +0.143 C 
ATOM     15  C   UNL     1     -31.585  28.656   6.316  0.00  0.00    +0.074 C 
ATOM     16  C   UNL     1     -30.845  29.390   4.134  0.00  0.00    +0.073 C 
ATOM     17  C   UNL     1     -30.772  29.468   5.525  0.00  0.00    +0.140 C 
BRANCH  14  18
ATOM     18  O   UNL     1     -31.759  28.462   2.165  0.00  0.00    -0.505 OA
ATOM     19  H   UNL     1     -31.507  29.217   1.670  0.00  0.00    +0.292 HD
ENDBRANCH  14  18
BRANCH  17  20
ATOM     20  O   UNL     1     -29.908  30.341   6.112  0.00  0.00    -0.505 OA
ATOM     21  H   UNL     1     -29.022  30.085   6.275  0.00  0.00    +0.292 HD
ENDBRANCH  17  20
ENDBRANCH   1   9
BRANCH   3  22
ATOM     22  O   UNL     1     -36.667  26.573   3.200  0.00  0.00    -0.506 OA
ATOM     23  H   UNL     1     -35.983  27.138   2.901  0.00  0.00    +0.292 HD
ENDBRANCH   3  22
BRANCH   4  24
ATOM     24  O   UNL     1     -37.883  21.961   2.826  0.00  0.00    -0.506 OA
ATOM     25  H   UNL     1     -38.163  21.945   1.932  0.00  0.00    +0.292 HD
ENDBRANCH   4  24
BRANCH   2  26
ATOM     26  C   UNL     1     -38.522  24.669   2.253  0.00  0.00    +0.058 C 
BRANCH  26  27
ATOM     27  C   UNL     1     -39.616  25.185   3.153  0.00  0.00    -0.030 C 
ATOM     28  C   UNL     1     -40.623  26.023   2.841  0.00  0.00    -0.048 C 
ATOM     29  C   UNL     1     -41.684  26.497   3.793  0.00  0.00    +0.026 C 
ATOM     30  C   UNL     1     -40.749  26.574   1.445  0.00  0.00    +0.026 C 
ENDBRANCH  26  27
ENDBRANCH   2  26
TORSDOF 7
ENDMDL
MODEL 6
REMARK VINA RESULT:      -6.3      2.775      7.255
REMARK  Name = 5281789
REMARK  7 active torsions:
REMARK  status: ('A' for Active; 'I' for Inactive)
REMARK    1  A    between atoms: C_1  and  C_9
REMARK    2  A    between atoms: C_2  and  C_26
REMARK    3  A    between atoms: C_3  and  O_22
REMARK    4  A    between atoms: C_4  and  O_24
REMARK    5  A    between atoms: C_14  and  O_18
REMARK    6  A    between atoms: C_17  and  O_20
REMARK    7  A    between atoms: C_26  and  C_27
REMARK                            x       y       z     vdW  Elec       q    Type
REMARK                         _______ _______ _______ _____ _____    ______ ____
ROOT
ATOM      1  C   UNL     1     -34.728  25.444   4.316  0.00  0.00    +0.040 C 
ATOM      2  C   UNL     1     -33.073  27.202   4.129  0.00  0.00    +0.049 C 
ATOM      3  C   UNL     1     -33.963  26.310   3.529  0.00  0.00    +0.133 C 
ATOM      4  C   UNL     1     -32.943  27.229   5.517  0.00  0.00    +0.133 C 
ATOM      5  C   UNL     1     -34.595  25.476   5.707  0.00  0.00    +0.006 C 
ATOM      6  C   UNL     1     -33.704  26.368   6.306  0.00  0.00    +0.037 C 
ENDROOT
BRANCH   1   9
ATOM      7  O   UNL     1     -36.079  22.249   2.878  0.00  0.00    -0.450 OA
ATOM      8  O   UNL     1     -37.518  25.998   3.603  0.00  0.00    -0.286 OA
ATOM      9  C   UNL     1     -35.674  24.494   3.710  0.00  0.00    +0.080 C 
ATOM     10  C   UNL     1     -37.937  23.811   2.838  0.00  0.00    +0.107 C 
ATOM     11  C   UNL     1     -37.082  24.870   3.407  0.00  0.00    +0.205 C 
ATOM     12  C   UNL     1     -37.388  22.551   2.601  0.00  0.00    +0.154 C 
ATOM     13  C   UNL     1     -35.299  23.237   3.427  0.00  0.00    +0.183 C 
ATOM     14  C   UNL     1     -39.277  24.062   2.536  0.00  0.00    +0.143 C 
ATOM     15  C   UNL     1     -38.177  21.535   2.060  0.00  0.00    +0.074 C 
ATOM     16  C   UNL     1     -40.065  23.045   1.995  0.00  0.00    +0.073 C 
ATOM     17  C   UNL     1     -39.516  21.784   1.758  0.00  0.00    +0.140 C 
BRANCH  14  18
ATOM     18  O   UNL     1     -39.864  25.273   2.748  0.00  0.00    -0.505 OA
ATOM     19  H   UNL     1     -40.790  25.328   2.884  0.00  0.00    +0.292 HD
ENDBRANCH  14  18
BRANCH  17  20
ATOM     20  O   UNL     1     -40.288  20.795   1.229  0.00  0.00    -0.505 OA
ATOM     21  H   UNL     1     -39.887  20.051   0.828  0.00  0.00    +0.292 HD
ENDBRANCH  17  20
ENDBRANCH   1   9
BRANCH   3  22
ATOM     22  O   UNL     1     -34.084  26.289   2.169  0.00  0.00    -0.506 OA
ATOM     23  H   UNL     1     -34.059  27.090   1.685  0.00  0.00    +0.292 HD
ENDBRANCH   3  22
BRANCH   4  24
ATOM     24  O   UNL     1     -32.078  28.093   6.120  0.00  0.00    -0.506 OA
ATOM     25  H   UNL     1     -31.212  28.202   5.781  0.00  0.00    +0.292 HD
ENDBRANCH   4  24
BRANCH   2  26
ATOM     26  C   UNL     1     -32.257  28.127   3.284  0.00  0.00    +0.058 C 
BRANCH  26  27
ATOM     27  C   UNL     1     -33.038  29.324   2.805  0.00  0.00    -0.030 C 
ATOM     28  C   UNL     1     -32.986  30.589   3.266  0.00  0.00    -0.048 C 
ATOM     29  C   UNL     1     -33.796  31.739   2.738  0.00  0.00    +0.026 C 
ATOM     30  C   UNL     1     -32.070  30.946   4.406  0.00  0.00    +0.026 C 
ENDBRANCH  26  27
ENDBRANCH   2  26
TORSDOF 7
ENDMDL
MODEL 7
REMARK VINA RESULT:      -6.3      1.861      8.269
REMARK  Name = 5281789
REMARK  7 active torsions:
REMARK  status: ('A' for Active; 'I' for Inactive)
REMARK    1  A    between atoms: C_1  and  C_9
REMARK    2  A    between atoms: C_2  and  C_26
REMARK    3  A    between atoms: C_3  and  O_22
REMARK    4  A    between atoms: C_4  and  O_24
REMARK    5  A    between atoms: C_14  and  O_18
REMARK    6  A    between atoms: C_17  and  O_20
REMARK    7  A    between atoms: C_26  and  C_27
REMARK                            x       y       z     vdW  Elec       q    Type
REMARK                         _______ _______ _______ _____ _____    ______ ____
ROOT
ATOM      1  C   UNL     1     -34.246  27.790   3.001  0.00  0.00    +0.040 C 
ATOM      2  C   UNL     1     -35.086  29.665   1.719  0.00  0.00    +0.049 C 
ATOM      3  C   UNL     1     -35.298  28.435   2.345  0.00  0.00    +0.133 C 
ATOM      4  C   UNL     1     -33.822  30.252   1.747  0.00  0.00    +0.133 C 
ATOM      5  C   UNL     1     -32.981  28.383   3.026  0.00  0.00    +0.006 C 
ATOM      6  C   UNL     1     -32.769  29.612   2.400  0.00  0.00    +0.037 C 
ENDROOT
BRANCH   1   9
ATOM      7  O   UNL     1     -34.482  25.242   5.750  0.00  0.00    -0.450 OA
ATOM      8  O   UNL     1     -34.919  25.253   1.693  0.00  0.00    -0.286 OA
ATOM      9  C   UNL     1     -34.441  26.493   3.669  0.00  0.00    +0.080 C 
ATOM     10  C   UNL     1     -35.010  24.039   3.709  0.00  0.00    +0.107 C 
ATOM     11  C   UNL     1     -34.805  25.264   2.912  0.00  0.00    +0.205 C 
ATOM     12  C   UNL     1     -34.836  24.092   5.091  0.00  0.00    +0.154 C 
ATOM     13  C   UNL     1     -34.314  26.381   5.000  0.00  0.00    +0.183 C 
ATOM     14  C   UNL     1     -35.371  22.839   3.091  0.00  0.00    +0.143 C 
ATOM     15  C   UNL     1     -35.021  22.945   5.864  0.00  0.00    +0.074 C 
ATOM     16  C   UNL     1     -35.556  21.693   3.866  0.00  0.00    +0.073 C 
ATOM     17  C   UNL     1     -35.382  21.746   5.249  0.00  0.00    +0.140 C 
BRANCH  14  18
ATOM     18  O   UNL     1     -35.556  22.732   1.745  0.00  0.00    -0.505 OA
ATOM     19  H   UNL     1     -34.815  22.664   1.175  0.00  0.00    +0.292 HD
ENDBRANCH  14  18
BRANCH  17  20
ATOM     20  O   UNL     1     -35.563  20.625   6.000  0.00  0.00    -0.505 OA
ATOM     21  H   UNL     1     -35.372  19.783   5.638  0.00  0.00    +0.292 HD
ENDBRANCH  17  20
ENDBRANCH   1   9
BRANCH   3  22
ATOM     22  O   UNL     1     -36.539  27.866   2.312  0.00  0.00    -0.506 OA
ATOM     23  H   UNL     1     -36.909  27.598   1.495  0.00  0.00    +0.292 HD
ENDBRANCH   3  22
BRANCH   4  24
ATOM     24  O   UNL     1     -33.596  31.452   1.141  0.00  0.00    -0.506 OA
ATOM     25  H   UNL     1     -33.738  31.545   0.219  0.00  0.00    +0.292 HD
ENDBRANCH   4  24
BRANCH   2  26
ATOM     26  C   UNL     1     -36.213  30.353   1.018  0.00  0.00    +0.058 C 
BRANCH  26  27
ATOM     27  C   UNL     1     -36.688  31.586   1.744  0.00  0.00    -0.030 C 
ATOM     28  C   UNL     1     -37.773  32.339   1.481  0.00  0.00    -0.048 C 
ATOM     29  C   UNL     1     -38.189  33.561   2.250  0.00  0.00    +0.026 C 
ATOM     30  C   UNL     1     -38.682  31.988   0.333  0.00  0.00    +0.026 C 
ENDBRANCH  26  27
ENDBRANCH   2  26
TORSDOF 7
ENDMDL
MODEL 8
REMARK VINA RESULT:      -6.2      3.169      5.854
REMARK  Name = 5281789
REMARK  7 active torsions:
REMARK  status: ('A' for Active; 'I' for Inactive)
REMARK    1  A    between atoms: C_1  and  C_9
REMARK    2  A    between atoms: C_2  and  C_26
REMARK    3  A    between atoms: C_3  and  O_22
REMARK    4  A    between atoms: C_4  and  O_24
REMARK    5  A    between atoms: C_14  and  O_18
REMARK    6  A    between atoms: C_17  and  O_20
REMARK    7  A    between atoms: C_26  and  C_27
REMARK                            x       y       z     vdW  Elec       q    Type
REMARK                         _______ _______ _______ _____ _____    ______ ____
ROOT
ATOM      1  C   UNL     1     -35.527  20.308   0.783  0.00  0.00    +0.040 C 
ATOM      2  C   UNL     1     -34.154  18.812  -0.536  0.00  0.00    +0.049 C 
ATOM      3  C   UNL     1     -34.301  19.995   0.189  0.00  0.00    +0.133 C 
ATOM      4  C   UNL     1     -35.233  17.939  -0.671  0.00  0.00    +0.133 C 
ATOM      5  C   UNL     1     -36.605  19.429   0.645  0.00  0.00    +0.006 C 
ATOM      6  C   UNL     1     -36.458  18.246  -0.080  0.00  0.00    +0.037 C 
ENDROOT
BRANCH   1   9
ATOM      7  O   UNL     1     -36.324  23.899   1.545  0.00  0.00    -0.450 OA
ATOM      8  O   UNL     1     -35.108  20.632   3.667  0.00  0.00    -0.286 OA
ATOM      9  C   UNL     1     -35.709  21.549   1.553  0.00  0.00    +0.080 C 
ATOM     10  C   UNL     1     -35.749  22.898   3.680  0.00  0.00    +0.107 C 
ATOM     11  C   UNL     1     -35.491  21.602   3.025  0.00  0.00    +0.205 C 
ATOM     12  C   UNL     1     -36.152  23.983   2.903  0.00  0.00    +0.154 C 
ATOM     13  C   UNL     1     -36.102  22.681   0.949  0.00  0.00    +0.183 C 
ATOM     14  C   UNL     1     -35.589  23.043   5.061  0.00  0.00    +0.143 C 
ATOM     15  C   UNL     1     -36.397  25.219   3.502  0.00  0.00    +0.074 C 
ATOM     16  C   UNL     1     -35.835  24.280   5.657  0.00  0.00    +0.073 C 
ATOM     17  C   UNL     1     -36.238  25.366   4.880  0.00  0.00    +0.140 C 
BRANCH  14  18
ATOM     18  O   UNL     1     -35.199  22.015   5.867  0.00  0.00    -0.505 OA
ATOM     19  H   UNL     1     -34.292  21.902   6.075  0.00  0.00    +0.292 HD
ENDBRANCH  14  18
BRANCH  17  20
ATOM     20  O   UNL     1     -36.476  26.571   5.467  0.00  0.00    -0.505 OA
ATOM     21  H   UNL     1     -37.342  26.796   5.740  0.00  0.00    +0.292 HD
ENDBRANCH  17  20
ENDBRANCH   1   9
BRANCH   3  22
ATOM     22  O   UNL     1     -33.239  20.846   0.315  0.00  0.00    -0.506 OA
ATOM     23  H   UNL     1     -33.226  21.477   1.007  0.00  0.00    +0.292 HD
ENDBRANCH   3  22
BRANCH   4  24
ATOM     24  O   UNL     1     -35.108  16.779  -1.376  0.00  0.00    -0.506 OA
ATOM     25  H   UNL     1     -35.185  15.954  -0.939  0.00  0.00    +0.292 HD
ENDBRANCH   4  24
BRANCH   2  26
ATOM     26  C   UNL     1     -32.841  18.480  -1.170  0.00  0.00    +0.058 C 
BRANCH  26  27
ATOM     27  C   UNL     1     -31.872  17.840  -0.209  0.00  0.00    -0.030 C 
ATOM     28  C   UNL     1     -30.659  18.287   0.168  0.00  0.00    -0.048 C 
ATOM     29  C   UNL     1     -29.741  17.595   1.136  0.00  0.00    +0.026 C 
ATOM     30  C   UNL     1     -30.113  19.572  -0.396  0.00  0.00    +0.026 C 
ENDBRANCH  26  27
ENDBRANCH   2  26
TORSDOF 7
ENDMDL
MODEL 9
REMARK VINA RESULT:      -6.2      2.658      7.480
REMARK  Name = 5281789
REMARK  7 active torsions:
REMARK  status: ('A' for Active; 'I' for Inactive)
REMARK    1  A    between atoms: C_1  and  C_9
REMARK    2  A    between atoms: C_2  and  C_26
REMARK    3  A    between atoms: C_3  and  O_22
REMARK    4  A    between atoms: C_4  and  O_24
REMARK    5  A    between atoms: C_14  and  O_18
REMARK    6  A    between atoms: C_17  and  O_20
REMARK    7  A    between atoms: C_26  and  C_27
REMARK                            x       y       z     vdW  Elec       q    Type
REMARK                         _______ _______ _______ _____ _____    ______ ____
ROOT
ATOM      1  C   UNL     1     -35.276  25.517   4.244  0.00  0.00    +0.040 C 
ATOM      2  C   UNL     1     -33.445  27.087   4.023  0.00  0.00    +0.049 C 
ATOM      3  C   UNL     1     -34.492  26.361   3.453  0.00  0.00    +0.133 C 
ATOM      4  C   UNL     1     -33.178  26.969   5.386  0.00  0.00    +0.133 C 
ATOM      5  C   UNL     1     -35.004  25.403   5.610  0.00  0.00    +0.006 C 
ATOM      6  C   UNL     1     -33.957  26.129   6.180  0.00  0.00    +0.037 C 
ENDROOT
BRANCH   1   9
ATOM      7  O   UNL     1     -38.763  24.603   3.193  0.00  0.00    -0.450 OA
ATOM      8  O   UNL     1     -35.067  22.892   2.954  0.00  0.00    -0.286 OA
ATOM      9  C   UNL     1     -36.386  24.741   3.669  0.00  0.00    +0.080 C 
ATOM     10  C   UNL     1     -37.362  22.769   2.443  0.00  0.00    +0.107 C 
ATOM     11  C   UNL     1     -36.169  23.422   3.014  0.00  0.00    +0.205 C 
ATOM     12  C   UNL     1     -38.602  23.395   2.564  0.00  0.00    +0.154 C 
ATOM     13  C   UNL     1     -37.642  25.212   3.701  0.00  0.00    +0.183 C 
ATOM     14  C   UNL     1     -37.257  21.537   1.792  0.00  0.00    +0.143 C 
ATOM     15  C   UNL     1     -39.744  22.793   2.035  0.00  0.00    +0.074 C 
ATOM     16  C   UNL     1     -38.401  20.936   1.264  0.00  0.00    +0.073 C 
ATOM     17  C   UNL     1     -39.641  21.563   1.385  0.00  0.00    +0.140 C 
BRANCH  14  18
ATOM     18  O   UNL     1     -36.071  20.882   1.645  0.00  0.00    -0.505 OA
ATOM     19  H   UNL     1     -35.952  20.282   0.935  0.00  0.00    +0.292 HD
ENDBRANCH  14  18
BRANCH  17  20
ATOM     20  O   UNL     1     -40.754  20.972   0.869  0.00  0.00    -0.505 OA
ATOM     21  H   UNL     1     -41.603  21.235   1.162  0.00  0.00    +0.292 HD
ENDBRANCH  17  20
ENDBRANCH   1   9
BRANCH   3  22
ATOM     22  O   UNL     1     -34.747  26.482   2.116  0.00  0.00    -0.506 OA
ATOM     23  H   UNL     1     -34.465  25.812   1.524  0.00  0.00    +0.292 HD
ENDBRANCH   3  22
BRANCH   4  24
ATOM     24  O   UNL     1     -32.159  27.670   5.960  0.00  0.00    -0.506 OA
ATOM     25  H   UNL     1     -31.323  27.711   5.539  0.00  0.00    +0.292 HD
ENDBRANCH   4  24
BRANCH   2  26
ATOM     26  C   UNL     1     -32.609  27.989   3.173  0.00  0.00    +0.058 C 
BRANCH  26  27
ATOM     27  C   UNL     1     -33.333  29.249   2.769  0.00  0.00    -0.030 C 
ATOM     28  C   UNL     1     -33.205  30.484   3.291  0.00  0.00    -0.048 C 
ATOM     29  C   UNL     1     -33.962  31.700   2.836  0.00  0.00    +0.026 C 
ATOM     30  C   UNL     1     -32.252  30.734   4.429  0.00  0.00    +0.026 C 
ENDBRANCH  26  27
ENDBRANCH   2  26
TORSDOF 7
ENDMDL
