MODEL 1
REMARK VINA RESULT:      -6.2      0.000      0.000
REMARK  Name = 5492196
REMARK  5 active torsions:
REMARK  status: ('A' for Active; 'I' for Inactive)
REMARK    1  A    between atoms: C_4  and  C_18
REMARK    2  A    between atoms: C_13  and  O_21
REMARK    3  A    between atoms: C_15  and  C_23
REMARK    4  A    between atoms: C_18  and  O_19
REMARK    5  A    between atoms: C_23  and  O_24
REMARK                            x       y       z     vdW  Elec       q    Type
REMARK                         _______ _______ _______ _____ _____    ______ ____
ROOT
ATOM      1  O   UNL     1     -34.526  24.576   5.227  0.00  0.00    -0.336 OA
ATOM      2  O   UNL     1     -35.130  20.462   3.334  0.00  0.00    -0.453 OA
ATOM      3  O   UNL     1     -35.672  24.087   1.562  0.00  0.00    -0.286 OA
ATOM      4  C   UNL     1     -35.617  24.049   4.459  0.00  0.00    +0.235 C 
ATOM      5  C   UNL     1     -35.494  23.813   5.961  0.00  0.00    +0.177 C 
ATOM      6  C   UNL     1     -35.473  22.861   3.581  0.00  0.00    +0.089 A 
ATOM      7  C   UNL     1     -35.268  22.419   6.376  0.00  0.00    +0.009 C 
ATOM      8  C   UNL     1     -35.272  21.617   4.075  0.00  0.00    +0.147 A 
ATOM      9  C   UNL     1     -35.173  21.397   5.509  0.00  0.00    +0.035 C 
ATOM     10  C   UNL     1     -35.536  22.996   2.098  0.00  0.00    +0.203 A 
ATOM     11  C   UNL     1     -35.391  21.764   1.307  0.00  0.00    +0.107 A 
ATOM     12  C   UNL     1     -35.195  20.555   1.969  0.00  0.00    +0.151 A 
ATOM     13  C   UNL     1     -35.447  21.801  -0.089  0.00  0.00    +0.139 C 
ATOM     14  C   UNL     1     -35.055  19.373   1.241  0.00  0.00    +0.036 C 
ATOM     15  C   UNL     1     -35.110  19.407  -0.153  0.00  0.00    +0.013 C 
ATOM     16  C   UNL     1     -35.307  20.618  -0.817  0.00  0.00    +0.035 C 
ENDROOT
BRANCH   4  18
ATOM     17  O   UNL     1     -36.299  26.205   3.703  0.00  0.00    -0.247 OA
ATOM     18  C   UNL     1     -36.594  25.064   4.031  0.00  0.00    +0.349 C 
BRANCH  18  19
ATOM     19  O   UNL     1     -37.849  24.531   4.060  0.00  0.00    -0.443 OA
ATOM     20  C   UNL     1     -38.748  25.015   3.058  0.00  0.00    +0.256 C 
ENDBRANCH  18  19
ENDBRANCH   4  18
BRANCH  13  21
ATOM     21  O   UNL     1     -35.640  22.953  -0.789  0.00  0.00    -0.505 OA
ATOM     22  H   UNL     1     -35.592  23.780  -0.352  0.00  0.00    +0.292 HD
ENDBRANCH  13  21
BRANCH  15  23
ATOM     23  C   UNL     1     -34.961  18.145  -0.934  0.00  0.00    +0.164 C 
BRANCH  23  24
ATOM     24  O   UNL     1     -35.051  17.064  -0.014  0.00  0.00    -0.377 OA
ATOM     25  H   UNL     1     -35.020  17.408   0.892  0.00  0.00    +0.211 HD
ENDBRANCH  23  24
ENDBRANCH  15  23
TORSDOF 5
ENDMDL
MODEL 2
REMARK VINA RESULT:      -6.1      2.458      6.005
REMARK  Name = 5492196
REMARK  5 active torsions:
REMARK  status: ('A' for Active; 'I' for Inactive)
REMARK    1  A    between atoms: C_4  and  C_18
REMARK    2  A    between atoms: C_13  and  O_21
REMARK    3  A    between atoms: C_15  and  C_23
REMARK    4  A    between atoms: C_18  and  O_19
REMARK    5  A    between atoms: C_23  and  O_24
REMARK                            x       y       z     vdW  Elec       q    Type
REMARK                         _______ _______ _______ _____ _____    ______ ____
ROOT
ATOM      1  O   UNL     1     -35.864  22.206   5.473  0.00  0.00    -0.336 OA
ATOM      2  O   UNL     1     -38.120  25.742   3.661  0.00  0.00    -0.453 OA
ATOM      3  O   UNL     1     -38.185  21.873   2.394  0.00  0.00    -0.286 OA
ATOM      4  C   UNL     1     -35.982  22.644   4.112  0.00  0.00    +0.235 C 
ATOM      5  C   UNL     1     -34.954  23.238   5.068  0.00  0.00    +0.177 C 
ATOM      6  C   UNL     1     -37.072  23.542   3.657  0.00  0.00    +0.089 A 
ATOM      7  C   UNL     1     -35.145  24.656   5.416  0.00  0.00    +0.009 C 
ATOM      8  C   UNL     1     -37.147  24.839   4.037  0.00  0.00    +0.147 A 
ATOM      9  C   UNL     1     -36.152  25.404   4.935  0.00  0.00    +0.035 C 
ATOM     10  C   UNL     1     -38.148  23.042   2.755  0.00  0.00    +0.203 A 
ATOM     11  C   UNL     1     -39.183  24.005   2.347  0.00  0.00    +0.107 A 
ATOM     12  C   UNL     1     -39.115  25.311   2.824  0.00  0.00    +0.151 A 
ATOM     13  C   UNL     1     -40.222  23.619   1.496  0.00  0.00    +0.139 C 
ATOM     14  C   UNL     1     -40.084  26.243   2.452  0.00  0.00    +0.036 C 
ATOM     15  C   UNL     1     -41.123  25.862   1.603  0.00  0.00    +0.013 C 
ATOM     16  C   UNL     1     -41.192  24.553   1.125  0.00  0.00    +0.035 C 
ENDROOT
BRANCH   4  18
ATOM     17  O   UNL     1     -35.536  20.460   3.264  0.00  0.00    -0.247 OA
ATOM     18  C   UNL     1     -35.479  21.674   3.124  0.00  0.00    +0.349 C 
BRANCH  18  19
ATOM     19  O   UNL     1     -34.952  22.341   2.058  0.00  0.00    -0.443 OA
ATOM     20  C   UNL     1     -34.877  21.594   0.840  0.00  0.00    +0.256 C 
ENDBRANCH  18  19
ENDBRANCH   4  18
BRANCH  13  21
ATOM     21  O   UNL     1     -40.337  22.358   0.998  0.00  0.00    -0.505 OA
ATOM     22  H   UNL     1     -40.494  21.638   1.576  0.00  0.00    +0.292 HD
ENDBRANCH  13  21
BRANCH  15  23
ATOM     23  C   UNL     1     -42.161  26.855   1.204  0.00  0.00    +0.164 C 
BRANCH  23  24
ATOM     24  O   UNL     1     -41.898  28.054   1.924  0.00  0.00    -0.377 OA
ATOM     25  H   UNL     1     -40.960  28.281   1.843  0.00  0.00    +0.211 HD
ENDBRANCH  23  24
ENDBRANCH  15  23
TORSDOF 5
ENDMDL
MODEL 3
REMARK VINA RESULT:      -6.0      4.417      6.173
REMARK  Name = 5492196
REMARK  5 active torsions:
REMARK  status: ('A' for Active; 'I' for Inactive)
REMARK    1  A    between atoms: C_4  and  C_18
REMARK    2  A    between atoms: C_13  and  O_21
REMARK    3  A    between atoms: C_15  and  C_23
REMARK    4  A    between atoms: C_18  and  O_19
REMARK    5  A    between atoms: C_23  and  O_24
REMARK                            x       y       z     vdW  Elec       q    Type
REMARK                         _______ _______ _______ _____ _____    ______ ____
ROOT
ATOM      1  O   UNL     1     -30.887  29.641   4.183  0.00  0.00    -0.336 OA
ATOM      2  O   UNL     1     -33.365  26.171   5.826  0.00  0.00    -0.453 OA
ATOM      3  O   UNL     1     -33.589  27.807   2.105  0.00  0.00    -0.286 OA
ATOM      4  C   UNL     1     -32.302  29.402   4.153  0.00  0.00    +0.235 C 
ATOM      5  C   UNL     1     -31.613  30.041   5.354  0.00  0.00    +0.177 C 
ATOM      6  C   UNL     1     -32.887  28.054   4.355  0.00  0.00    +0.089 A 
ATOM      7  C   UNL     1     -31.626  29.252   6.597  0.00  0.00    +0.009 C 
ATOM      8  C   UNL     1     -32.847  27.420   5.551  0.00  0.00    +0.147 A 
ATOM      9  C   UNL     1     -32.203  28.042   6.696  0.00  0.00    +0.035 C 
ATOM     10  C   UNL     1     -33.544  27.330   3.231  0.00  0.00    +0.203 A 
ATOM     11  C   UNL     1     -34.104  26.001   3.524  0.00  0.00    +0.107 A 
ATOM     12  C   UNL     1     -33.985  25.488   4.813  0.00  0.00    +0.151 A 
ATOM     13  C   UNL     1     -34.744  25.260   2.528  0.00  0.00    +0.139 C 
ATOM     14  C   UNL     1     -34.506  24.231   5.117  0.00  0.00    +0.036 C 
ATOM     15  C   UNL     1     -35.147  23.488   4.125  0.00  0.00    +0.013 C 
ATOM     16  C   UNL     1     -35.266  24.001   2.833  0.00  0.00    +0.035 C 
ENDROOT
BRANCH   4  18
ATOM     17  O   UNL     1     -32.596  30.762   2.216  0.00  0.00    -0.247 OA
ATOM     18  C   UNL     1     -33.044  30.310   3.262  0.00  0.00    +0.349 C 
BRANCH  18  19
ATOM     19  O   UNL     1     -34.279  30.555   3.785  0.00  0.00    -0.443 OA
ATOM     20  C   UNL     1     -35.303  30.853   2.832  0.00  0.00    +0.256 C 
ENDBRANCH  18  19
ENDBRANCH   4  18
BRANCH  13  21
ATOM     21  O   UNL     1     -34.892  25.713   1.252  0.00  0.00    -0.505 OA
ATOM     22  H   UNL     1     -35.480  26.419   1.071  0.00  0.00    +0.292 HD
ENDBRANCH  13  21
BRANCH  15  23
ATOM     23  C   UNL     1     -35.706  22.143   4.446  0.00  0.00    +0.164 C 
BRANCH  23  24
ATOM     24  O   UNL     1     -36.049  22.146   5.826  0.00  0.00    -0.377 OA
ATOM     25  H   UNL     1     -37.006  22.030   5.923  0.00  0.00    +0.211 HD
ENDBRANCH  23  24
ENDBRANCH  15  23
TORSDOF 5
ENDMDL
MODEL 4
REMARK VINA RESULT:      -5.9      1.482      6.697
REMARK  Name = 5492196
REMARK  5 active torsions:
REMARK  status: ('A' for Active; 'I' for Inactive)
REMARK    1  A    between atoms: C_4  and  C_18
REMARK    2  A    between atoms: C_13  and  O_21
REMARK    3  A    between atoms: C_15  and  C_23
REMARK    4  A    between atoms: C_18  and  O_19
REMARK    5  A    between atoms: C_23  and  O_24
REMARK                            x       y       z     vdW  Elec       q    Type
REMARK                         _______ _______ _______ _____ _____    ______ ____
ROOT
ATOM      1  O   UNL     1     -33.839  20.278  -0.836  0.00  0.00    -0.336 OA
ATOM      2  O   UNL     1     -35.434  23.884   1.474  0.00  0.00    -0.453 OA
ATOM      3  O   UNL     1     -35.037  20.068   2.839  0.00  0.00    -0.286 OA
ATOM      4  C   UNL     1     -35.020  20.431  -0.036  0.00  0.00    +0.235 C 
ATOM      5  C   UNL     1     -34.974  20.850  -1.501  0.00  0.00    +0.177 C 
ATOM      6  C   UNL     1     -35.169  21.516   0.966  0.00  0.00    +0.089 A 
ATOM      7  C   UNL     1     -35.107  22.293  -1.762  0.00  0.00    +0.009 C 
ATOM      8  C   UNL     1     -35.290  22.816   0.612  0.00  0.00    +0.147 A 
ATOM      9  C   UNL     1     -35.263  23.206  -0.789  0.00  0.00    +0.035 C 
ATOM     10  C   UNL     1     -35.183  21.211   2.425  0.00  0.00    +0.203 A 
ATOM     11  C   UNL     1     -35.343  22.347   3.346  0.00  0.00    +0.107 A 
ATOM     12  C   UNL     1     -35.461  23.631   2.820  0.00  0.00    +0.151 A 
ATOM     13  C   UNL     1     -35.375  22.147   4.729  0.00  0.00    +0.139 C 
ATOM     14  C   UNL     1     -35.614  24.724   3.672  0.00  0.00    +0.036 C 
ATOM     15  C   UNL     1     -35.647  24.528   5.053  0.00  0.00    +0.013 C 
ATOM     16  C   UNL     1     -35.528  23.243   5.580  0.00  0.00    +0.035 C 
ENDROOT
BRANCH   4  18
ATOM     17  O   UNL     1     -36.916  19.064   0.436  0.00  0.00    -0.247 OA
ATOM     18  C   UNL     1     -35.709  19.164   0.264  0.00  0.00    +0.349 C 
BRANCH  18  19
ATOM     19  O   UNL     1     -34.798  18.151   0.318  0.00  0.00    -0.443 OA
ATOM     20  C   UNL     1     -35.137  16.978  -0.427  0.00  0.00    +0.256 C 
ENDBRANCH  18  19
ENDBRANCH   4  18
BRANCH  13  21
ATOM     21  O   UNL     1     -35.268  20.914   5.297  0.00  0.00    -0.505 OA
ATOM     22  H   UNL     1     -34.712  20.788   6.040  0.00  0.00    +0.292 HD
ENDBRANCH  13  21
BRANCH  15  23
ATOM     23  C   UNL     1     -35.809  25.696   5.967  0.00  0.00    +0.164 C 
BRANCH  23  24
ATOM     24  O   UNL     1     -36.563  26.678   5.267  0.00  0.00    -0.377 OA
ATOM     25  H   UNL     1     -36.783  27.406   5.869  0.00  0.00    +0.211 HD
ENDBRANCH  23  24
ENDBRANCH  15  23
TORSDOF 5
ENDMDL
MODEL 5
REMARK VINA RESULT:      -5.9      3.166      5.865
REMARK  Name = 5492196
REMARK  5 active torsions:
REMARK  status: ('A' for Active; 'I' for Inactive)
REMARK    1  A    between atoms: C_4  and  C_18
REMARK    2  A    between atoms: C_13  and  O_21
REMARK    3  A    between atoms: C_15  and  C_23
REMARK    4  A    between atoms: C_18  and  O_19
REMARK    5  A    between atoms: C_23  and  O_24
REMARK                            x       y       z     vdW  Elec       q    Type
REMARK                         _______ _______ _______ _____ _____    ______ ____
ROOT
ATOM      1  O   UNL     1     -41.342  25.131   0.681  0.00  0.00    -0.336 OA
ATOM      2  O   UNL     1     -37.837  22.556   2.080  0.00  0.00    -0.453 OA
ATOM      3  O   UNL     1     -38.543  26.458   3.003  0.00  0.00    -0.286 OA
ATOM      4  C   UNL     1     -39.931  25.394   0.692  0.00  0.00    +0.235 C 
ATOM      5  C   UNL     1     -40.603  24.622  -0.439  0.00  0.00    +0.177 C 
ATOM      6  C   UNL     1     -38.986  24.637   1.551  0.00  0.00    +0.089 A 
ATOM      7  C   UNL     1     -40.218  23.207  -0.568  0.00  0.00    +0.009 C 
ATOM      8  C   UNL     1     -38.700  23.332   1.335  0.00  0.00    +0.147 A 
ATOM      9  C   UNL     1     -39.331  22.607   0.244  0.00  0.00    +0.035 C 
ATOM     10  C   UNL     1     -38.312  25.293   2.707  0.00  0.00    +0.203 A 
ATOM     11  C   UNL     1     -37.385  24.469   3.498  0.00  0.00    +0.107 A 
ATOM     12  C   UNL     1     -37.195  23.136   3.142  0.00  0.00    +0.151 A 
ATOM     13  C   UNL     1     -36.706  25.009   4.593  0.00  0.00    +0.139 C 
ATOM     14  C   UNL     1     -36.322  22.334   3.876  0.00  0.00    +0.036 C 
ATOM     15  C   UNL     1     -35.641  22.870   4.970  0.00  0.00    +0.013 C 
ATOM     16  C   UNL     1     -35.832  24.204   5.327  0.00  0.00    +0.035 C 
ENDROOT
BRANCH   4  18
ATOM     17  O   UNL     1     -40.268  27.754   0.741  0.00  0.00    -0.247 OA
ATOM     18  C   UNL     1     -39.581  26.797   0.413  0.00  0.00    +0.349 C 
BRANCH  18  19
ATOM     19  O   UNL     1     -38.393  26.846  -0.255  0.00  0.00    -0.443 OA
ATOM     20  C   UNL     1     -37.629  28.041  -0.064  0.00  0.00    +0.256 C 
ENDBRANCH  18  19
ENDBRANCH   4  18
BRANCH  13  21
ATOM     21  O   UNL     1     -36.851  26.305   4.984  0.00  0.00    -0.505 OA
ATOM     22  H   UNL     1     -36.357  26.980   4.564  0.00  0.00    +0.292 HD
ENDBRANCH  13  21
BRANCH  15  23
ATOM     23  C   UNL     1     -34.707  22.015   5.757  0.00  0.00    +0.164 C 
BRANCH  23  24
ATOM     24  O   UNL     1     -35.231  20.692   5.744  0.00  0.00    -0.377 OA
ATOM     25  H   UNL     1     -35.162  20.308   6.631  0.00  0.00    +0.211 HD
ENDBRANCH  23  24
ENDBRANCH  15  23
TORSDOF 5
ENDMDL
MODEL 6
REMARK VINA RESULT:      -5.7      1.665      6.544
REMARK  Name = 5492196
REMARK  5 active torsions:
REMARK  status: ('A' for Active; 'I' for Inactive)
REMARK    1  A    between atoms: C_4  and  C_18
REMARK    2  A    between atoms: C_13  and  O_21
REMARK    3  A    between atoms: C_15  and  C_23
REMARK    4  A    between atoms: C_18  and  O_19
REMARK    5  A    between atoms: C_23  and  O_24
REMARK                            x       y       z     vdW  Elec       q    Type
REMARK                         _______ _______ _______ _____ _____    ______ ____
ROOT
ATOM      1  O   UNL     1     -34.309  20.262  -1.122  0.00  0.00    -0.336 OA
ATOM      2  O   UNL     1     -35.453  23.985   1.268  0.00  0.00    -0.453 OA
ATOM      3  O   UNL     1     -35.393  20.135   2.592  0.00  0.00    -0.286 OA
ATOM      4  C   UNL     1     -35.441  20.524  -0.279  0.00  0.00    +0.235 C 
ATOM      5  C   UNL     1     -35.404  20.952  -1.742  0.00  0.00    +0.177 C 
ATOM      6  C   UNL     1     -35.445  21.607   0.735  0.00  0.00    +0.089 A 
ATOM      7  C   UNL     1     -35.401  22.403  -1.988  0.00  0.00    +0.009 C 
ATOM      8  C   UNL     1     -35.447  22.917   0.394  0.00  0.00    +0.147 A 
ATOM      9  C   UNL     1     -35.430  23.317  -1.004  0.00  0.00    +0.035 C 
ATOM     10  C   UNL     1     -35.438  21.290   2.191  0.00  0.00    +0.203 A 
ATOM     11  C   UNL     1     -35.452  22.427   3.125  0.00  0.00    +0.107 A 
ATOM     12  C   UNL     1     -35.458  23.722   2.613  0.00  0.00    +0.151 A 
ATOM     13  C   UNL     1     -35.455  22.217   4.507  0.00  0.00    +0.139 C 
ATOM     14  C   UNL     1     -35.470  24.816   3.477  0.00  0.00    +0.036 C 
ATOM     15  C   UNL     1     -35.475  24.610   4.857  0.00  0.00    +0.013 C 
ATOM     16  C   UNL     1     -35.467  23.313   5.371  0.00  0.00    +0.035 C 
ENDROOT
BRANCH   4  18
ATOM     17  O   UNL     1     -35.787  18.195   0.099  0.00  0.00    -0.247 OA
ATOM     18  C   UNL     1     -36.242  19.330   0.037  0.00  0.00    +0.349 C 
BRANCH  18  19
ATOM     19  O   UNL     1     -37.541  19.692   0.242  0.00  0.00    -0.443 OA
ATOM     20  C   UNL     1     -38.487  19.135  -0.675  0.00  0.00    +0.256 C 
ENDBRANCH  18  19
ENDBRANCH   4  18
BRANCH  13  21
ATOM     21  O   UNL     1     -35.452  20.974   5.063  0.00  0.00    -0.505 OA
ATOM     22  H   UNL     1     -36.068  20.760   5.735  0.00  0.00    +0.292 HD
ENDBRANCH  13  21
BRANCH  15  23
ATOM     23  C   UNL     1     -35.487  25.778   5.785  0.00  0.00    +0.164 C 
BRANCH  23  24
ATOM     24  O   UNL     1     -36.573  26.612   5.399  0.00  0.00    -0.377 OA
ATOM     25  H   UNL     1     -37.410  26.160   5.584  0.00  0.00    +0.211 HD
ENDBRANCH  23  24
ENDBRANCH  15  23
TORSDOF 5
ENDMDL
MODEL 7
REMARK VINA RESULT:      -5.7      3.564      5.669
REMARK  Name = 5492196
REMARK  5 active torsions:
REMARK  status: ('A' for Active; 'I' for Inactive)
REMARK    1  A    between atoms: C_4  and  C_18
REMARK    2  A    between atoms: C_13  and  O_21
REMARK    3  A    between atoms: C_15  and  C_23
REMARK    4  A    between atoms: C_18  and  O_19
REMARK    5  A    between atoms: C_23  and  O_24
REMARK                            x       y       z     vdW  Elec       q    Type
REMARK                         _______ _______ _______ _____ _____    ______ ____
ROOT
ATOM      1  O   UNL     1     -33.961  29.479   3.695  0.00  0.00    -0.336 OA
ATOM      2  O   UNL     1     -34.722  25.590   1.421  0.00  0.00    -0.453 OA
ATOM      3  O   UNL     1     -33.898  25.998   5.387  0.00  0.00    -0.286 OA
ATOM      4  C   UNL     1     -33.232  28.244   3.681  0.00  0.00    +0.235 C 
ATOM      5  C   UNL     1     -33.021  29.322   2.623  0.00  0.00    +0.177 C 
ATOM      6  C   UNL     1     -33.836  26.967   3.225  0.00  0.00    +0.089 A 
ATOM      7  C   UNL     1     -33.421  28.964   1.252  0.00  0.00    +0.009 C 
ATOM      8  C   UNL     1     -34.161  26.743   1.930  0.00  0.00    +0.147 A 
ATOM      9  C   UNL     1     -33.941  27.769   0.924  0.00  0.00    +0.035 C 
ATOM     10  C   UNL     1     -34.120  25.868   4.191  0.00  0.00    +0.203 A 
ATOM     11  C   UNL     1     -34.711  24.635   3.649  0.00  0.00    +0.107 A 
ATOM     12  C   UNL     1     -34.983  24.560   2.285  0.00  0.00    +0.151 A 
ATOM     13  C   UNL     1     -35.001  23.554   4.485  0.00  0.00    +0.139 C 
ATOM     14  C   UNL     1     -35.545  23.402   1.747  0.00  0.00    +0.036 C 
ATOM     15  C   UNL     1     -35.834  22.320   2.579  0.00  0.00    +0.013 C 
ATOM     16  C   UNL     1     -35.563  22.395   3.945  0.00  0.00    +0.035 C 
ENDROOT
BRANCH   4  18
ATOM     17  O   UNL     1     -31.148  27.537   4.601  0.00  0.00    -0.247 OA
ATOM     18  C   UNL     1     -32.204  28.142   4.730  0.00  0.00    +0.349 C 
BRANCH  18  19
ATOM     19  O   UNL     1     -32.618  28.817   5.841  0.00  0.00    -0.443 OA
ATOM     20  C   UNL     1     -31.575  29.282   6.703  0.00  0.00    +0.256 C 
ENDBRANCH  18  19
ENDBRANCH   4  18
BRANCH  13  21
ATOM     21  O   UNL     1     -34.753  23.571   5.824  0.00  0.00    -0.505 OA
ATOM     22  H   UNL     1     -33.874  23.503   6.139  0.00  0.00    +0.292 HD
ENDBRANCH  13  21
BRANCH  15  23
ATOM     23  C   UNL     1     -36.434  21.080   2.007  0.00  0.00    +0.164 C 
BRANCH  23  24
ATOM     24  O   UNL     1     -36.256  20.043   2.964  0.00  0.00    -0.377 OA
ATOM     25  H   UNL     1     -35.457  19.538   2.748  0.00  0.00    +0.211 HD
ENDBRANCH  23  24
ENDBRANCH  15  23
TORSDOF 5
ENDMDL
MODEL 8
REMARK VINA RESULT:      -5.7      3.410      6.899
REMARK  Name = 5492196
REMARK  5 active torsions:
REMARK  status: ('A' for Active; 'I' for Inactive)
REMARK    1  A    between atoms: C_4  and  C_18
REMARK    2  A    between atoms: C_13  and  O_21
REMARK    3  A    between atoms: C_15  and  C_23
REMARK    4  A    between atoms: C_18  and  O_19
REMARK    5  A    between atoms: C_23  and  O_24
REMARK                            x       y       z     vdW  Elec       q    Type
REMARK                         _______ _______ _______ _____ _____    ______ ____
ROOT
ATOM      1  O   UNL     1     -37.115  23.469   3.673  0.00  0.00    -0.336 OA
ATOM      2  O   UNL     1     -33.710  25.431   6.004  0.00  0.00    -0.453 OA
ATOM      3  O   UNL     1     -34.976  26.364   2.249  0.00  0.00    -0.286 OA
ATOM      4  C   UNL     1     -35.768  23.776   3.285  0.00  0.00    +0.235 C 
ATOM      5  C   UNL     1     -36.123  22.500   4.041  0.00  0.00    +0.177 C 
ATOM      6  C   UNL     1     -34.939  24.773   4.006  0.00  0.00    +0.089 A 
ATOM      7  C   UNL     1     -35.578  22.389   5.404  0.00  0.00    +0.009 C 
ATOM      8  C   UNL     1     -34.485  24.563   5.264  0.00  0.00    +0.147 A 
ATOM      9  C   UNL     1     -34.812  23.336   5.972  0.00  0.00    +0.035 C 
ATOM     10  C   UNL     1     -34.575  26.069   3.367  0.00  0.00    +0.203 A 
ATOM     11  C   UNL     1     -33.743  26.994   4.152  0.00  0.00    +0.107 A 
ATOM     12  C   UNL     1     -33.351  26.625   5.436  0.00  0.00    +0.151 A 
ATOM     13  C   UNL     1     -33.349  28.226   3.623  0.00  0.00    +0.139 C 
ATOM     14  C   UNL     1     -32.562  27.484   6.201  0.00  0.00    +0.036 C 
ATOM     15  C   UNL     1     -32.168  28.715   5.676  0.00  0.00    +0.013 C 
ATOM     16  C   UNL     1     -32.560  29.085   4.390  0.00  0.00    +0.035 C 
ENDROOT
BRANCH   4  18
ATOM     17  O   UNL     1     -34.441  23.293   1.364  0.00  0.00    -0.247 OA
ATOM     18  C   UNL     1     -35.514  23.636   1.841  0.00  0.00    +0.349 C 
BRANCH  18  19
ATOM     19  O   UNL     1     -36.647  23.944   1.147  0.00  0.00    -0.443 OA
ATOM     20  C   UNL     1     -37.024  23.004   0.137  0.00  0.00    +0.256 C 
ENDBRANCH  18  19
ENDBRANCH   4  18
BRANCH  13  21
ATOM     21  O   UNL     1     -33.700  28.637   2.373  0.00  0.00    -0.505 OA
ATOM     22  H   UNL     1     -34.517  29.073   2.235  0.00  0.00    +0.292 HD
ENDBRANCH  13  21
BRANCH  15  23
ATOM     23  C   UNL     1     -31.324  29.637   6.491  0.00  0.00    +0.164 C 
BRANCH  23  24
ATOM     24  O   UNL     1     -31.603  29.365   7.859  0.00  0.00    -0.377 OA
ATOM     25  H   UNL     1     -30.783  29.120   8.314  0.00  0.00    +0.211 HD
ENDBRANCH  23  24
ENDBRANCH  15  23
TORSDOF 5
ENDMDL
MODEL 9
REMARK VINA RESULT:      -5.7      3.535      6.186
REMARK  Name = 5492196
REMARK  5 active torsions:
REMARK  status: ('A' for Active; 'I' for Inactive)
REMARK    1  A    between atoms: C_4  and  C_18
REMARK    2  A    between atoms: C_13  and  O_21
REMARK    3  A    between atoms: C_15  and  C_23
REMARK    4  A    between atoms: C_18  and  O_19
REMARK    5  A    between atoms: C_23  and  O_24
REMARK                            x       y       z     vdW  Elec       q    Type
REMARK                         _______ _______ _______ _____ _____    ______ ____
ROOT
ATOM      1  O   UNL     1     -37.451  28.828   0.979  0.00  0.00    -0.336 OA
ATOM      2  O   UNL     1     -36.810  24.523   2.369  0.00  0.00    -0.453 OA
ATOM      3  O   UNL     1     -34.906  27.855   3.729  0.00  0.00    -0.286 OA
ATOM      4  C   UNL     1     -36.245  28.074   1.168  0.00  0.00    +0.235 C 
ATOM      5  C   UNL     1     -37.060  27.990  -0.118  0.00  0.00    +0.177 C 
ATOM      6  C   UNL     1     -36.193  26.852   2.009  0.00  0.00    +0.089 A 
ATOM      7  C   UNL     1     -37.691  26.688  -0.395  0.00  0.00    +0.009 C 
ATOM      8  C   UNL     1     -36.809  25.701   1.651  0.00  0.00    +0.147 A 
ATOM      9  C   UNL     1     -37.570  25.623   0.415  0.00  0.00    +0.035 C 
ATOM     10  C   UNL     1     -35.457  26.847   3.304  0.00  0.00    +0.203 A 
ATOM     11  C   UNL     1     -35.451  25.590   4.068  0.00  0.00    +0.107 A 
ATOM     12  C   UNL     1     -36.132  24.487   3.558  0.00  0.00    +0.151 A 
ATOM     13  C   UNL     1     -34.776  25.498   5.289  0.00  0.00    +0.139 C 
ATOM     14  C   UNL     1     -36.142  23.284   4.263  0.00  0.00    +0.036 C 
ATOM     15  C   UNL     1     -35.469  23.189   5.482  0.00  0.00    +0.013 C 
ATOM     16  C   UNL     1     -34.788  24.293   5.994  0.00  0.00    +0.035 C 
ENDROOT
BRANCH   4  18
ATOM     17  O   UNL     1     -33.943  28.476   0.695  0.00  0.00    -0.247 OA
ATOM     18  C   UNL     1     -35.017  28.884   1.116  0.00  0.00    +0.349 C 
BRANCH  18  19
ATOM     19  O   UNL     1     -35.273  30.132   1.603  0.00  0.00    -0.443 OA
ATOM     20  C   UNL     1     -34.127  30.970   1.780  0.00  0.00    +0.256 C 
ENDBRANCH  18  19
ENDBRANCH   4  18
BRANCH  13  21
ATOM     21  O   UNL     1     -34.093  26.542   5.833  0.00  0.00    -0.505 OA
ATOM     22  H   UNL     1     -33.181  26.455   6.028  0.00  0.00    +0.292 HD
ENDBRANCH  13  21
BRANCH  15  23
ATOM     23  C   UNL     1     -35.478  21.903   6.239  0.00  0.00    +0.164 C 
BRANCH  23  24
ATOM     24  O   UNL     1     -35.131  20.871   5.323  0.00  0.00    -0.377 OA
ATOM     25  H   UNL     1     -34.177  20.894   5.156  0.00  0.00    +0.211 HD
ENDBRANCH  23  24
ENDBRANCH  15  23
TORSDOF 5
ENDMDL
