MODEL 1
REMARK VINA RESULT:      -6.7      0.000      0.000
REMARK  Name = 196523
REMARK  6 active torsions:
REMARK  status: ('A' for Active; 'I' for Inactive)
REMARK    1  A    between atoms: C_3  and  O_22
REMARK    2  A    between atoms: C_4  and  C_29
REMARK    3  A    between atoms: C_6  and  O_24
REMARK    4  A    between atoms: C_11  and  O_26
REMARK    5  A    between atoms: C_18  and  O_32
REMARK    6  A    between atoms: C_29  and  O_30
REMARK                            x       y       z     vdW  Elec       q    Type
REMARK                         _______ _______ _______ _____ _____    ______ ____
ROOT
ATOM      1  O   UNL     1     -34.930  24.148   5.742  0.00  0.00    -0.286 OA
ATOM      2  O   UNL     1     -34.681  26.252   0.837  0.00  0.00    -0.287 OA
ATOM      3  C   UNL     1     -31.086  30.053   4.809  0.00  0.00    +0.105 C 
ATOM      4  C   UNL     1     -32.061  29.628   3.686  0.00  0.00    +0.146 C 
ATOM      5  C   UNL     1     -31.725  29.851   6.193  0.00  0.00    +0.062 C 
ATOM      6  C   UNL     1     -32.148  28.397   6.432  0.00  0.00    +0.138 C 
ATOM      7  C   UNL     1     -32.766  28.312   3.961  0.00  0.00    -0.008 C 
ATOM      8  C   UNL     1     -32.835  27.759   5.253  0.00  0.00    +0.035 C 
ATOM      9  C   UNL     1     -30.601  31.501   4.650  0.00  0.00    +0.030 C 
ATOM     10  C   UNL     1     -33.397  27.645   2.894  0.00  0.00    -0.000 C 
ATOM     11  C   UNL     1     -33.529  26.552   5.449  0.00  0.00    +0.135 C 
ATOM     12  C   UNL     1     -34.086  26.445   3.102  0.00  0.00    +0.045 C 
ATOM     13  C   UNL     1     -34.152  25.898   4.380  0.00  0.00    +0.076 C 
ATOM     14  C   UNL     1     -34.873  24.631   4.617  0.00  0.00    +0.202 C 
ATOM     15  C   UNL     1     -34.737  25.769   1.960  0.00  0.00    +0.196 C 
ATOM     16  C   UNL     1     -35.524  23.953   3.478  0.00  0.00    +0.076 C 
ATOM     17  C   UNL     1     -35.458  24.502   2.195  0.00  0.00    +0.045 C 
ATOM     18  C   UNL     1     -36.210  22.750   3.687  0.00  0.00    +0.137 C 
ATOM     19  C   UNL     1     -36.078  23.849   1.123  0.00  0.00    +0.003 C 
ATOM     20  C   UNL     1     -36.826  22.102   2.616  0.00  0.00    +0.037 C 
ATOM     21  C   UNL     1     -36.760  22.651   1.337  0.00  0.00    +0.003 C 
ENDROOT
BRANCH   3  22
ATOM     22  O   UNL     1     -29.919  29.225   4.692  0.00  0.00    -0.386 OA
ATOM     23  H   UNL     1     -29.621  29.216   3.769  0.00  0.00    +0.210 HD
ENDBRANCH   3  22
BRANCH   6  24
ATOM     24  O   UNL     1     -31.003  27.606   6.750  0.00  0.00    -0.380 OA
ATOM     25  H   UNL     1     -31.252  26.917   7.387  0.00  0.00    +0.211 HD
ENDBRANCH   6  24
BRANCH  11  26
ATOM     26  O   UNL     1     -33.569  26.033   6.715  0.00  0.00    -0.506 OA
ATOM     27  H   UNL     1     -33.087  25.256   6.918  0.00  0.00    +0.292 HD
ENDBRANCH  11  26
BRANCH   4  29
ATOM     28  O   UNL     1     -34.061  30.905   4.125  0.00  0.00    -0.250 OA
ATOM     29  C   UNL     1     -33.093  30.689   3.410  0.00  0.00    +0.323 C 
BRANCH  29  30
ATOM     30  O   UNL     1     -32.772  31.348   2.260  0.00  0.00    -0.444 OA
ATOM     31  C   UNL     1     -33.205  32.710   2.191  0.00  0.00    +0.256 C 
ENDBRANCH  29  30
ENDBRANCH   4  29
BRANCH  18  32
ATOM     32  O   UNL     1     -36.312  22.156   4.911  0.00  0.00    -0.505 OA
ATOM     33  H   UNL     1     -37.099  21.706   5.149  0.00  0.00    +0.292 HD
ENDBRANCH  18  32
TORSDOF 6
ENDMDL
MODEL 2
REMARK VINA RESULT:      -6.3      1.414      7.677
REMARK  Name = 196523
REMARK  6 active torsions:
REMARK  status: ('A' for Active; 'I' for Inactive)
REMARK    1  A    between atoms: C_3  and  O_22
REMARK    2  A    between atoms: C_4  and  C_29
REMARK    3  A    between atoms: C_6  and  O_24
REMARK    4  A    between atoms: C_11  and  O_26
REMARK    5  A    between atoms: C_18  and  O_32
REMARK    6  A    between atoms: C_29  and  O_30
REMARK                            x       y       z     vdW  Elec       q    Type
REMARK                         _______ _______ _______ _____ _____    ______ ____
ROOT
ATOM      1  O   UNL     1     -33.509  29.554   1.806  0.00  0.00    -0.286 OA
ATOM      2  O   UNL     1     -32.560  26.781   6.273  0.00  0.00    -0.287 OA
ATOM      3  C   UNL     1     -35.639  22.779   2.072  0.00  0.00    +0.105 C 
ATOM      4  C   UNL     1     -35.230  23.471   3.393  0.00  0.00    +0.146 C 
ATOM      5  C   UNL     1     -36.461  23.732   1.187  0.00  0.00    +0.062 C 
ATOM      6  C   UNL     1     -35.698  25.019   0.853  0.00  0.00    +0.138 C 
ATOM      7  C   UNL     1     -34.718  24.887   3.202  0.00  0.00    -0.008 C 
ATOM      8  C   UNL     1     -34.970  25.620   2.028  0.00  0.00    +0.035 C 
ATOM      9  C   UNL     1     -36.408  21.471   2.306  0.00  0.00    +0.030 C 
ATOM     10  C   UNL     1     -33.998  25.494   4.248  0.00  0.00    -0.000 C 
ATOM     11  C   UNL     1     -34.495  26.938   1.923  0.00  0.00    +0.135 C 
ATOM     12  C   UNL     1     -33.531  26.808   4.133  0.00  0.00    +0.045 C 
ATOM     13  C   UNL     1     -33.779  27.531   2.970  0.00  0.00    +0.076 C 
ATOM     14  C   UNL     1     -33.292  28.918   2.830  0.00  0.00    +0.202 C 
ATOM     15  C   UNL     1     -32.777  27.416   5.249  0.00  0.00    +0.196 C 
ATOM     16  C   UNL     1     -32.538  29.528   3.944  0.00  0.00    +0.076 C 
ATOM     17  C   UNL     1     -32.288  28.803   5.112  0.00  0.00    +0.045 C 
ATOM     18  C   UNL     1     -32.068  30.842   3.826  0.00  0.00    +0.137 C 
ATOM     19  C   UNL     1     -31.570  29.391   6.160  0.00  0.00    +0.003 C 
ATOM     20  C   UNL     1     -31.353  31.424   4.872  0.00  0.00    +0.037 C 
ATOM     21  C   UNL     1     -31.105  30.701   6.037  0.00  0.00    +0.003 C 
ENDROOT
BRANCH   3  22
ATOM     22  O   UNL     1     -34.429  22.415   1.392  0.00  0.00    -0.386 OA
ATOM     23  H   UNL     1     -34.501  21.503   1.069  0.00  0.00    +0.210 HD
ENDBRANCH   3  22
BRANCH   6  24
ATOM     24  O   UNL     1     -34.736  24.760  -0.169  0.00  0.00    -0.380 OA
ATOM     25  H   UNL     1     -35.030  25.166  -1.000  0.00  0.00    +0.211 HD
ENDBRANCH   6  24
BRANCH  11  26
ATOM     26  O   UNL     1     -34.746  27.621   0.764  0.00  0.00    -0.506 OA
ATOM     27  H   UNL     1     -35.024  27.158  -0.001  0.00  0.00    +0.292 HD
ENDBRANCH  11  26
BRANCH   4  29
ATOM     28  O   UNL     1     -37.242  24.333   4.408  0.00  0.00    -0.250 OA
ATOM     29  C   UNL     1     -36.360  23.487   4.388  0.00  0.00    +0.323 C 
BRANCH  29  30
ATOM     30  O   UNL     1     -36.233  22.429   5.238  0.00  0.00    -0.444 OA
ATOM     31  C   UNL     1     -35.100  22.473   6.110  0.00  0.00    +0.256 C 
ENDBRANCH  29  30
ENDBRANCH   4  29
BRANCH  18  32
ATOM     32  O   UNL     1     -32.272  31.607   2.715  0.00  0.00    -0.505 OA
ATOM     33  H   UNL     1     -32.101  31.253   1.864  0.00  0.00    +0.292 HD
ENDBRANCH  18  32
TORSDOF 6
ENDMDL
MODEL 3
REMARK VINA RESULT:      -6.3      6.108      8.776
REMARK  Name = 196523
REMARK  6 active torsions:
REMARK  status: ('A' for Active; 'I' for Inactive)
REMARK    1  A    between atoms: C_3  and  O_22
REMARK    2  A    between atoms: C_4  and  C_29
REMARK    3  A    between atoms: C_6  and  O_24
REMARK    4  A    between atoms: C_11  and  O_26
REMARK    5  A    between atoms: C_18  and  O_32
REMARK    6  A    between atoms: C_29  and  O_30
REMARK                            x       y       z     vdW  Elec       q    Type
REMARK                         _______ _______ _______ _____ _____    ______ ____
ROOT
ATOM      1  O   UNL     1     -39.846  26.313   3.750  0.00  0.00    -0.286 OA
ATOM      2  O   UNL     1     -41.749  23.179  -0.136  0.00  0.00    -0.287 OA
ATOM      3  C   UNL     1     -36.075  20.577   1.908  0.00  0.00    +0.105 C 
ATOM      4  C   UNL     1     -37.213  21.039   0.968  0.00  0.00    +0.146 C 
ATOM      5  C   UNL     1     -35.288  21.783   2.447  0.00  0.00    +0.062 C 
ATOM      6  C   UNL     1     -36.182  22.770   3.206  0.00  0.00    +0.138 C 
ATOM      7  C   UNL     1     -37.998  22.223   1.503  0.00  0.00    -0.008 C 
ATOM      8  C   UNL     1     -37.497  23.051   2.524  0.00  0.00    +0.035 C 
ATOM      9  C   UNL     1     -35.126  19.576   1.236  0.00  0.00    +0.030 C 
ATOM     10  C   UNL     1     -39.252  22.517   0.934  0.00  0.00    -0.000 C 
ATOM     11  C   UNL     1     -38.259  24.150   2.956  0.00  0.00    +0.135 C 
ATOM     12  C   UNL     1     -40.001  23.615   1.372  0.00  0.00    +0.045 C 
ATOM     13  C   UNL     1     -39.504  24.433   2.383  0.00  0.00    +0.076 C 
ATOM     14  C   UNL     1     -40.282  25.594   2.858  0.00  0.00    +0.202 C 
ATOM     15  C   UNL     1     -41.314  23.897   0.755  0.00  0.00    +0.196 C 
ATOM     16  C   UNL     1     -41.595  25.878   2.244  0.00  0.00    +0.076 C 
ATOM     17  C   UNL     1     -42.094  25.058   1.229  0.00  0.00    +0.045 C 
ATOM     18  C   UNL     1     -42.345  26.975   2.686  0.00  0.00    +0.137 C 
ATOM     19  C   UNL     1     -43.340  25.335   0.656  0.00  0.00    +0.003 C 
ATOM     20  C   UNL     1     -43.587  27.248   2.112  0.00  0.00    +0.037 C 
ATOM     21  C   UNL     1     -44.083  26.430   1.099  0.00  0.00    +0.003 C 
ENDROOT
BRANCH   3  22
ATOM     22  O   UNL     1     -36.688  19.875   3.000  0.00  0.00    -0.386 OA
ATOM     23  H   UNL     1     -37.652  19.933   2.921  0.00  0.00    +0.210 HD
ENDBRANCH   3  22
BRANCH   6  24
ATOM     24  O   UNL     1     -36.467  22.264   4.509  0.00  0.00    -0.380 OA
ATOM     25  H   UNL     1     -37.145  21.573   4.447  0.00  0.00    +0.211 HD
ENDBRANCH   6  24
BRANCH  11  26
ATOM     26  O   UNL     1     -37.749  24.930   3.958  0.00  0.00    -0.506 OA
ATOM     27  H   UNL     1     -37.478  25.808   3.777  0.00  0.00    +0.292 HD
ENDBRANCH  11  26
BRANCH   4  29
ATOM     28  O   UNL     1     -36.070  22.385  -0.678  0.00  0.00    -0.250 OA
ATOM     29  C   UNL     1     -36.700  21.372  -0.408  0.00  0.00    +0.323 C 
BRANCH  29  30
ATOM     30  O   UNL     1     -37.049  20.380  -1.276  0.00  0.00    -0.444 OA
ATOM     31  C   UNL     1     -38.156  19.570  -0.870  0.00  0.00    +0.256 C 
ENDBRANCH  29  30
ENDBRANCH   4  29
BRANCH  18  32
ATOM     32  O   UNL     1     -41.921  27.815   3.673  0.00  0.00    -0.505 OA
ATOM     33  H   UNL     1     -42.107  28.732   3.620  0.00  0.00    +0.292 HD
ENDBRANCH  18  32
TORSDOF 6
ENDMDL
MODEL 4
REMARK VINA RESULT:      -6.3     10.536     12.064
REMARK  Name = 196523
REMARK  6 active torsions:
REMARK  status: ('A' for Active; 'I' for Inactive)
REMARK    1  A    between atoms: C_3  and  O_22
REMARK    2  A    between atoms: C_4  and  C_29
REMARK    3  A    between atoms: C_6  and  O_24
REMARK    4  A    between atoms: C_11  and  O_26
REMARK    5  A    between atoms: C_18  and  O_32
REMARK    6  A    between atoms: C_29  and  O_30
REMARK                            x       y       z     vdW  Elec       q    Type
REMARK                         _______ _______ _______ _____ _____    ______ ____
ROOT
ATOM      1  O   UNL     1     -41.874  27.496   3.001  0.00  0.00    -0.286 OA
ATOM      2  O   UNL     1     -46.961  25.940   3.504  0.00  0.00    -0.287 OA
ATOM      3  C   UNL     1     -45.961  30.851   7.749  0.00  0.00    +0.105 C 
ATOM      4  C   UNL     1     -46.472  29.517   7.156  0.00  0.00    +0.146 C 
ATOM      5  C   UNL     1     -44.457  30.772   8.059  0.00  0.00    +0.062 C 
ATOM      6  C   UNL     1     -43.624  30.436   6.817  0.00  0.00    +0.138 C 
ATOM      7  C   UNL     1     -45.554  28.934   6.097  0.00  0.00    -0.008 C 
ATOM      8  C   UNL     1     -44.213  29.341   5.965  0.00  0.00    +0.035 C 
ATOM      9  C   UNL     1     -46.743  31.276   9.000  0.00  0.00    +0.030 C 
ATOM     10  C   UNL     1     -46.055  27.934   5.242  0.00  0.00    -0.000 C 
ATOM     11  C   UNL     1     -43.405  28.742   4.983  0.00  0.00    +0.135 C 
ATOM     12  C   UNL     1     -45.240  27.345   4.270  0.00  0.00    +0.045 C 
ATOM     13  C   UNL     1     -43.914  27.748   4.139  0.00  0.00    +0.076 C 
ATOM     14  C   UNL     1     -43.041  27.139   3.117  0.00  0.00    +0.202 C 
ATOM     15  C   UNL     1     -45.796  26.297   3.387  0.00  0.00    +0.196 C 
ATOM     16  C   UNL     1     -43.594  26.092   2.233  0.00  0.00    +0.076 C 
ATOM     17  C   UNL     1     -44.924  25.686   2.364  0.00  0.00    +0.045 C 
ATOM     18  C   UNL     1     -42.779  25.506   1.257  0.00  0.00    +0.137 C 
ATOM     19  C   UNL     1     -45.438  24.694   1.519  0.00  0.00    +0.003 C 
ATOM     20  C   UNL     1     -43.294  24.519   0.418  0.00  0.00    +0.037 C 
ATOM     21  C   UNL     1     -44.621  24.113   0.549  0.00  0.00    +0.003 C 
ENDROOT
BRANCH   3  22
ATOM     22  O   UNL     1     -46.198  31.869   6.765  0.00  0.00    -0.386 OA
ATOM     23  H   UNL     1     -45.349  32.219   6.453  0.00  0.00    +0.210 HD
ENDBRANCH   3  22
BRANCH   6  24
ATOM     24  O   UNL     1     -43.483  31.596   5.999  0.00  0.00    -0.380 OA
ATOM     25  H   UNL     1     -43.150  32.332   6.537  0.00  0.00    +0.211 HD
ENDBRANCH   6  24
BRANCH  11  26
ATOM     26  O   UNL     1     -42.109  29.167   4.872  0.00  0.00    -0.506 OA
ATOM     27  H   UNL     1     -41.410  28.619   5.169  0.00  0.00    +0.292 HD
ENDBRANCH  11  26
BRANCH   4  29
ATOM     28  O   UNL     1     -45.819  27.799   8.721  0.00  0.00    -0.250 OA
ATOM     29  C   UNL     1     -46.704  28.483   8.226  0.00  0.00    +0.323 C 
BRANCH  29  30
ATOM     30  O   UNL     1     -48.030  28.441   8.538  0.00  0.00    -0.444 OA
ATOM     31  C   UNL     1     -48.926  28.552   7.429  0.00  0.00    +0.256 C 
ENDBRANCH  29  30
ENDBRANCH   4  29
BRANCH  18  32
ATOM     32  O   UNL     1     -41.473  25.855   1.073  0.00  0.00    -0.505 OA
ATOM     33  H   UNL     1     -40.968  25.442   0.400  0.00  0.00    +0.292 HD
ENDBRANCH  18  32
TORSDOF 6
ENDMDL
MODEL 5
REMARK VINA RESULT:      -6.2      4.478      7.740
REMARK  Name = 196523
REMARK  6 active torsions:
REMARK  status: ('A' for Active; 'I' for Inactive)
REMARK    1  A    between atoms: C_3  and  O_22
REMARK    2  A    between atoms: C_4  and  C_29
REMARK    3  A    between atoms: C_6  and  O_24
REMARK    4  A    between atoms: C_11  and  O_26
REMARK    5  A    between atoms: C_18  and  O_32
REMARK    6  A    between atoms: C_29  and  O_30
REMARK                            x       y       z     vdW  Elec       q    Type
REMARK                         _______ _______ _______ _____ _____    ______ ____
ROOT
ATOM      1  O   UNL     1     -39.733  27.378   0.976  0.00  0.00    -0.286 OA
ATOM      2  O   UNL     1     -40.616  22.110   0.856  0.00  0.00    -0.287 OA
ATOM      3  C   UNL     1     -35.481  23.169   4.812  0.00  0.00    +0.105 C 
ATOM      4  C   UNL     1     -36.389  22.516   3.744  0.00  0.00    +0.146 C 
ATOM      5  C   UNL     1     -34.871  24.479   4.285  0.00  0.00    +0.062 C 
ATOM      6  C   UNL     1     -35.942  25.492   3.863  0.00  0.00    +0.138 C 
ATOM      7  C   UNL     1     -37.308  23.502   3.045  0.00  0.00    -0.008 C 
ATOM      8  C   UNL     1     -37.075  24.888   3.074  0.00  0.00    +0.035 C 
ATOM      9  C   UNL     1     -34.375  22.224   5.303  0.00  0.00    +0.030 C 
ATOM     10  C   UNL     1     -38.409  23.005   2.321  0.00  0.00    -0.000 C 
ATOM     11  C   UNL     1     -37.947  25.748   2.382  0.00  0.00    +0.135 C 
ATOM     12  C   UNL     1     -39.268  23.870   1.635  0.00  0.00    +0.045 C 
ATOM     13  C   UNL     1     -39.037  25.242   1.665  0.00  0.00    +0.076 C 
ATOM     14  C   UNL     1     -39.935  26.170   0.949  0.00  0.00    +0.202 C 
ATOM     15  C   UNL     1     -40.415  23.317   0.884  0.00  0.00    +0.196 C 
ATOM     16  C   UNL     1     -41.083  25.620   0.198  0.00  0.00    +0.076 C 
ATOM     17  C   UNL     1     -41.315  24.243   0.167  0.00  0.00    +0.045 C 
ATOM     18  C   UNL     1     -41.944  26.488  -0.485  0.00  0.00    +0.137 C 
ATOM     19  C   UNL     1     -42.406  23.734  -0.546  0.00  0.00    +0.003 C 
ATOM     20  C   UNL     1     -43.031  25.977  -1.194  0.00  0.00    +0.037 C 
ATOM     21  C   UNL     1     -43.261  24.603  -1.225  0.00  0.00    +0.003 C 
ENDROOT
BRANCH   3  22
ATOM     22  O   UNL     1     -36.304  23.448   5.954  0.00  0.00    -0.386 OA
ATOM     23  H   UNL     1     -37.079  22.864   5.945  0.00  0.00    +0.210 HD
ENDBRANCH   3  22
BRANCH   6  24
ATOM     24  O   UNL     1     -36.500  26.116   5.019  0.00  0.00    -0.380 OA
ATOM     25  H   UNL     1     -36.400  27.078   4.947  0.00  0.00    +0.211 HD
ENDBRANCH   6  24
BRANCH  11  26
ATOM     26  O   UNL     1     -37.700  27.092   2.438  0.00  0.00    -0.506 OA
ATOM     27  H   UNL     1     -37.622  27.587   1.647  0.00  0.00    +0.292 HD
ENDBRANCH  11  26
BRANCH   4  29
ATOM     28  O   UNL     1     -34.811  22.309   1.930  0.00  0.00    -0.250 OA
ATOM     29  C   UNL     1     -35.587  21.774   2.708  0.00  0.00    +0.323 C 
BRANCH  29  30
ATOM     30  O   UNL     1     -35.868  20.442   2.784  0.00  0.00    -0.444 OA
ATOM     31  C   UNL     1     -36.312  19.837   1.566  0.00  0.00    +0.256 C 
ENDBRANCH  29  30
ENDBRANCH   4  29
BRANCH  18  32
ATOM     32  O   UNL     1     -41.780  27.842  -0.496  0.00  0.00    -0.505 OA
ATOM     33  H   UNL     1     -41.371  28.259  -1.229  0.00  0.00    +0.292 HD
ENDBRANCH  18  32
TORSDOF 6
ENDMDL
MODEL 6
REMARK VINA RESULT:      -6.1      1.751      6.972
REMARK  Name = 196523
REMARK  6 active torsions:
REMARK  status: ('A' for Active; 'I' for Inactive)
REMARK    1  A    between atoms: C_3  and  O_22
REMARK    2  A    between atoms: C_4  and  C_29
REMARK    3  A    between atoms: C_6  and  O_24
REMARK    4  A    between atoms: C_11  and  O_26
REMARK    5  A    between atoms: C_18  and  O_32
REMARK    6  A    between atoms: C_29  and  O_30
REMARK                            x       y       z     vdW  Elec       q    Type
REMARK                         _______ _______ _______ _____ _____    ______ ____
ROOT
ATOM      1  O   UNL     1     -31.898  27.371   5.701  0.00  0.00    -0.286 OA
ATOM      2  O   UNL     1     -34.677  30.125   2.063  0.00  0.00    -0.287 OA
ATOM      3  C   UNL     1     -37.673  24.338   2.882  0.00  0.00    +0.105 C 
ATOM      4  C   UNL     1     -37.097  25.598   2.194  0.00  0.00    +0.146 C 
ATOM      5  C   UNL     1     -36.544  23.397   3.333  0.00  0.00    +0.062 C 
ATOM      6  C   UNL     1     -35.567  24.080   4.297  0.00  0.00    +0.138 C 
ATOM      7  C   UNL     1     -35.915  26.202   2.929  0.00  0.00    -0.008 C 
ATOM      8  C   UNL     1     -35.180  25.477   3.885  0.00  0.00    +0.035 C 
ATOM      9  C   UNL     1     -38.672  23.585   1.991  0.00  0.00    +0.030 C 
ATOM     10  C   UNL     1     -35.525  27.519   2.618  0.00  0.00    -0.000 C 
ATOM     11  C   UNL     1     -34.077  26.083   4.510  0.00  0.00    +0.135 C 
ATOM     12  C   UNL     1     -34.424  28.110   3.246  0.00  0.00    +0.045 C 
ATOM     13  C   UNL     1     -33.699  27.393   4.192  0.00  0.00    +0.076 C 
ATOM     14  C   UNL     1     -32.535  28.002   4.867  0.00  0.00    +0.202 C 
ATOM     15  C   UNL     1     -34.040  29.495   2.897  0.00  0.00    +0.196 C 
ATOM     16  C   UNL     1     -32.150  29.386   4.521  0.00  0.00    +0.076 C 
ATOM     17  C   UNL     1     -32.877  30.106   3.571  0.00  0.00    +0.045 C 
ATOM     18  C   UNL     1     -31.050  29.978   5.153  0.00  0.00    +0.137 C 
ATOM     19  C   UNL     1     -32.504  31.418   3.252  0.00  0.00    +0.003 C 
ATOM     20  C   UNL     1     -30.681  31.285   4.834  0.00  0.00    +0.037 C 
ATOM     21  C   UNL     1     -31.406  32.003   3.885  0.00  0.00    +0.003 C 
ENDROOT
BRANCH   3  22
ATOM     22  O   UNL     1     -38.416  24.783   4.027  0.00  0.00    -0.386 OA
ATOM     23  H   UNL     1     -38.927  24.042   4.388  0.00  0.00    +0.210 HD
ENDBRANCH   3  22
BRANCH   6  24
ATOM     24  O   UNL     1     -36.144  24.154   5.600  0.00  0.00    -0.380 OA
ATOM     25  H   UNL     1     -36.662  24.970   5.679  0.00  0.00    +0.211 HD
ENDBRANCH   6  24
BRANCH  11  26
ATOM     26  O   UNL     1     -33.389  25.356   5.444  0.00  0.00    -0.506 OA
ATOM     27  H   UNL     1     -33.825  24.683   5.927  0.00  0.00    +0.292 HD
ENDBRANCH  11  26
BRANCH   4  29
ATOM     28  O   UNL     1     -35.664  24.760   0.442  0.00  0.00    -0.250 OA
ATOM     29  C   UNL     1     -36.700  25.323   0.768  0.00  0.00    +0.323 C 
BRANCH  29  30
ATOM     30  O   UNL     1     -37.664  25.795  -0.072  0.00  0.00    -0.444 OA
ATOM     31  C   UNL     1     -38.336  26.979   0.367  0.00  0.00    +0.256 C 
ENDBRANCH  29  30
ENDBRANCH   4  29
BRANCH  18  32
ATOM     32  O   UNL     1     -30.297  29.335   6.091  0.00  0.00    -0.505 OA
ATOM     33  H   UNL     1     -29.361  29.368   6.045  0.00  0.00    +0.292 HD
ENDBRANCH  18  32
TORSDOF 6
ENDMDL
MODEL 7
REMARK VINA RESULT:      -6.1      2.066      4.455
REMARK  Name = 196523
REMARK  6 active torsions:
REMARK  status: ('A' for Active; 'I' for Inactive)
REMARK    1  A    between atoms: C_3  and  O_22
REMARK    2  A    between atoms: C_4  and  C_29
REMARK    3  A    between atoms: C_6  and  O_24
REMARK    4  A    between atoms: C_11  and  O_26
REMARK    5  A    between atoms: C_18  and  O_32
REMARK    6  A    between atoms: C_29  and  O_30
REMARK                            x       y       z     vdW  Elec       q    Type
REMARK                         _______ _______ _______ _____ _____    ______ ____
ROOT
ATOM      1  O   UNL     1     -35.527  23.548   1.269  0.00  0.00    -0.286 OA
ATOM      2  O   UNL     1     -34.805  25.901   6.012  0.00  0.00    -0.287 OA
ATOM      3  C   UNL     1     -35.363  30.649   1.509  0.00  0.00    +0.105 C 
ATOM      4  C   UNL     1     -34.870  29.863   2.746  0.00  0.00    +0.146 C 
ATOM      5  C   UNL     1     -34.877  29.986   0.209  0.00  0.00    +0.062 C 
ATOM      6  C   UNL     1     -35.347  28.532   0.087  0.00  0.00    +0.138 C 
ATOM      7  C   UNL     1     -35.026  28.359   2.609  0.00  0.00    -0.008 C 
ATOM      8  C   UNL     1     -35.212  27.739   1.361  0.00  0.00    +0.035 C 
ATOM      9  C   UNL     1     -34.945  32.126   1.544  0.00  0.00    +0.030 C 
ATOM     10  C   UNL     1     -34.948  27.563   3.768  0.00  0.00    -0.000 C 
ATOM     11  C   UNL     1     -35.321  26.338   1.297  0.00  0.00    +0.135 C 
ATOM     12  C   UNL     1     -35.056  26.170   3.691  0.00  0.00    +0.045 C 
ATOM     13  C   UNL     1     -35.243  25.557   2.456  0.00  0.00    +0.076 C 
ATOM     14  C   UNL     1     -35.361  24.088   2.357  0.00  0.00    +0.202 C 
ATOM     15  C   UNL     1     -34.972  25.361   4.926  0.00  0.00    +0.196 C 
ATOM     16  C   UNL     1     -35.277  23.278   3.589  0.00  0.00    +0.076 C 
ATOM     17  C   UNL     1     -35.090  23.893   4.829  0.00  0.00    +0.045 C 
ATOM     18  C   UNL     1     -35.389  21.884   3.511  0.00  0.00    +0.137 C 
ATOM     19  C   UNL     1     -35.014  23.114   5.990  0.00  0.00    +0.003 C 
ATOM     20  C   UNL     1     -35.314  21.112   4.671  0.00  0.00    +0.037 C 
ATOM     21  C   UNL     1     -35.126  21.726   5.908  0.00  0.00    +0.003 C 
ENDROOT
BRANCH   3  22
ATOM     22  O   UNL     1     -36.798  30.640   1.547  0.00  0.00    -0.386 OA
ATOM     23  H   UNL     1     -37.121  29.754   1.322  0.00  0.00    +0.210 HD
ENDBRANCH   3  22
BRANCH   6  24
ATOM     24  O   UNL     1     -36.718  28.497  -0.306  0.00  0.00    -0.380 OA
ATOM     25  H   UNL     1     -37.281  28.623   0.473  0.00  0.00    +0.211 HD
ENDBRANCH   6  24
BRANCH  11  26
ATOM     26  O   UNL     1     -35.513  25.765   0.070  0.00  0.00    -0.506 OA
ATOM     27  H   UNL     1     -36.260  25.998  -0.444  0.00  0.00    +0.292 HD
ENDBRANCH  11  26
BRANCH   4  29
ATOM     28  O   UNL     1     -32.494  29.944   2.326  0.00  0.00    -0.250 OA
ATOM     29  C   UNL     1     -33.434  30.179   3.072  0.00  0.00    +0.323 C 
BRANCH  29  30
ATOM     30  O   UNL     1     -33.364  30.756   4.305  0.00  0.00    -0.444 OA
ATOM     31  C   UNL     1     -32.227  30.389   5.092  0.00  0.00    +0.256 C 
ENDBRANCH  29  30
ENDBRANCH   4  29
BRANCH  18  32
ATOM     32  O   UNL     1     -35.576  21.218   2.336  0.00  0.00    -0.505 OA
ATOM     33  H   UNL     1     -35.151  20.395   2.190  0.00  0.00    +0.292 HD
ENDBRANCH  18  32
TORSDOF 6
ENDMDL
MODEL 8
REMARK VINA RESULT:      -6.1      5.242      9.442
REMARK  Name = 196523
REMARK  6 active torsions:
REMARK  status: ('A' for Active; 'I' for Inactive)
REMARK    1  A    between atoms: C_3  and  O_22
REMARK    2  A    between atoms: C_4  and  C_29
REMARK    3  A    between atoms: C_6  and  O_24
REMARK    4  A    between atoms: C_11  and  O_26
REMARK    5  A    between atoms: C_18  and  O_32
REMARK    6  A    between atoms: C_29  and  O_30
REMARK                            x       y       z     vdW  Elec       q    Type
REMARK                         _______ _______ _______ _____ _____    ______ ____
ROOT
ATOM      1  O   UNL     1     -37.090  20.819   2.457  0.00  0.00    -0.286 OA
ATOM      2  O   UNL     1     -38.486  25.934   3.118  0.00  0.00    -0.287 OA
ATOM      3  C   UNL     1     -42.701  23.265  -1.155  0.00  0.00    +0.105 C 
ATOM      4  C   UNL     1     -41.758  24.290  -0.483  0.00  0.00    +0.146 C 
ATOM      5  C   UNL     1     -41.897  22.127  -1.806  0.00  0.00    +0.062 C 
ATOM      6  C   UNL     1     -41.008  21.391  -0.797  0.00  0.00    +0.138 C 
ATOM      7  C   UNL     1     -40.643  23.650   0.324  0.00  0.00    -0.008 C 
ATOM      8  C   UNL     1     -40.272  22.305   0.149  0.00  0.00    +0.035 C 
ATOM      9  C   UNL     1     -43.639  23.912  -2.182  0.00  0.00    +0.030 C 
ATOM     10  C   UNL     1     -39.940  24.441   1.253  0.00  0.00    -0.000 C 
ATOM     11  C   UNL     1     -39.211  21.778   0.906  0.00  0.00    +0.135 C 
ATOM     12  C   UNL     1     -38.885  23.906   2.000  0.00  0.00    +0.045 C 
ATOM     13  C   UNL     1     -38.519  22.574   1.827  0.00  0.00    +0.076 C 
ATOM     14  C   UNL     1     -37.410  21.992   2.608  0.00  0.00    +0.202 C 
ATOM     15  C   UNL     1     -38.167  24.762   2.968  0.00  0.00    +0.196 C 
ATOM     16  C   UNL     1     -36.691  22.845   3.577  0.00  0.00    +0.076 C 
ATOM     17  C   UNL     1     -37.057  24.182   3.751  0.00  0.00    +0.045 C 
ATOM     18  C   UNL     1     -35.638  22.307   4.327  0.00  0.00    +0.137 C 
ATOM     19  C   UNL     1     -36.369  24.980   4.673  0.00  0.00    +0.003 C 
ATOM     20  C   UNL     1     -34.956  23.105   5.245  0.00  0.00    +0.037 C 
ATOM     21  C   UNL     1     -35.320  24.439   5.417  0.00  0.00    +0.003 C 
ENDROOT
BRANCH   3  22
ATOM     22  O   UNL     1     -43.545  22.729  -0.125  0.00  0.00    -0.386 OA
ATOM     23  H   UNL     1     -44.460  22.694  -0.443  0.00  0.00    +0.210 HD
ENDBRANCH   3  22
BRANCH   6  24
ATOM     24  O   UNL     1     -41.800  20.499  -0.013  0.00  0.00    -0.380 OA
ATOM     25  H   UNL     1     -42.740  20.681  -0.167  0.00  0.00    +0.211 HD
ENDBRANCH   6  24
BRANCH  11  26
ATOM     26  O   UNL     1     -38.882  20.463   0.721  0.00  0.00    -0.506 OA
ATOM     27  H   UNL     1     -38.471  19.981   1.411  0.00  0.00    +0.292 HD
ENDBRANCH  11  26
BRANCH   4  29
ATOM     28  O   UNL     1     -40.316  24.910  -2.318  0.00  0.00    -0.250 OA
ATOM     29  C   UNL     1     -41.154  25.235  -1.489  0.00  0.00    +0.323 C 
BRANCH  29  30
ATOM     30  O   UNL     1     -41.687  26.479  -1.321  0.00  0.00    -0.444 OA
ATOM     31  C   UNL     1     -40.794  27.465  -0.795  0.00  0.00    +0.256 C 
ENDBRANCH  29  30
ENDBRANCH   4  29
BRANCH  18  32
ATOM     32  O   UNL     1     -35.229  21.010   4.210  0.00  0.00    -0.505 OA
ATOM     33  H   UNL     1     -34.325  20.816   4.058  0.00  0.00    +0.292 HD
ENDBRANCH  18  32
TORSDOF 6
ENDMDL
MODEL 9
REMARK VINA RESULT:      -6.0      1.841      7.394
REMARK  Name = 196523
REMARK  6 active torsions:
REMARK  status: ('A' for Active; 'I' for Inactive)
REMARK    1  A    between atoms: C_3  and  O_22
REMARK    2  A    between atoms: C_4  and  C_29
REMARK    3  A    between atoms: C_6  and  O_24
REMARK    4  A    between atoms: C_11  and  O_26
REMARK    5  A    between atoms: C_18  and  O_32
REMARK    6  A    between atoms: C_29  and  O_30
REMARK                            x       y       z     vdW  Elec       q    Type
REMARK                         _______ _______ _______ _____ _____    ______ ____
ROOT
ATOM      1  O   UNL     1     -33.126  26.762   5.705  0.00  0.00    -0.286 OA
ATOM      2  O   UNL     1     -34.236  27.541   0.537  0.00  0.00    -0.287 OA
ATOM      3  C   UNL     1     -36.547  21.619   2.189  0.00  0.00    +0.105 C 
ATOM      4  C   UNL     1     -35.878  22.747   1.369  0.00  0.00    +0.146 C 
ATOM      5  C   UNL     1     -35.647  21.183   3.356  0.00  0.00    +0.062 C 
ATOM      6  C   UNL     1     -35.312  22.344   4.299  0.00  0.00    +0.138 C 
ATOM      7  C   UNL     1     -35.247  23.828   2.228  0.00  0.00    -0.008 C 
ATOM      8  C   UNL     1     -34.952  23.623   3.588  0.00  0.00    +0.035 C 
ATOM      9  C   UNL     1     -36.927  20.409   1.324  0.00  0.00    +0.030 C 
ATOM     10  C   UNL     1     -34.921  25.062   1.633  0.00  0.00    -0.000 C 
ATOM     11  C   UNL     1     -34.341  24.654   4.324  0.00  0.00    +0.135 C 
ATOM     12  C   UNL     1     -34.312  26.079   2.375  0.00  0.00    +0.045 C 
ATOM     13  C   UNL     1     -34.021  25.876   3.721  0.00  0.00    +0.076 C 
ATOM     14  C   UNL     1     -33.381  26.940   4.520  0.00  0.00    +0.202 C 
ATOM     15  C   UNL     1     -33.982  27.364   1.721  0.00  0.00    +0.196 C 
ATOM     16  C   UNL     1     -33.051  28.224   3.869  0.00  0.00    +0.076 C 
ATOM     17  C   UNL     1     -33.342  28.429   2.518  0.00  0.00    +0.045 C 
ATOM     18  C   UNL     1     -32.445  29.244   4.614  0.00  0.00    +0.137 C 
ATOM     19  C   UNL     1     -33.026  29.651   1.913  0.00  0.00    +0.003 C 
ATOM     20  C   UNL     1     -32.132  30.460   4.007  0.00  0.00    +0.037 C 
ATOM     21  C   UNL     1     -32.422  30.663   2.659  0.00  0.00    +0.003 C 
ENDROOT
BRANCH   3  22
ATOM     22  O   UNL     1     -37.780  22.145   2.702  0.00  0.00    -0.386 OA
ATOM     23  H   UNL     1     -38.427  22.213   1.983  0.00  0.00    +0.210 HD
ENDBRANCH   3  22
BRANCH   6  24
ATOM     24  O   UNL     1     -36.427  22.616   5.148  0.00  0.00    -0.380 OA
ATOM     25  H   UNL     1     -36.134  22.630   6.072  0.00  0.00    +0.211 HD
ENDBRANCH   6  24
BRANCH  11  26
ATOM     26  O   UNL     1     -34.077  24.428   5.647  0.00  0.00    -0.506 OA
ATOM     27  H   UNL     1     -34.344  25.053   6.291  0.00  0.00    +0.292 HD
ENDBRANCH  11  26
BRANCH   4  29
ATOM     28  O   UNL     1     -33.774  21.723   0.775  0.00  0.00    -0.250 OA
ATOM     29  C   UNL     1     -34.839  22.207   0.421  0.00  0.00    +0.323 C 
BRANCH  29  30
ATOM     30  O   UNL     1     -35.279  22.347  -0.862  0.00  0.00    -0.444 OA
ATOM     31  C   UNL     1     -34.900  21.299  -1.759  0.00  0.00    +0.256 C 
ENDBRANCH  29  30
ENDBRANCH   4  29
BRANCH  18  32
ATOM     32  O   UNL     1     -32.135  29.114   5.936  0.00  0.00    -0.505 OA
ATOM     33  H   UNL     1     -32.042  29.876   6.473  0.00  0.00    +0.292 HD
ENDBRANCH  18  32
TORSDOF 6
ENDMDL
