MODEL 1
REMARK VINA RESULT:      -6.0      0.000      0.000
REMARK  Name = 54603313
REMARK  9 active torsions:
REMARK  status: ('A' for Active; 'I' for Inactive)
REMARK    1  A    between atoms: N_1  and  C_2
REMARK    2  A    between atoms: N_1  and  N_3
REMARK    3  A    between atoms: C_2  and  C_11
REMARK    4  A    between atoms: C_2  and  C_18
REMARK    5  A    between atoms: N_3  and  C_6
REMARK    6  A    between atoms: N_17  and  C_18
REMARK    7  A    between atoms: N_17  and  N_19
REMARK    8  A    between atoms: C_18  and  C_27
REMARK    9  A    between atoms: N_19  and  C_22
REMARK                            x       y       z     vdW  Elec       q    Type
REMARK                         _______ _______ _______ _____ _____    ______ ____
ROOT
ATOM      1  C   UNL     1     -36.194  22.016   2.126  0.00  0.00    +0.142 C 
ENDROOT
BRANCH   1   2
ATOM      2  C   UNL     1     -35.604  22.460   3.419  0.00  0.00    -0.003 C 
ATOM      3  C   UNL     1     -35.588  21.593   4.512  0.00  0.00    -0.003 C 
ATOM      4  C   UNL     1     -35.069  23.742   3.539  0.00  0.00    -0.003 C 
ATOM      5  C   UNL     1     -35.037  22.009   5.725  0.00  0.00    -0.000 C 
ATOM      6  C   UNL     1     -34.516  24.158   4.750  0.00  0.00    -0.000 C 
ATOM      7  C   UNL     1     -34.501  23.291   5.843  0.00  0.00    -0.000 C 
ENDBRANCH   1   2
BRANCH   1   8
ATOM      8  N   UNL     1     -37.050  22.766   1.496  0.00  0.00    -0.092 NA
BRANCH   8   9
ATOM      9  N   UNL     1     -38.153  23.135   2.259  0.00  0.00    -0.145 NA
BRANCH   9  12
ATOM     10  N   UNL     1     -39.349  21.060   2.191  0.00  0.00    -0.369 N 
ATOM     11  N   UNL     1     -40.332  22.981   1.439  0.00  0.00    -0.369 N 
ATOM     12  C   UNL     1     -39.208  22.413   1.987  0.00  0.00    +0.207 C 
ATOM     13  H   UNL     1     -38.608  20.540   2.579  0.00  0.00    +0.159 HD
ATOM     14  H   UNL     1     -40.191  20.610   1.948  0.00  0.00    +0.159 HD
ATOM     15  H   UNL     1     -40.353  23.946   1.247  0.00  0.00    +0.159 HD
ATOM     16  H   UNL     1     -41.118  22.423   1.240  0.00  0.00    +0.159 HD
ENDBRANCH   9  12
ENDBRANCH   8   9
ENDBRANCH   1   8
BRANCH   1  17
ATOM     17  C   UNL     1     -35.779  20.674   1.551  0.00  0.00    +0.142 C 
BRANCH  17  18
ATOM     18  C   UNL     1     -34.388  20.506   1.048  0.00  0.00    -0.003 C 
ATOM     19  C   UNL     1     -33.676  19.343   1.340  0.00  0.00    -0.003 C 
ATOM     20  C   UNL     1     -33.795  21.513   0.285  0.00  0.00    -0.003 C 
ATOM     21  C   UNL     1     -32.373  19.185   0.870  0.00  0.00    -0.000 C 
ATOM     22  C   UNL     1     -32.491  21.355  -0.185  0.00  0.00    -0.000 C 
ATOM     23  C   UNL     1     -31.780  20.192   0.107  0.00  0.00    -0.000 C 
ENDBRANCH  17  18
BRANCH  17  24
ATOM     24  N   UNL     1     -36.625  19.688   1.504  0.00  0.00    -0.092 NA
BRANCH  24  25
ATOM     25  N   UNL     1     -37.219  19.506   0.261  0.00  0.00    -0.145 NA
BRANCH  25  28
ATOM     26  N   UNL     1     -36.265  18.063  -1.398  0.00  0.00    -0.369 N 
ATOM     27  N   UNL     1     -37.401  17.182   0.379  0.00  0.00    -0.369 N 
ATOM     28  C   UNL     1     -36.964  18.326  -0.242  0.00  0.00    +0.207 C 
ATOM     29  H   UNL     1     -35.900  18.804  -1.932  0.00  0.00    +0.159 HD
ATOM     30  H   UNL     1     -36.129  17.132  -1.689  0.00  0.00    +0.159 HD
ATOM     31  H   UNL     1     -37.915  17.242   1.217  0.00  0.00    +0.159 HD
ATOM     32  H   UNL     1     -37.202  16.302  -0.014  0.00  0.00    +0.159 HD
ENDBRANCH  25  28
ENDBRANCH  24  25
ENDBRANCH  17  24
ENDBRANCH   1  17
TORSDOF 9
ENDMDL
MODEL 2
REMARK VINA RESULT:      -6.0      0.128      5.075
REMARK  Name = 54603313
REMARK  9 active torsions:
REMARK  status: ('A' for Active; 'I' for Inactive)
REMARK    1  A    between atoms: N_1  and  C_2
REMARK    2  A    between atoms: N_1  and  N_3
REMARK    3  A    between atoms: C_2  and  C_11
REMARK    4  A    between atoms: C_2  and  C_18
REMARK    5  A    between atoms: N_3  and  C_6
REMARK    6  A    between atoms: N_17  and  C_18
REMARK    7  A    between atoms: N_17  and  N_19
REMARK    8  A    between atoms: C_18  and  C_27
REMARK    9  A    between atoms: N_19  and  C_22
REMARK                            x       y       z     vdW  Elec       q    Type
REMARK                         _______ _______ _______ _____ _____    ______ ____
ROOT
ATOM      1  C   UNL     1     -35.784  20.646   1.587  0.00  0.00    +0.142 C 
ENDROOT
BRANCH   1   2
ATOM      2  C   UNL     1     -34.394  20.470   1.081  0.00  0.00    -0.003 C 
ATOM      3  C   UNL     1     -33.676  19.317   1.401  0.00  0.00    -0.003 C 
ATOM      4  C   UNL     1     -33.810  21.458   0.290  0.00  0.00    -0.003 C 
ATOM      5  C   UNL     1     -32.374  19.153   0.928  0.00  0.00    -0.000 C 
ATOM      6  C   UNL     1     -32.508  21.294  -0.184  0.00  0.00    -0.000 C 
ATOM      7  C   UNL     1     -31.790  20.141   0.136  0.00  0.00    -0.000 C 
ENDBRANCH   1   2
BRANCH   1   8
ATOM      8  N   UNL     1     -36.621  19.651   1.585  0.00  0.00    -0.092 NA
BRANCH   8   9
ATOM      9  N   UNL     1     -37.249  19.438   0.362  0.00  0.00    -0.145 NA
BRANCH   9  12
ATOM     10  N   UNL     1     -37.458  17.051   0.341  0.00  0.00    -0.369 N 
ATOM     11  N   UNL     1     -36.170  18.108  -1.223  0.00  0.00    -0.369 N 
ATOM     12  C   UNL     1     -36.988  18.255  -0.129  0.00  0.00    +0.207 C 
ATOM     13  H   UNL     1     -38.055  17.026   1.124  0.00  0.00    +0.159 HD
ATOM     14  H   UNL     1     -37.198  16.212  -0.105  0.00  0.00    +0.159 HD
ATOM     15  H   UNL     1     -35.772  18.900  -1.650  0.00  0.00    +0.159 HD
ATOM     16  H   UNL     1     -35.984  17.210  -1.580  0.00  0.00    +0.159 HD
ENDBRANCH   9  12
ENDBRANCH   8   9
ENDBRANCH   1   8
BRANCH   1  17
ATOM     17  C   UNL     1     -36.208  22.006   2.109  0.00  0.00    +0.142 C 
BRANCH  17  18
ATOM     18  C   UNL     1     -35.592  22.519   3.364  0.00  0.00    -0.003 C 
ATOM     19  C   UNL     1     -34.996  23.780   3.383  0.00  0.00    -0.003 C 
ATOM     20  C   UNL     1     -35.611  21.740   4.521  0.00  0.00    -0.003 C 
ATOM     21  C   UNL     1     -34.418  24.261   4.558  0.00  0.00    -0.000 C 
ATOM     22  C   UNL     1     -35.033  22.221   5.696  0.00  0.00    -0.000 C 
ATOM     23  C   UNL     1     -34.437  23.481   5.714  0.00  0.00    -0.000 C 
ENDBRANCH  17  18
BRANCH  17  24
ATOM     24  N   UNL     1     -37.092  22.712   1.467  0.00  0.00    -0.092 NA
BRANCH  24  25
ATOM     25  N   UNL     1     -38.190  23.083   2.234  0.00  0.00    -0.145 NA
BRANCH  25  28
ATOM     26  N   UNL     1     -40.398  22.903   1.320  0.00  0.00    -0.369 N 
ATOM     27  N   UNL     1     -39.356  21.062   2.184  0.00  0.00    -0.369 N 
ATOM     28  C   UNL     1     -39.265  22.407   1.921  0.00  0.00    +0.207 C 
ATOM     29  H   UNL     1     -40.452  23.857   1.082  0.00  0.00    +0.159 HD
ATOM     30  H   UNL     1     -41.156  22.304   1.127  0.00  0.00    +0.159 HD
ATOM     31  H   UNL     1     -38.606  20.591   2.614  0.00  0.00    +0.159 HD
ATOM     32  H   UNL     1     -40.173  20.568   1.943  0.00  0.00    +0.159 HD
ENDBRANCH  25  28
ENDBRANCH  24  25
ENDBRANCH  17  24
ENDBRANCH   1  17
TORSDOF 9
ENDMDL
MODEL 3
REMARK VINA RESULT:      -6.0      0.238      1.556
REMARK  Name = 54603313
REMARK  9 active torsions:
REMARK  status: ('A' for Active; 'I' for Inactive)
REMARK    1  A    between atoms: N_1  and  C_2
REMARK    2  A    between atoms: N_1  and  N_3
REMARK    3  A    between atoms: C_2  and  C_11
REMARK    4  A    between atoms: C_2  and  C_18
REMARK    5  A    between atoms: N_3  and  C_6
REMARK    6  A    between atoms: N_17  and  C_18
REMARK    7  A    between atoms: N_17  and  N_19
REMARK    8  A    between atoms: C_18  and  C_27
REMARK    9  A    between atoms: N_19  and  C_22
REMARK                            x       y       z     vdW  Elec       q    Type
REMARK                         _______ _______ _______ _____ _____    ______ ____
ROOT
ATOM      1  C   UNL     1     -36.242  22.136   2.101  0.00  0.00    +0.142 C 
ENDROOT
BRANCH   1   2
ATOM      2  C   UNL     1     -35.584  22.678   3.323  0.00  0.00    -0.003 C 
ATOM      3  C   UNL     1     -34.919  23.903   3.272  0.00  0.00    -0.003 C 
ATOM      4  C   UNL     1     -35.632  21.960   4.517  0.00  0.00    -0.003 C 
ATOM      5  C   UNL     1     -34.301  24.410   4.415  0.00  0.00    -0.000 C 
ATOM      6  C   UNL     1     -35.016  22.468   5.662  0.00  0.00    -0.000 C 
ATOM      7  C   UNL     1     -34.350  23.693   5.610  0.00  0.00    -0.000 C 
ENDBRANCH   1   2
BRANCH   1   8
ATOM      8  N   UNL     1     -37.158  22.821   1.483  0.00  0.00    -0.092 NA
BRANCH   8   9
ATOM      9  N   UNL     1     -38.285  23.089   2.252  0.00  0.00    -0.145 NA
BRANCH   9  12
ATOM     10  N   UNL     1     -40.391  22.846   1.135  0.00  0.00    -0.369 N 
ATOM     11  N   UNL     1     -39.439  21.061   2.199  0.00  0.00    -0.369 N 
ATOM     12  C   UNL     1     -39.322  22.390   1.872  0.00  0.00    +0.207 C 
ATOM     13  H   UNL     1     -40.422  23.785   0.841  0.00  0.00    +0.159 HD
ATOM     14  H   UNL     1     -41.126  22.233   0.902  0.00  0.00    +0.159 HD
ATOM     15  H   UNL     1     -38.734  20.620   2.726  0.00  0.00    +0.159 HD
ATOM     16  H   UNL     1     -40.227  20.550   1.905  0.00  0.00    +0.159 HD
ENDBRANCH   9  12
ENDBRANCH   8   9
ENDBRANCH   1   8
BRANCH   1  17
ATOM     17  C   UNL     1     -35.822  20.772   1.586  0.00  0.00    +0.142 C 
BRANCH  17  18
ATOM     18  C   UNL     1     -34.438  20.593   1.067  0.00  0.00    -0.003 C 
ATOM     19  C   UNL     1     -33.852  21.587   0.284  0.00  0.00    -0.003 C 
ATOM     20  C   UNL     1     -33.726  19.430   1.364  0.00  0.00    -0.003 C 
ATOM     21  C   UNL     1     -32.556  21.420  -0.203  0.00  0.00    -0.000 C 
ATOM     22  C   UNL     1     -32.430  19.262   0.876  0.00  0.00    -0.000 C 
ATOM     23  C   UNL     1     -31.845  20.256   0.093  0.00  0.00    -0.000 C 
ENDBRANCH  17  18
BRANCH  17  24
ATOM     24  N   UNL     1     -36.658  19.777   1.603  0.00  0.00    -0.092 NA
BRANCH  24  25
ATOM     25  N   UNL     1     -37.295  19.547   0.388  0.00  0.00    -0.145 NA
BRANCH  25  28
ATOM     26  N   UNL     1     -36.201  18.202  -1.266  0.00  0.00    -0.369 N 
ATOM     27  N   UNL     1     -37.373  17.215   0.430  0.00  0.00    -0.369 N 
ATOM     28  C   UNL     1     -36.963  18.397  -0.137  0.00  0.00    +0.207 C 
ATOM     29  H   UNL     1     -35.848  18.976  -1.761  0.00  0.00    +0.159 HD
ATOM     30  H   UNL     1     -36.008  17.288  -1.578  0.00  0.00    +0.159 HD
ATOM     31  H   UNL     1     -37.925  17.225   1.245  0.00  0.00    +0.159 HD
ATOM     32  H   UNL     1     -37.114  16.358   0.022  0.00  0.00    +0.159 HD
ENDBRANCH  25  28
ENDBRANCH  24  25
ENDBRANCH  17  24
ENDBRANCH   1  17
TORSDOF 9
ENDMDL
MODEL 4
REMARK VINA RESULT:      -5.9      1.726      3.150
REMARK  Name = 54603313
REMARK  9 active torsions:
REMARK  status: ('A' for Active; 'I' for Inactive)
REMARK    1  A    between atoms: N_1  and  C_2
REMARK    2  A    between atoms: N_1  and  N_3
REMARK    3  A    between atoms: C_2  and  C_11
REMARK    4  A    between atoms: C_2  and  C_18
REMARK    5  A    between atoms: N_3  and  C_6
REMARK    6  A    between atoms: N_17  and  C_18
REMARK    7  A    between atoms: N_17  and  N_19
REMARK    8  A    between atoms: C_18  and  C_27
REMARK    9  A    between atoms: N_19  and  C_22
REMARK                            x       y       z     vdW  Elec       q    Type
REMARK                         _______ _______ _______ _____ _____    ______ ____
ROOT
ATOM      1  C   UNL     1     -35.711  23.220   2.239  0.00  0.00    +0.142 C 
ENDROOT
BRANCH   1   2
ATOM      2  C   UNL     1     -35.498  22.947   3.688  0.00  0.00    -0.003 C 
ATOM      3  C   UNL     1     -35.263  24.003   4.569  0.00  0.00    -0.003 C 
ATOM      4  C   UNL     1     -35.532  21.637   4.163  0.00  0.00    -0.003 C 
ATOM      5  C   UNL     1     -35.062  23.748   5.925  0.00  0.00    -0.000 C 
ATOM      6  C   UNL     1     -35.332  21.381   5.521  0.00  0.00    -0.000 C 
ATOM      7  C   UNL     1     -35.097  22.437   6.401  0.00  0.00    -0.000 C 
ENDBRANCH   1   2
BRANCH   1   8
ATOM      8  N   UNL     1     -35.800  24.440   1.800  0.00  0.00    -0.092 NA
BRANCH   8   9
ATOM      9  N   UNL     1     -37.102  24.925   1.729  0.00  0.00    -0.145 NA
BRANCH   9  12
ATOM     10  N   UNL     1     -36.650  27.222   2.243  0.00  0.00    -0.369 N 
ATOM     11  N   UNL     1     -38.123  26.024   3.517  0.00  0.00    -0.369 N 
ATOM     12  C   UNL     1     -37.267  26.008   2.442  0.00  0.00    +0.207 C 
ATOM     13  H   UNL     1     -36.012  27.335   1.502  0.00  0.00    +0.159 HD
ATOM     14  H   UNL     1     -36.846  27.978   2.843  0.00  0.00    +0.159 HD
ATOM     15  H   UNL     1     -38.624  25.213   3.759  0.00  0.00    +0.159 HD
ATOM     16  H   UNL     1     -38.235  26.848   4.043  0.00  0.00    +0.159 HD
ENDBRANCH   9  12
ENDBRANCH   8   9
ENDBRANCH   1   8
BRANCH   1  17
ATOM     17  C   UNL     1     -35.818  22.049   1.280  0.00  0.00    +0.142 C 
BRANCH  17  18
ATOM     18  C   UNL     1     -34.600  21.242   0.990  0.00  0.00    -0.003 C 
ATOM     19  C   UNL     1     -33.575  21.780   0.213  0.00  0.00    -0.003 C 
ATOM     20  C   UNL     1     -34.484  19.946   1.495  0.00  0.00    -0.003 C 
ATOM     21  C   UNL     1     -32.435  21.025  -0.060  0.00  0.00    -0.000 C 
ATOM     22  C   UNL     1     -33.344  19.191   1.223  0.00  0.00    -0.000 C 
ATOM     23  C   UNL     1     -32.320  19.729   0.446  0.00  0.00    -0.000 C 
ENDBRANCH  17  18
BRANCH  17  24
ATOM     24  N   UNL     1     -36.956  21.754   0.725  0.00  0.00    -0.092 NA
BRANCH  24  25
ATOM     25  N   UNL     1     -37.875  21.166   1.587  0.00  0.00    -0.145 NA
BRANCH  25  28
ATOM     26  N   UNL     1     -39.306  22.993   0.992  0.00  0.00    -0.369 N 
ATOM     27  N   UNL     1     -40.133  21.221   2.174  0.00  0.00    -0.369 N 
ATOM     28  C   UNL     1     -39.030  21.777   1.573  0.00  0.00    +0.207 C 
ATOM     29  H   UNL     1     -38.594  23.490   0.528  0.00  0.00    +0.159 HD
ATOM     30  H   UNL     1     -40.216  23.366   1.038  0.00  0.00    +0.159 HD
ATOM     31  H   UNL     1     -40.061  20.348   2.625  0.00  0.00    +0.159 HD
ATOM     32  H   UNL     1     -40.996  21.694   2.154  0.00  0.00    +0.159 HD
ENDBRANCH  25  28
ENDBRANCH  24  25
ENDBRANCH  17  24
ENDBRANCH   1  17
TORSDOF 9
ENDMDL
MODEL 5
REMARK VINA RESULT:      -5.9      1.759      5.500
REMARK  Name = 54603313
REMARK  9 active torsions:
REMARK  status: ('A' for Active; 'I' for Inactive)
REMARK    1  A    between atoms: N_1  and  C_2
REMARK    2  A    between atoms: N_1  and  N_3
REMARK    3  A    between atoms: C_2  and  C_11
REMARK    4  A    between atoms: C_2  and  C_18
REMARK    5  A    between atoms: N_3  and  C_6
REMARK    6  A    between atoms: N_17  and  C_18
REMARK    7  A    between atoms: N_17  and  N_19
REMARK    8  A    between atoms: C_18  and  C_27
REMARK    9  A    between atoms: N_19  and  C_22
REMARK                            x       y       z     vdW  Elec       q    Type
REMARK                         _______ _______ _______ _____ _____    ______ ____
ROOT
ATOM      1  C   UNL     1     -35.953  22.035   1.393  0.00  0.00    +0.142 C 
ENDROOT
BRANCH   1   2
ATOM      2  C   UNL     1     -34.742  21.228   1.078  0.00  0.00    -0.003 C 
ATOM      3  C   UNL     1     -33.729  21.770   0.287  0.00  0.00    -0.003 C 
ATOM      4  C   UNL     1     -34.622  19.929   1.572  0.00  0.00    -0.003 C 
ATOM      5  C   UNL     1     -32.595  21.013  -0.010  0.00  0.00    -0.000 C 
ATOM      6  C   UNL     1     -33.487  19.172   1.276  0.00  0.00    -0.000 C 
ATOM      7  C   UNL     1     -32.474  19.714   0.485  0.00  0.00    -0.000 C 
ENDBRANCH   1   2
BRANCH   1   8
ATOM      8  N   UNL     1     -37.105  21.732   0.873  0.00  0.00    -0.092 NA
BRANCH   8   9
ATOM      9  N   UNL     1     -38.024  21.219   1.784  0.00  0.00    -0.145 NA
BRANCH   9  12
ATOM     10  N   UNL     1     -39.507  23.013   2.352  0.00  0.00    -0.369 N 
ATOM     11  N   UNL     1     -40.216  21.321   0.989  0.00  0.00    -0.369 N 
ATOM     12  C   UNL     1     -39.175  21.834   1.726  0.00  0.00    +0.207 C 
ATOM     13  H   UNL     1     -38.843  23.478   2.911  0.00  0.00    +0.159 HD
ATOM     14  H   UNL     1     -40.409  23.393   2.243  0.00  0.00    +0.159 HD
ATOM     15  H   UNL     1     -40.099  20.479   0.494  0.00  0.00    +0.159 HD
ATOM     16  H   UNL     1     -41.076  21.797   0.956  0.00  0.00    +0.159 HD
ENDBRANCH   9  12
ENDBRANCH   8   9
ENDBRANCH   1   8
BRANCH   1  17
ATOM     17  C   UNL     1     -35.822  23.218   2.335  0.00  0.00    +0.142 C 
BRANCH  17  18
ATOM     18  C   UNL     1     -35.592  22.963   3.783  0.00  0.00    -0.003 C 
ATOM     19  C   UNL     1     -35.457  24.033   4.668  0.00  0.00    -0.003 C 
ATOM     20  C   UNL     1     -35.510  21.653   4.257  0.00  0.00    -0.003 C 
ATOM     21  C   UNL     1     -35.240  23.794   6.025  0.00  0.00    -0.000 C 
ATOM     22  C   UNL     1     -35.293  21.414   5.614  0.00  0.00    -0.000 C 
ATOM     23  C   UNL     1     -35.158  22.484   6.498  0.00  0.00    -0.000 C 
ENDBRANCH  17  18
BRANCH  17  24
ATOM     24  N   UNL     1     -35.906  24.433   1.881  0.00  0.00    -0.092 NA
BRANCH  24  25
ATOM     25  N   UNL     1     -37.204  24.923   1.798  0.00  0.00    -0.145 NA
BRANCH  25  28
ATOM     26  N   UNL     1     -36.696  27.221   2.246  0.00  0.00    -0.369 N 
ATOM     27  N   UNL     1     -38.251  26.118   3.506  0.00  0.00    -0.369 N 
ATOM     28  C   UNL     1     -37.359  26.035   2.466  0.00  0.00    +0.207 C 
ATOM     29  H   UNL     1     -36.030  27.286   1.524  0.00  0.00    +0.159 HD
ATOM     30  H   UNL     1     -36.889  28.005   2.810  0.00  0.00    +0.159 HD
ATOM     31  H   UNL     1     -38.787  25.332   3.760  0.00  0.00    +0.159 HD
ATOM     32  H   UNL     1     -38.356  26.964   4.000  0.00  0.00    +0.159 HD
ENDBRANCH  25  28
ENDBRANCH  24  25
ENDBRANCH  17  24
ENDBRANCH   1  17
TORSDOF 9
ENDMDL
MODEL 6
REMARK VINA RESULT:      -5.8      4.092      6.203
REMARK  Name = 54603313
REMARK  9 active torsions:
REMARK  status: ('A' for Active; 'I' for Inactive)
REMARK    1  A    between atoms: N_1  and  C_2
REMARK    2  A    between atoms: N_1  and  N_3
REMARK    3  A    between atoms: C_2  and  C_11
REMARK    4  A    between atoms: C_2  and  C_18
REMARK    5  A    between atoms: N_3  and  C_6
REMARK    6  A    between atoms: N_17  and  C_18
REMARK    7  A    between atoms: N_17  and  N_19
REMARK    8  A    between atoms: C_18  and  C_27
REMARK    9  A    between atoms: N_19  and  C_22
REMARK                            x       y       z     vdW  Elec       q    Type
REMARK                         _______ _______ _______ _____ _____    ______ ____
ROOT
ATOM      1  C   UNL     1     -34.436  25.889   3.714  0.00  0.00    +0.142 C 
ENDROOT
BRANCH   1   2
ATOM      2  C   UNL     1     -33.608  26.683   4.664  0.00  0.00    -0.003 C 
ATOM      3  C   UNL     1     -32.814  27.728   4.191  0.00  0.00    -0.003 C 
ATOM      4  C   UNL     1     -33.623  26.379   6.025  0.00  0.00    -0.003 C 
ATOM      5  C   UNL     1     -32.036  28.470   5.080  0.00  0.00    -0.000 C 
ATOM      6  C   UNL     1     -32.846  27.122   6.915  0.00  0.00    -0.000 C 
ATOM      7  C   UNL     1     -32.052  28.168   6.442  0.00  0.00    -0.000 C 
ENDBRANCH   1   2
BRANCH   1   8
ATOM      8  N   UNL     1     -34.137  25.845   2.450  0.00  0.00    -0.092 NA
BRANCH   8   9
ATOM      9  N   UNL     1     -35.195  26.157   1.603  0.00  0.00    -0.145 NA
BRANCH   9  12
ATOM     10  N   UNL     1     -34.485  28.298   0.794  0.00  0.00    -0.369 N 
ATOM     11  N   UNL     1     -36.439  28.099   1.964  0.00  0.00    -0.369 N 
ATOM     12  C   UNL     1     -35.344  27.446   1.450  0.00  0.00    +0.207 C 
ATOM     13  H   UNL     1     -33.662  27.947   0.382  0.00  0.00    +0.159 HD
ATOM     14  H   UNL     1     -34.692  29.259   0.737  0.00  0.00    +0.159 HD
ATOM     15  H   UNL     1     -37.126  27.595   2.455  0.00  0.00    +0.159 HD
ATOM     16  H   UNL     1     -36.535  29.070   1.839  0.00  0.00    +0.159 HD
ENDBRANCH   9  12
ENDBRANCH   8   9
ENDBRANCH   1   8
BRANCH   1  17
ATOM     17  C   UNL     1     -35.637  25.128   4.247  0.00  0.00    +0.142 C 
BRANCH  17  18
ATOM     18  C   UNL     1     -35.472  23.697   4.624  0.00  0.00    -0.003 C 
ATOM     19  C   UNL     1     -35.348  23.340   5.967  0.00  0.00    -0.003 C 
ATOM     20  C   UNL     1     -35.441  22.713   3.636  0.00  0.00    -0.003 C 
ATOM     21  C   UNL     1     -35.192  22.000   6.322  0.00  0.00    -0.000 C 
ATOM     22  C   UNL     1     -35.285  21.373   3.990  0.00  0.00    -0.000 C 
ATOM     23  C   UNL     1     -35.161  21.017   5.332  0.00  0.00    -0.000 C 
ENDBRANCH  17  18
BRANCH  17  24
ATOM     24  N   UNL     1     -36.787  25.719   4.374  0.00  0.00    -0.092 NA
BRANCH  24  25
ATOM     25  N   UNL     1     -37.880  24.904   4.099  0.00  0.00    -0.145 NA
BRANCH  25  28
ATOM     26  N   UNL     1     -38.262  25.082   1.740  0.00  0.00    -0.369 N 
ATOM     27  N   UNL     1     -39.698  26.071   3.217  0.00  0.00    -0.369 N 
ATOM     28  C   UNL     1     -38.560  25.319   3.062  0.00  0.00    +0.207 C 
ATOM     29  H   UNL     1     -37.467  24.552   1.502  0.00  0.00    +0.159 HD
ATOM     30  H   UNL     1     -38.844  25.442   1.032  0.00  0.00    +0.159 HD
ATOM     31  H   UNL     1     -40.014  26.307   4.119  0.00  0.00    +0.159 HD
ATOM     32  H   UNL     1     -40.198  26.376   2.426  0.00  0.00    +0.159 HD
ENDBRANCH  25  28
ENDBRANCH  24  25
ENDBRANCH  17  24
ENDBRANCH   1  17
TORSDOF 9
ENDMDL
MODEL 7
REMARK VINA RESULT:      -5.7      2.577      6.040
REMARK  Name = 54603313
REMARK  9 active torsions:
REMARK  status: ('A' for Active; 'I' for Inactive)
REMARK    1  A    between atoms: N_1  and  C_2
REMARK    2  A    between atoms: N_1  and  N_3
REMARK    3  A    between atoms: C_2  and  C_11
REMARK    4  A    between atoms: C_2  and  C_18
REMARK    5  A    between atoms: N_3  and  C_6
REMARK    6  A    between atoms: N_17  and  C_18
REMARK    7  A    between atoms: N_17  and  N_19
REMARK    8  A    between atoms: C_18  and  C_27
REMARK    9  A    between atoms: N_19  and  C_22
REMARK                            x       y       z     vdW  Elec       q    Type
REMARK                         _______ _______ _______ _____ _____    ______ ____
ROOT
ATOM      1  C   UNL     1     -35.770  21.430   2.690  0.00  0.00    +0.142 C 
ENDROOT
BRANCH   1   2
ATOM      2  C   UNL     1     -34.715  21.026   1.720  0.00  0.00    -0.003 C 
ATOM      3  C   UNL     1     -34.236  19.715   1.717  0.00  0.00    -0.003 C 
ATOM      4  C   UNL     1     -34.204  21.957   0.817  0.00  0.00    -0.003 C 
ATOM      5  C   UNL     1     -33.246  19.337   0.810  0.00  0.00    -0.000 C 
ATOM      6  C   UNL     1     -33.215  21.578  -0.092  0.00  0.00    -0.000 C 
ATOM      7  C   UNL     1     -32.736  20.268  -0.094  0.00  0.00    -0.000 C 
ENDBRANCH   1   2
BRANCH   1   8
ATOM      8  N   UNL     1     -35.936  20.774   3.801  0.00  0.00    -0.092 NA
BRANCH   8   9
ATOM      9  N   UNL     1     -34.936  20.989   4.743  0.00  0.00    -0.145 NA
BRANCH   9  12
ATOM     10  N   UNL     1     -34.571  23.238   5.486  0.00  0.00    -0.369 N 
ATOM     11  N   UNL     1     -36.168  21.941   6.482  0.00  0.00    -0.369 N 
ATOM     12  C   UNL     1     -35.194  22.011   5.516  0.00  0.00    +0.207 C 
ATOM     13  H   UNL     1     -33.853  23.410   4.835  0.00  0.00    +0.159 HD
ATOM     14  H   UNL     1     -34.843  23.944   6.117  0.00  0.00    +0.159 HD
ATOM     15  H   UNL     1     -36.685  21.112   6.599  0.00  0.00    +0.159 HD
ATOM     16  H   UNL     1     -36.349  22.720   7.055  0.00  0.00    +0.159 HD
ENDBRANCH   9  12
ENDBRANCH   8   9
ENDBRANCH   1   8
BRANCH   1  17
ATOM     17  C   UNL     1     -36.649  22.624   2.364  0.00  0.00    +0.142 C 
BRANCH  17  18
ATOM     18  C   UNL     1     -37.793  22.441   1.430  0.00  0.00    -0.003 C 
ATOM     19  C   UNL     1     -37.866  23.196   0.259  0.00  0.00    -0.003 C 
ATOM     20  C   UNL     1     -38.794  21.515   1.724  0.00  0.00    -0.003 C 
ATOM     21  C   UNL     1     -38.938  23.026  -0.616  0.00  0.00    -0.000 C 
ATOM     22  C   UNL     1     -39.867  21.345   0.849  0.00  0.00    -0.000 C 
ATOM     23  C   UNL     1     -39.939  22.100  -0.320  0.00  0.00    -0.000 C 
ENDBRANCH  17  18
BRANCH  17  24
ATOM     24  N   UNL     1     -36.406  23.785   2.896  0.00  0.00    -0.092 NA
BRANCH  24  25
ATOM     25  N   UNL     1     -37.212  24.091   3.986  0.00  0.00    -0.145 NA
BRANCH  25  28
ATOM     26  N   UNL     1     -36.651  26.131   5.111  0.00  0.00    -0.369 N 
ATOM     27  N   UNL     1     -38.173  26.137   3.406  0.00  0.00    -0.369 N 
ATOM     28  C   UNL     1     -37.324  25.380   4.174  0.00  0.00    +0.207 C 
ATOM     29  H   UNL     1     -36.012  25.699   5.722  0.00  0.00    +0.159 HD
ATOM     30  H   UNL     1     -36.809  27.102   5.169  0.00  0.00    +0.159 HD
ATOM     31  H   UNL     1     -38.711  25.711   2.700  0.00  0.00    +0.159 HD
ATOM     32  H   UNL     1     -38.246  27.107   3.561  0.00  0.00    +0.159 HD
ENDBRANCH  25  28
ENDBRANCH  24  25
ENDBRANCH  17  24
ENDBRANCH   1  17
TORSDOF 9
ENDMDL
MODEL 8
REMARK VINA RESULT:      -5.7      1.739      2.826
REMARK  Name = 54603313
REMARK  9 active torsions:
REMARK  status: ('A' for Active; 'I' for Inactive)
REMARK    1  A    between atoms: N_1  and  C_2
REMARK    2  A    between atoms: N_1  and  N_3
REMARK    3  A    between atoms: C_2  and  C_11
REMARK    4  A    between atoms: C_2  and  C_18
REMARK    5  A    between atoms: N_3  and  C_6
REMARK    6  A    between atoms: N_17  and  C_18
REMARK    7  A    between atoms: N_17  and  N_19
REMARK    8  A    between atoms: C_18  and  C_27
REMARK    9  A    between atoms: N_19  and  C_22
REMARK                            x       y       z     vdW  Elec       q    Type
REMARK                         _______ _______ _______ _____ _____    ______ ____
ROOT
ATOM      1  C   UNL     1     -36.961  23.026   2.553  0.00  0.00    +0.142 C 
ENDROOT
BRANCH   1   2
ATOM      2  C   UNL     1     -35.975  23.352   3.622  0.00  0.00    -0.003 C 
ATOM      3  C   UNL     1     -35.937  22.591   4.790  0.00  0.00    -0.003 C 
ATOM      4  C   UNL     1     -35.094  24.419   3.455  0.00  0.00    -0.003 C 
ATOM      5  C   UNL     1     -35.016  22.897   5.792  0.00  0.00    -0.000 C 
ATOM      6  C   UNL     1     -34.171  24.724   4.456  0.00  0.00    -0.000 C 
ATOM      7  C   UNL     1     -34.133  23.963   5.625  0.00  0.00    -0.000 C 
ENDBRANCH   1   2
BRANCH   1   8
ATOM      8  N   UNL     1     -37.874  23.885   2.209  0.00  0.00    -0.092 NA
BRANCH   8   9
ATOM      9  N   UNL     1     -38.905  24.022   3.134  0.00  0.00    -0.145 NA
BRANCH   9  12
ATOM     10  N   UNL     1     -40.437  25.790   3.648  0.00  0.00    -0.369 N 
ATOM     11  N   UNL     1     -38.212  26.237   3.375  0.00  0.00    -0.369 N 
ATOM     12  C   UNL     1     -39.192  25.273   3.375  0.00  0.00    +0.207 C 
ATOM     13  H   UNL     1     -41.222  25.196   3.675  0.00  0.00    +0.159 HD
ATOM     14  H   UNL     1     -40.545  26.755   3.815  0.00  0.00    +0.159 HD
ATOM     15  H   UNL     1     -37.278  25.989   3.193  0.00  0.00    +0.159 HD
ATOM     16  H   UNL     1     -38.446  27.175   3.558  0.00  0.00    +0.159 HD
ENDBRANCH   9  12
ENDBRANCH   8   9
ENDBRANCH   1   8
BRANCH   1  17
ATOM     17  C   UNL     1     -36.881  21.675   1.868  0.00  0.00    +0.142 C 
BRANCH  17  18
ATOM     18  C   UNL     1     -35.554  21.179   1.407  0.00  0.00    -0.003 C 
ATOM     19  C   UNL     1     -34.807  21.928   0.497  0.00  0.00    -0.003 C 
ATOM     20  C   UNL     1     -35.058  19.965   1.884  0.00  0.00    -0.003 C 
ATOM     21  C   UNL     1     -33.565  21.463   0.065  0.00  0.00    -0.000 C 
ATOM     22  C   UNL     1     -33.816  19.501   1.451  0.00  0.00    -0.000 C 
ATOM     23  C   UNL     1     -33.070  20.249   0.542  0.00  0.00    -0.000 C 
ENDBRANCH  17  18
BRANCH  17  24
ATOM     24  N   UNL     1     -37.953  20.962   1.691  0.00  0.00    -0.092 NA
BRANCH  24  25
ATOM     25  N   UNL     1     -38.464  21.012   0.399  0.00  0.00    -0.145 NA
BRANCH  25  28
ATOM     26  N   UNL     1     -40.406  22.082   1.309  0.00  0.00    -0.369 N 
ATOM     27  N   UNL     1     -40.553  20.887  -0.634  0.00  0.00    -0.369 N 
ATOM     28  C   UNL     1     -39.734  21.322   0.379  0.00  0.00    +0.207 C 
ATOM     29  H   UNL     1     -39.924  22.451   2.083  0.00  0.00    +0.159 HD
ATOM     30  H   UNL     1     -41.368  22.256   1.199  0.00  0.00    +0.159 HD
ATOM     31  H   UNL     1     -40.187  20.333  -1.361  0.00  0.00    +0.159 HD
ATOM     32  H   UNL     1     -41.507  21.129  -0.633  0.00  0.00    +0.159 HD
ENDBRANCH  25  28
ENDBRANCH  24  25
ENDBRANCH  17  24
ENDBRANCH   1  17
TORSDOF 9
ENDMDL
MODEL 9
REMARK VINA RESULT:      -5.6      1.763      5.106
REMARK  Name = 54603313
REMARK  9 active torsions:
REMARK  status: ('A' for Active; 'I' for Inactive)
REMARK    1  A    between atoms: N_1  and  C_2
REMARK    2  A    between atoms: N_1  and  N_3
REMARK    3  A    between atoms: C_2  and  C_11
REMARK    4  A    between atoms: C_2  and  C_18
REMARK    5  A    between atoms: N_3  and  C_6
REMARK    6  A    between atoms: N_17  and  C_18
REMARK    7  A    between atoms: N_17  and  N_19
REMARK    8  A    between atoms: C_18  and  C_27
REMARK    9  A    between atoms: N_19  and  C_22
REMARK                            x       y       z     vdW  Elec       q    Type
REMARK                         _______ _______ _______ _____ _____    ______ ____
ROOT
ATOM      1  C   UNL     1     -36.451  20.064   0.377  0.00  0.00    +0.142 C 
ENDROOT
BRANCH   1   2
ATOM      2  C   UNL     1     -36.572  18.861  -0.492  0.00  0.00    -0.003 C 
ATOM      3  C   UNL     1     -37.136  17.689   0.014  0.00  0.00    -0.003 C 
ATOM      4  C   UNL     1     -36.118  18.903  -1.810  0.00  0.00    -0.003 C 
ATOM      5  C   UNL     1     -37.248  16.561  -0.799  0.00  0.00    -0.000 C 
ATOM      6  C   UNL     1     -36.230  17.776  -2.624  0.00  0.00    -0.000 C 
ATOM      7  C   UNL     1     -36.795  16.604  -2.118  0.00  0.00    -0.000 C 
ENDBRANCH   1   2
BRANCH   1   8
ATOM      8  N   UNL     1     -37.244  21.081   0.215  0.00  0.00    -0.092 NA
BRANCH   8   9
ATOM      9  N   UNL     1     -38.578  20.815   0.510  0.00  0.00    -0.145 NA
BRANCH   9  12
ATOM     10  N   UNL     1     -40.160  21.254   2.255  0.00  0.00    -0.369 N 
ATOM     11  N   UNL     1     -38.256  22.508   2.084  0.00  0.00    -0.369 N 
ATOM     12  C   UNL     1     -38.994  21.475   1.559  0.00  0.00    +0.207 C 
ATOM     13  H   UNL     1     -40.774  20.539   1.974  0.00  0.00    +0.159 HD
ATOM     14  H   UNL     1     -40.380  21.813   3.036  0.00  0.00    +0.159 HD
ATOM     15  H   UNL     1     -37.400  22.760   1.671  0.00  0.00    +0.159 HD
ATOM     16  H   UNL     1     -38.585  22.994   2.874  0.00  0.00    +0.159 HD
ENDBRANCH   9  12
ENDBRANCH   8   9
ENDBRANCH   1   8
BRANCH   1  17
ATOM     17  C   UNL     1     -35.387  20.085   1.459  0.00  0.00    +0.142 C 
BRANCH  17  18
ATOM     18  C   UNL     1     -33.973  19.808   1.083  0.00  0.00    -0.003 C 
ATOM     19  C   UNL     1     -33.260  20.732   0.319  0.00  0.00    -0.003 C 
ATOM     20  C   UNL     1     -33.360  18.623   1.494  0.00  0.00    -0.003 C 
ATOM     21  C   UNL     1     -31.936  20.472  -0.034  0.00  0.00    -0.000 C 
ATOM     22  C   UNL     1     -32.036  18.364   1.140  0.00  0.00    -0.000 C 
ATOM     23  C   UNL     1     -31.324  19.287   0.377  0.00  0.00    -0.000 C 
ENDBRANCH  17  18
BRANCH  17  24
ATOM     24  N   UNL     1     -35.707  20.344   2.692  0.00  0.00    -0.092 NA
BRANCH  24  25
ATOM     25  N   UNL     1     -35.373  21.628   3.108  0.00  0.00    -0.145 NA
BRANCH  25  28
ATOM     26  N   UNL     1     -36.406  22.791   4.931  0.00  0.00    -0.369 N 
ATOM     27  N   UNL     1     -35.045  20.999   5.331  0.00  0.00    -0.369 N 
ATOM     28  C   UNL     1     -35.609  21.814   4.380  0.00  0.00    +0.207 C 
ATOM     29  H   UNL     1     -36.865  23.437   4.349  0.00  0.00    +0.159 HD
ATOM     30  H   UNL     1     -36.516  22.843   5.908  0.00  0.00    +0.159 HD
ATOM     31  H   UNL     1     -34.454  20.260   5.059  0.00  0.00    +0.159 HD
ATOM     32  H   UNL     1     -35.233  21.153   6.285  0.00  0.00    +0.159 HD
ENDBRANCH  25  28
ENDBRANCH  24  25
ENDBRANCH  17  24
ENDBRANCH   1  17
TORSDOF 9
ENDMDL
