MODEL 1
REMARK VINA RESULT:      -6.2      0.000      0.000
REMARK  Name = 5386960
REMARK  7 active torsions:
REMARK  status: ('A' for Active; 'I' for Inactive)
REMARK    1  A    between atoms: C_5  and  C_12
REMARK    2  A    between atoms: C_6  and  O_20
REMARK    3  A    between atoms: C_8  and  O_26
REMARK    4  A    between atoms: C_9  and  O_22
REMARK    5  A    between atoms: C_10  and  O_24
REMARK    6  A    between atoms: C_11  and  O_28
REMARK    7  A    between atoms: C_17  and  O_18
REMARK                            x       y       z     vdW  Elec       q    Type
REMARK                         _______ _______ _______ _____ _____    ______ ____
ROOT
ATOM      1  O   UNL     1     -35.286  22.155   2.087  0.00  0.00    -0.447 OA
ATOM      2  O   UNL     1     -38.890  20.750   0.808  0.00  0.00    -0.283 OA
ATOM      3  C   UNL     1     -37.702  22.378   2.032  0.00  0.00    +0.117 A 
ATOM      4  C   UNL     1     -36.441  22.805   2.439  0.00  0.00    +0.188 A 
ATOM      5  C   UNL     1     -35.379  21.029   1.284  0.00  0.00    +0.182 A 
ATOM      6  C   UNL     1     -36.312  23.941   3.240  0.00  0.00    +0.210 A 
ATOM      7  C   UNL     1     -37.809  21.177   1.191  0.00  0.00    +0.238 A 
ATOM      8  C   UNL     1     -38.845  23.080   2.423  0.00  0.00    +0.177 A 
ATOM      9  C   UNL     1     -36.534  20.508   0.833  0.00  0.00    +0.212 A 
ATOM     10  C   UNL     1     -38.715  24.216   3.225  0.00  0.00    +0.209 A 
ATOM     11  C   UNL     1     -37.451  24.645   3.632  0.00  0.00    +0.209 A 
ENDROOT
BRANCH   5  12
ATOM     12  C   UNL     1     -34.068  20.429   0.982  0.00  0.00    +0.038 C 
ATOM     13  C   UNL     1     -33.716  19.201   1.542  0.00  0.00    +0.006 C 
ATOM     14  C   UNL     1     -33.176  21.090   0.136  0.00  0.00    +0.006 C 
ATOM     15  C   UNL     1     -32.474  18.633   1.256  0.00  0.00    +0.037 C 
ATOM     16  C   UNL     1     -31.935  20.522  -0.150  0.00  0.00    +0.037 C 
ATOM     17  C   UNL     1     -31.583  19.294   0.410  0.00  0.00    +0.134 C 
BRANCH  17  18
ATOM     18  O   UNL     1     -30.372  18.740   0.131  0.00  0.00    -0.506 OA
ATOM     19  H   UNL     1     -30.255  18.241  -0.653  0.00  0.00    +0.292 HD
ENDBRANCH  17  18
ENDBRANCH   5  12
BRANCH   6  20
ATOM     20  O   UNL     1     -35.080  24.364   3.641  0.00  0.00    -0.465 OA
ATOM     21  C   UNL     1     -34.625  23.916   4.917  0.00  0.00    +0.253 C 
ENDBRANCH   6  20
BRANCH   9  22
ATOM     22  O   UNL     1     -36.596  19.367   0.062  0.00  0.00    -0.465 OA
ATOM     23  C   UNL     1     -36.552  19.687  -1.315  0.00  0.00    +0.253 C 
ENDBRANCH   9  22
BRANCH  10  24
ATOM     24  O   UNL     1     -39.824  24.908   3.612  0.00  0.00    -0.465 OA
ATOM     25  C   UNL     1     -40.260  25.961   2.755  0.00  0.00    +0.253 C 
ENDBRANCH  10  24
BRANCH   8  26
ATOM     26  O   UNL     1     -40.096  22.693   2.046  0.00  0.00    -0.503 OA
ATOM     27  H   UNL     1     -40.341  21.789   2.089  0.00  0.00    +0.292 HD
ENDBRANCH   8  26
BRANCH  11  28
ATOM     28  O   UNL     1     -37.329  25.755   4.416  0.00  0.00    -0.501 OA
ATOM     29  H   UNL     1     -36.576  26.306   4.333  0.00  0.00    +0.292 HD
ENDBRANCH  11  28
TORSDOF 7
ENDMDL
MODEL 2
REMARK VINA RESULT:      -6.1      1.379      1.819
REMARK  Name = 5386960
REMARK  7 active torsions:
REMARK  status: ('A' for Active; 'I' for Inactive)
REMARK    1  A    between atoms: C_5  and  C_12
REMARK    2  A    between atoms: C_6  and  O_20
REMARK    3  A    between atoms: C_8  and  O_26
REMARK    4  A    between atoms: C_9  and  O_22
REMARK    5  A    between atoms: C_10  and  O_24
REMARK    6  A    between atoms: C_11  and  O_28
REMARK    7  A    between atoms: C_17  and  O_18
REMARK                            x       y       z     vdW  Elec       q    Type
REMARK                         _______ _______ _______ _____ _____    ______ ____
ROOT
ATOM      1  O   UNL     1     -34.934  20.858   1.618  0.00  0.00    -0.447 OA
ATOM      2  O   UNL     1     -38.009  18.990  -0.294  0.00  0.00    -0.283 OA
ATOM      3  C   UNL     1     -37.312  20.716   1.155  0.00  0.00    +0.117 A 
ATOM      4  C   UNL     1     -36.218  21.308   1.782  0.00  0.00    +0.188 A 
ATOM      5  C   UNL     1     -34.714  19.772   0.785  0.00  0.00    +0.182 A 
ATOM      6  C   UNL     1     -36.405  22.408   2.620  0.00  0.00    +0.210 A 
ATOM      7  C   UNL     1     -37.088  19.556   0.279  0.00  0.00    +0.238 A 
ATOM      8  C   UNL     1     -38.600  21.217   1.359  0.00  0.00    +0.177 A 
ATOM      9  C   UNL     1     -35.682  19.106   0.130  0.00  0.00    +0.212 A 
ATOM     10  C   UNL     1     -38.785  22.318   2.198  0.00  0.00    +0.209 A 
ATOM     11  C   UNL     1     -37.689  22.912   2.827  0.00  0.00    +0.209 A 
ENDROOT
BRANCH   5  12
ATOM     12  C   UNL     1     -33.293  19.392   0.699  0.00  0.00    +0.038 C 
ATOM     13  C   UNL     1     -32.837  18.242   1.341  0.00  0.00    +0.006 C 
ATOM     14  C   UNL     1     -32.402  20.186  -0.025  0.00  0.00    +0.006 C 
ATOM     15  C   UNL     1     -31.492  17.882   1.260  0.00  0.00    +0.037 C 
ATOM     16  C   UNL     1     -31.057  19.826  -0.106  0.00  0.00    +0.037 C 
ATOM     17  C   UNL     1     -30.601  18.676   0.536  0.00  0.00    +0.134 C 
BRANCH  17  18
ATOM     18  O   UNL     1     -29.288  18.325   0.457  0.00  0.00    -0.506 OA
ATOM     19  H   UNL     1     -29.051  17.447   0.228  0.00  0.00    +0.292 HD
ENDBRANCH  17  18
ENDBRANCH   5  12
BRANCH   6  20
ATOM     20  O   UNL     1     -35.339  22.993   3.237  0.00  0.00    -0.465 OA
ATOM     21  C   UNL     1     -34.744  24.110   2.581  0.00  0.00    +0.253 C 
ENDBRANCH   6  20
BRANCH   9  22
ATOM     22  O   UNL     1     -35.435  18.009  -0.666  0.00  0.00    -0.465 OA
ATOM     23  C   UNL     1     -35.224  18.399  -2.009  0.00  0.00    +0.253 C 
ENDBRANCH   9  22
BRANCH  10  24
ATOM     24  O   UNL     1     -40.037  22.816   2.405  0.00  0.00    -0.465 OA
ATOM     25  C   UNL     1     -40.452  23.892   1.567  0.00  0.00    +0.253 C 
ENDBRANCH  10  24
BRANCH   8  26
ATOM     26  O   UNL     1     -39.694  20.665   0.764  0.00  0.00    -0.503 OA
ATOM     27  H   UNL     1     -39.663  20.420  -0.140  0.00  0.00    +0.292 HD
ENDBRANCH   8  26
BRANCH  11  28
ATOM     28  O   UNL     1     -37.876  23.987   3.646  0.00  0.00    -0.501 OA
ATOM     29  H   UNL     1     -38.706  24.123   4.059  0.00  0.00    +0.292 HD
ENDBRANCH  11  28
TORSDOF 7
ENDMDL
MODEL 3
REMARK VINA RESULT:      -6.1      4.539      6.907
REMARK  Name = 5386960
REMARK  7 active torsions:
REMARK  status: ('A' for Active; 'I' for Inactive)
REMARK    1  A    between atoms: C_5  and  C_12
REMARK    2  A    between atoms: C_6  and  O_20
REMARK    3  A    between atoms: C_8  and  O_26
REMARK    4  A    between atoms: C_9  and  O_22
REMARK    5  A    between atoms: C_10  and  O_24
REMARK    6  A    between atoms: C_11  and  O_28
REMARK    7  A    between atoms: C_17  and  O_18
REMARK                            x       y       z     vdW  Elec       q    Type
REMARK                         _______ _______ _______ _____ _____    ______ ____
ROOT
ATOM      1  O   UNL     1     -34.084  26.468   4.051  0.00  0.00    -0.447 OA
ATOM      2  O   UNL     1     -36.833  28.102   1.525  0.00  0.00    -0.283 OA
ATOM      3  C   UNL     1     -34.819  28.364   2.725  0.00  0.00    +0.117 A 
ATOM      4  C   UNL     1     -33.918  27.749   3.591  0.00  0.00    +0.188 A 
ATOM      5  C   UNL     1     -35.192  25.752   3.626  0.00  0.00    +0.182 A 
ATOM      6  C   UNL     1     -32.788  28.441   4.030  0.00  0.00    +0.210 A 
ATOM      7  C   UNL     1     -36.003  27.614   2.281  0.00  0.00    +0.238 A 
ATOM      8  C   UNL     1     -34.599  29.673   2.290  0.00  0.00    +0.177 A 
ATOM      9  C   UNL     1     -36.139  26.231   2.801  0.00  0.00    +0.212 A 
ATOM     10  C   UNL     1     -33.468  30.364   2.730  0.00  0.00    +0.209 A 
ATOM     11  C   UNL     1     -32.565  29.749   3.598  0.00  0.00    +0.209 A 
ENDROOT
BRANCH   5  12
ATOM     12  C   UNL     1     -35.248  24.393   4.194  0.00  0.00    +0.038 C 
ATOM     13  C   UNL     1     -35.224  23.282   3.351  0.00  0.00    +0.006 C 
ATOM     14  C   UNL     1     -35.328  24.218   5.576  0.00  0.00    +0.006 C 
ATOM     15  C   UNL     1     -35.278  21.996   3.889  0.00  0.00    +0.037 C 
ATOM     16  C   UNL     1     -35.381  22.932   6.114  0.00  0.00    +0.037 C 
ATOM     17  C   UNL     1     -35.357  21.821   5.272  0.00  0.00    +0.134 C 
BRANCH  17  18
ATOM     18  O   UNL     1     -35.409  20.566   5.796  0.00  0.00    -0.506 OA
ATOM     19  H   UNL     1     -35.459  20.448   6.724  0.00  0.00    +0.292 HD
ENDBRANCH  17  18
ENDBRANCH   5  12
BRANCH   6  20
ATOM     20  O   UNL     1     -31.902  27.845   4.878  0.00  0.00    -0.465 OA
ATOM     21  C   UNL     1     -32.109  28.045   6.275  0.00  0.00    +0.253 C 
ENDBRANCH   6  20
BRANCH   9  22
ATOM     22  O   UNL     1     -37.247  25.504   2.423  0.00  0.00    -0.465 OA
ATOM     23  C   UNL     1     -38.347  25.787   3.265  0.00  0.00    +0.253 C 
ENDBRANCH   9  22
BRANCH  10  24
ATOM     24  O   UNL     1     -33.244  31.642   2.313  0.00  0.00    -0.465 OA
ATOM     25  C   UNL     1     -32.457  31.809   1.136  0.00  0.00    +0.253 C 
ENDBRANCH  10  24
BRANCH   8  26
ATOM     26  O   UNL     1     -35.457  30.308   1.444  0.00  0.00    -0.503 OA
ATOM     27  H   UNL     1     -35.128  30.918   0.812  0.00  0.00    +0.292 HD
ENDBRANCH   8  26
BRANCH  11  28
ATOM     28  O   UNL     1     -31.462  30.428   4.026  0.00  0.00    -0.501 OA
ATOM     29  H   UNL     1     -31.433  30.774   4.896  0.00  0.00    +0.292 HD
ENDBRANCH  11  28
TORSDOF 7
ENDMDL
MODEL 4
REMARK VINA RESULT:      -6.0      1.857      5.960
REMARK  Name = 5386960
REMARK  7 active torsions:
REMARK  status: ('A' for Active; 'I' for Inactive)
REMARK    1  A    between atoms: C_5  and  C_12
REMARK    2  A    between atoms: C_6  and  O_20
REMARK    3  A    between atoms: C_8  and  O_26
REMARK    4  A    between atoms: C_9  and  O_22
REMARK    5  A    between atoms: C_10  and  O_24
REMARK    6  A    between atoms: C_11  and  O_28
REMARK    7  A    between atoms: C_17  and  O_18
REMARK                            x       y       z     vdW  Elec       q    Type
REMARK                         _______ _______ _______ _____ _____    ______ ____
ROOT
ATOM      1  O   UNL     1     -36.280  22.603   2.213  0.00  0.00    -0.447 OA
ATOM      2  O   UNL     1     -40.333  23.021   2.206  0.00  0.00    -0.283 OA
ATOM      3  C   UNL     1     -38.447  21.831   1.438  0.00  0.00    +0.117 A 
ATOM      4  C   UNL     1     -37.057  21.744   1.480  0.00  0.00    +0.188 A 
ATOM      5  C   UNL     1     -36.906  23.595   2.951  0.00  0.00    +0.182 A 
ATOM      6  C   UNL     1     -36.398  20.750   0.756  0.00  0.00    +0.210 A 
ATOM      7  C   UNL     1     -39.116  22.890   2.209  0.00  0.00    +0.238 A 
ATOM      8  C   UNL     1     -39.188  20.928   0.673  0.00  0.00    +0.177 A 
ATOM      9  C   UNL     1     -38.236  23.794   2.988  0.00  0.00    +0.212 A 
ATOM     10  C   UNL     1     -38.526  19.935  -0.052  0.00  0.00    +0.209 A 
ATOM     11  C   UNL     1     -37.134  19.846  -0.010  0.00  0.00    +0.209 A 
ENDROOT
BRANCH   5  12
ATOM     12  C   UNL     1     -35.956  24.447   3.690  0.00  0.00    +0.038 C 
ATOM     13  C   UNL     1     -35.371  25.547   3.064  0.00  0.00    +0.006 C 
ATOM     14  C   UNL     1     -35.642  24.151   5.017  0.00  0.00    +0.006 C 
ATOM     15  C   UNL     1     -34.473  26.353   3.763  0.00  0.00    +0.037 C 
ATOM     16  C   UNL     1     -34.743  24.957   5.716  0.00  0.00    +0.037 C 
ATOM     17  C   UNL     1     -34.158  26.057   5.090  0.00  0.00    +0.134 C 
BRANCH  17  18
ATOM     18  O   UNL     1     -33.282  26.844   5.772  0.00  0.00    -0.506 OA
ATOM     19  H   UNL     1     -32.699  27.409   5.304  0.00  0.00    +0.292 HD
ENDBRANCH  17  18
ENDBRANCH   5  12
BRANCH   6  20
ATOM     20  O   UNL     1     -35.038  20.659   0.793  0.00  0.00    -0.465 OA
ATOM     21  C   UNL     1     -34.472  19.837   1.812  0.00  0.00    +0.253 C 
ENDBRANCH   6  20
BRANCH   9  22
ATOM     22  O   UNL     1     -38.826  24.811   3.707  0.00  0.00    -0.465 OA
ATOM     23  C   UNL     1     -39.098  25.923   2.876  0.00  0.00    +0.253 C 
ENDBRANCH   9  22
BRANCH  10  24
ATOM     24  O   UNL     1     -39.240  19.048  -0.803  0.00  0.00    -0.465 OA
ATOM     25  C   UNL     1     -39.500  19.411  -2.157  0.00  0.00    +0.253 C 
ENDBRANCH  10  24
BRANCH   8  26
ATOM     26  O   UNL     1     -40.548  20.982   0.605  0.00  0.00    -0.503 OA
ATOM     27  H   UNL     1     -41.048  20.189   0.576  0.00  0.00    +0.292 HD
ENDBRANCH   8  26
BRANCH  11  28
ATOM     28  O   UNL     1     -36.493  18.874  -0.720  0.00  0.00    -0.501 OA
ATOM     29  H   UNL     1     -36.978  18.324  -1.304  0.00  0.00    +0.292 HD
ENDBRANCH  11  28
TORSDOF 7
ENDMDL
MODEL 5
REMARK VINA RESULT:      -5.9      1.782      6.066
REMARK  Name = 5386960
REMARK  7 active torsions:
REMARK  status: ('A' for Active; 'I' for Inactive)
REMARK    1  A    between atoms: C_5  and  C_12
REMARK    2  A    between atoms: C_6  and  O_20
REMARK    3  A    between atoms: C_8  and  O_26
REMARK    4  A    between atoms: C_9  and  O_22
REMARK    5  A    between atoms: C_10  and  O_24
REMARK    6  A    between atoms: C_11  and  O_28
REMARK    7  A    between atoms: C_17  and  O_18
REMARK                            x       y       z     vdW  Elec       q    Type
REMARK                         _______ _______ _______ _____ _____    ______ ____
ROOT
ATOM      1  O   UNL     1     -35.254  21.608   2.266  0.00  0.00    -0.447 OA
ATOM      2  O   UNL     1     -39.250  21.556   1.468  0.00  0.00    -0.283 OA
ATOM      3  C   UNL     1     -37.137  20.554   1.155  0.00  0.00    +0.117 A 
ATOM      4  C   UNL     1     -35.781  20.630   1.463  0.00  0.00    +0.188 A 
ATOM      5  C   UNL     1     -36.111  22.557   2.801  0.00  0.00    +0.182 A 
ATOM      6  C   UNL     1     -34.894  19.683   0.948  0.00  0.00    +0.210 A 
ATOM      7  C   UNL     1     -38.050  21.566   1.709  0.00  0.00    +0.238 A 
ATOM      8  C   UNL     1     -37.618  19.535   0.330  0.00  0.00    +0.177 A 
ATOM      9  C   UNL     1     -37.435  22.603   2.574  0.00  0.00    +0.212 A 
ATOM     10  C   UNL     1     -36.729  18.589  -0.186  0.00  0.00    +0.209 A 
ATOM     11  C   UNL     1     -35.370  18.664   0.124  0.00  0.00    +0.209 A 
ENDROOT
BRANCH   5  12
ATOM     12  C   UNL     1     -35.416  23.548   3.642  0.00  0.00    +0.038 C 
ATOM     13  C   UNL     1     -35.508  23.472   5.032  0.00  0.00    +0.006 C 
ATOM     14  C   UNL     1     -34.666  24.564   3.048  0.00  0.00    +0.006 C 
ATOM     15  C   UNL     1     -34.850  24.411   5.828  0.00  0.00    +0.037 C 
ATOM     16  C   UNL     1     -34.009  25.502   3.844  0.00  0.00    +0.037 C 
ATOM     17  C   UNL     1     -34.100  25.426   5.233  0.00  0.00    +0.134 C 
BRANCH  17  18
ATOM     18  O   UNL     1     -33.459  26.341   6.010  0.00  0.00    -0.506 OA
ATOM     19  H   UNL     1     -32.896  26.978   5.615  0.00  0.00    +0.292 HD
ENDBRANCH  17  18
ENDBRANCH   5  12
BRANCH   6  20
ATOM     20  O   UNL     1     -33.565  19.751   1.246  0.00  0.00    -0.465 OA
ATOM     21  C   UNL     1     -32.720  20.390   0.292  0.00  0.00    +0.253 C 
ENDBRANCH   6  20
BRANCH   9  22
ATOM     22  O   UNL     1     -38.256  23.580   3.095  0.00  0.00    -0.465 OA
ATOM     23  C   UNL     1     -38.380  24.665   2.196  0.00  0.00    +0.253 C 
ENDBRANCH   9  22
BRANCH  10  24
ATOM     24  O   UNL     1     -37.187  17.590  -0.992  0.00  0.00    -0.465 OA
ATOM     25  C   UNL     1     -37.640  16.399  -0.353  0.00  0.00    +0.253 C 
ENDBRANCH  10  24
BRANCH   8  26
ATOM     26  O   UNL     1     -38.937  19.429   0.004  0.00  0.00    -0.503 OA
ATOM     27  H   UNL     1     -39.527  18.979   0.578  0.00  0.00    +0.292 HD
ENDBRANCH   8  26
BRANCH  11  28
ATOM     28  O   UNL     1     -34.506  17.737  -0.383  0.00  0.00    -0.501 OA
ATOM     29  H   UNL     1     -34.340  17.707  -1.305  0.00  0.00    +0.292 HD
ENDBRANCH  11  28
TORSDOF 7
ENDMDL
MODEL 6
REMARK VINA RESULT:      -5.8      4.159      6.171
REMARK  Name = 5386960
REMARK  7 active torsions:
REMARK  status: ('A' for Active; 'I' for Inactive)
REMARK    1  A    between atoms: C_5  and  C_12
REMARK    2  A    between atoms: C_6  and  O_20
REMARK    3  A    between atoms: C_8  and  O_26
REMARK    4  A    between atoms: C_9  and  O_22
REMARK    5  A    between atoms: C_10  and  O_24
REMARK    6  A    between atoms: C_11  and  O_28
REMARK    7  A    between atoms: C_17  and  O_18
REMARK                            x       y       z     vdW  Elec       q    Type
REMARK                         _______ _______ _______ _____ _____    ______ ____
ROOT
ATOM      1  O   UNL     1     -35.045  26.314   3.276  0.00  0.00    -0.447 OA
ATOM      2  O   UNL     1     -38.358  27.196   1.074  0.00  0.00    -0.283 OA
ATOM      3  C   UNL     1     -36.259  27.896   1.891  0.00  0.00    +0.117 A 
ATOM      4  C   UNL     1     -35.155  27.534   2.659  0.00  0.00    +0.188 A 
ATOM      5  C   UNL     1     -36.073  25.399   3.119  0.00  0.00    +0.182 A 
ATOM      6  C   UNL     1     -34.099  28.431   2.828  0.00  0.00    +0.210 A 
ATOM      7  C   UNL     1     -37.360  26.933   1.731  0.00  0.00    +0.238 A 
ATOM      8  C   UNL     1     -36.318  29.153   1.287  0.00  0.00    +0.177 A 
ATOM      9  C   UNL     1     -37.196  25.626   2.414  0.00  0.00    +0.212 A 
ATOM     10  C   UNL     1     -35.260  30.049   1.457  0.00  0.00    +0.209 A 
ATOM     11  C   UNL     1     -34.153  29.688   2.226  0.00  0.00    +0.209 A 
ENDROOT
BRANCH   5  12
ATOM     12  C   UNL     1     -35.828  24.133   3.833  0.00  0.00    +0.038 C 
ATOM     13  C   UNL     1     -35.740  24.121   5.224  0.00  0.00    +0.006 C 
ATOM     14  C   UNL     1     -35.684  22.945   3.115  0.00  0.00    +0.006 C 
ATOM     15  C   UNL     1     -35.508  22.922   5.899  0.00  0.00    +0.037 C 
ATOM     16  C   UNL     1     -35.452  21.746   3.790  0.00  0.00    +0.037 C 
ATOM     17  C   UNL     1     -35.364  21.734   5.181  0.00  0.00    +0.134 C 
BRANCH  17  18
ATOM     18  O   UNL     1     -35.138  20.565   5.840  0.00  0.00    -0.506 OA
ATOM     19  H   UNL     1     -35.057  20.562   6.774  0.00  0.00    +0.292 HD
ENDBRANCH  17  18
ENDBRANCH   5  12
BRANCH   6  20
ATOM     20  O   UNL     1     -33.015  28.083   3.579  0.00  0.00    -0.465 OA
ATOM     21  C   UNL     1     -31.923  27.473   2.895  0.00  0.00    +0.253 C 
ENDBRANCH   6  20
BRANCH   9  22
ATOM     22  O   UNL     1     -38.216  24.706   2.304  0.00  0.00    -0.465 OA
ATOM     23  C   UNL     1     -39.187  24.909   3.313  0.00  0.00    +0.253 C 
ENDBRANCH   9  22
BRANCH  10  24
ATOM     24  O   UNL     1     -35.307  31.280   0.872  0.00  0.00    -0.465 OA
ATOM     25  C   UNL     1     -35.961  32.317   1.600  0.00  0.00    +0.253 C 
ENDBRANCH  10  24
BRANCH   8  26
ATOM     26  O   UNL     1     -37.381  29.544   0.529  0.00  0.00    -0.503 OA
ATOM     27  H   UNL     1     -37.324  30.319   0.005  0.00  0.00    +0.292 HD
ENDBRANCH   8  26
BRANCH  11  28
ATOM     28  O   UNL     1     -33.122  30.567   2.390  0.00  0.00    -0.501 OA
ATOM     29  H   UNL     1     -32.244  30.249   2.467  0.00  0.00    +0.292 HD
ENDBRANCH  11  28
TORSDOF 7
ENDMDL
MODEL 7
REMARK VINA RESULT:      -5.7      3.680      6.781
REMARK  Name = 5386960
REMARK  7 active torsions:
REMARK  status: ('A' for Active; 'I' for Inactive)
REMARK    1  A    between atoms: C_5  and  C_12
REMARK    2  A    between atoms: C_6  and  O_20
REMARK    3  A    between atoms: C_8  and  O_26
REMARK    4  A    between atoms: C_9  and  O_22
REMARK    5  A    between atoms: C_10  and  O_24
REMARK    6  A    between atoms: C_11  and  O_28
REMARK    7  A    between atoms: C_17  and  O_18
REMARK                            x       y       z     vdW  Elec       q    Type
REMARK                         _______ _______ _______ _____ _____    ______ ____
ROOT
ATOM      1  O   UNL     1     -35.928  25.441   2.395  0.00  0.00    -0.447 OA
ATOM      2  O   UNL     1     -34.323  25.442   6.140  0.00  0.00    -0.283 OA
ATOM      3  C   UNL     1     -34.383  26.417   3.993  0.00  0.00    +0.117 A 
ATOM      4  C   UNL     1     -34.968  26.362   2.731  0.00  0.00    +0.188 A 
ATOM      5  C   UNL     1     -36.338  24.533   3.357  0.00  0.00    +0.182 A 
ATOM      6  C   UNL     1     -34.583  27.269   1.742  0.00  0.00    +0.210 A 
ATOM      7  C   UNL     1     -34.805  25.447   5.015  0.00  0.00    +0.238 A 
ATOM      8  C   UNL     1     -33.409  27.376   4.279  0.00  0.00    +0.177 A 
ATOM      9  C   UNL     1     -35.846  24.472   4.608  0.00  0.00    +0.212 A 
ATOM     10  C   UNL     1     -33.025  28.283   3.289  0.00  0.00    +0.209 A 
ATOM     11  C   UNL     1     -33.611  28.229   2.023  0.00  0.00    +0.209 A 
ENDROOT
BRANCH   5  12
ATOM     12  C   UNL     1     -37.370  23.602   2.866  0.00  0.00    +0.038 C 
ATOM     13  C   UNL     1     -37.009  22.332   2.418  0.00  0.00    +0.006 C 
ATOM     14  C   UNL     1     -38.709  23.993   2.848  0.00  0.00    +0.006 C 
ATOM     15  C   UNL     1     -37.986  21.451   1.952  0.00  0.00    +0.037 C 
ATOM     16  C   UNL     1     -39.686  23.113   2.382  0.00  0.00    +0.037 C 
ATOM     17  C   UNL     1     -39.325  21.842   1.934  0.00  0.00    +0.134 C 
BRANCH  17  18
ATOM     18  O   UNL     1     -40.278  20.983   1.480  0.00  0.00    -0.506 OA
ATOM     19  H   UNL     1     -41.011  21.310   0.997  0.00  0.00    +0.292 HD
ENDBRANCH  17  18
ENDBRANCH   5  12
BRANCH   6  20
ATOM     20  O   UNL     1     -35.152  27.221   0.505  0.00  0.00    -0.465 OA
ATOM     21  C   UNL     1     -36.320  28.013   0.298  0.00  0.00    +0.253 C 
ENDBRANCH   6  20
BRANCH   9  22
ATOM     22  O   UNL     1     -36.253  23.535   5.533  0.00  0.00    -0.465 OA
ATOM     23  C   UNL     1     -35.296  22.500   5.655  0.00  0.00    +0.253 C 
ENDBRANCH   9  22
BRANCH  10  24
ATOM     24  O   UNL     1     -32.075  29.223   3.556  0.00  0.00    -0.465 OA
ATOM     25  C   UNL     1     -32.531  30.479   4.054  0.00  0.00    +0.253 C 
ENDBRANCH  10  24
BRANCH   8  26
ATOM     26  O   UNL     1     -32.813  27.461   5.501  0.00  0.00    -0.503 OA
ATOM     27  H   UNL     1     -31.882  27.381   5.575  0.00  0.00    +0.292 HD
ENDBRANCH   8  26
BRANCH  11  28
ATOM     28  O   UNL     1     -33.232  29.117   1.060  0.00  0.00    -0.501 OA
ATOM     29  H   UNL     1     -32.328  29.348   0.966  0.00  0.00    +0.292 HD
ENDBRANCH  11  28
TORSDOF 7
ENDMDL
MODEL 8
REMARK VINA RESULT:      -5.7      1.421      1.703
REMARK  Name = 5386960
REMARK  7 active torsions:
REMARK  status: ('A' for Active; 'I' for Inactive)
REMARK    1  A    between atoms: C_5  and  C_12
REMARK    2  A    between atoms: C_6  and  O_20
REMARK    3  A    between atoms: C_8  and  O_26
REMARK    4  A    between atoms: C_9  and  O_22
REMARK    5  A    between atoms: C_10  and  O_24
REMARK    6  A    between atoms: C_11  and  O_28
REMARK    7  A    between atoms: C_17  and  O_18
REMARK                            x       y       z     vdW  Elec       q    Type
REMARK                         _______ _______ _______ _____ _____    ______ ____
ROOT
ATOM      1  O   UNL     1     -34.872  21.953   2.037  0.00  0.00    -0.447 OA
ATOM      2  O   UNL     1     -37.423  22.704  -1.050  0.00  0.00    -0.283 OA
ATOM      3  C   UNL     1     -36.785  23.171   1.172  0.00  0.00    +0.117 A 
ATOM      4  C   UNL     1     -35.882  22.868   2.188  0.00  0.00    +0.188 A 
ATOM      5  C   UNL     1     -34.738  21.311   0.816  0.00  0.00    +0.182 A 
ATOM      6  C   UNL     1     -35.985  23.504   3.426  0.00  0.00    +0.210 A 
ATOM      7  C   UNL     1     -36.656  22.484  -0.122  0.00  0.00    +0.238 A 
ATOM      8  C   UNL     1     -37.796  24.111   1.383  0.00  0.00    +0.177 A 
ATOM      9  C   UNL     1     -35.548  21.505  -0.240  0.00  0.00    +0.212 A 
ATOM     10  C   UNL     1     -37.897  24.747   2.623  0.00  0.00    +0.209 A 
ATOM     11  C   UNL     1     -36.992  24.444   3.641  0.00  0.00    +0.209 A 
ENDROOT
BRANCH   5  12
ATOM     12  C   UNL     1     -33.616  20.356   0.790  0.00  0.00    +0.038 C 
ATOM     13  C   UNL     1     -32.444  20.674   0.105  0.00  0.00    +0.006 C 
ATOM     14  C   UNL     1     -33.727  19.132   1.451  0.00  0.00    +0.006 C 
ATOM     15  C   UNL     1     -31.382  19.769   0.080  0.00  0.00    +0.037 C 
ATOM     16  C   UNL     1     -32.665  18.227   1.426  0.00  0.00    +0.037 C 
ATOM     17  C   UNL     1     -31.493  18.545   0.741  0.00  0.00    +0.134 C 
BRANCH  17  18
ATOM     18  O   UNL     1     -30.457  17.664   0.717  0.00  0.00    -0.506 OA
ATOM     19  H   UNL     1     -29.700  17.844   0.194  0.00  0.00    +0.292 HD
ENDBRANCH  17  18
ENDBRANCH   5  12
BRANCH   6  20
ATOM     20  O   UNL     1     -35.104  23.211   4.425  0.00  0.00    -0.465 OA
ATOM     21  C   UNL     1     -35.493  22.204   5.356  0.00  0.00    +0.253 C 
ENDBRANCH   6  20
BRANCH   9  22
ATOM     22  O   UNL     1     -35.408  20.826  -1.431  0.00  0.00    -0.465 OA
ATOM     23  C   UNL     1     -36.171  19.635  -1.424  0.00  0.00    +0.253 C 
ENDBRANCH   9  22
BRANCH  10  24
ATOM     24  O   UNL     1     -38.880  25.666   2.840  0.00  0.00    -0.465 OA
ATOM     25  C   UNL     1     -40.140  25.171   3.288  0.00  0.00    +0.253 C 
ENDBRANCH  10  24
BRANCH   8  26
ATOM     26  O   UNL     1     -38.698  24.435   0.414  0.00  0.00    -0.503 OA
ATOM     27  H   UNL     1     -38.956  23.794  -0.219  0.00  0.00    +0.292 HD
ENDBRANCH   8  26
BRANCH  11  28
ATOM     28  O   UNL     1     -37.096  25.067   4.850  0.00  0.00    -0.501 OA
ATOM     29  H   UNL     1     -37.075  24.563   5.640  0.00  0.00    +0.292 HD
ENDBRANCH  11  28
TORSDOF 7
ENDMDL
MODEL 9
REMARK VINA RESULT:      -5.6      3.233      5.923
REMARK  Name = 5386960
REMARK  7 active torsions:
REMARK  status: ('A' for Active; 'I' for Inactive)
REMARK    1  A    between atoms: C_5  and  C_12
REMARK    2  A    between atoms: C_6  and  O_20
REMARK    3  A    between atoms: C_8  and  O_26
REMARK    4  A    between atoms: C_9  and  O_22
REMARK    5  A    between atoms: C_10  and  O_24
REMARK    6  A    between atoms: C_11  and  O_28
REMARK    7  A    between atoms: C_17  and  O_18
REMARK                            x       y       z     vdW  Elec       q    Type
REMARK                         _______ _______ _______ _____ _____    ______ ____
ROOT
ATOM      1  O   UNL     1     -34.405  24.148   2.199  0.00  0.00    -0.447 OA
ATOM      2  O   UNL     1     -34.868  25.247   6.096  0.00  0.00    -0.283 OA
ATOM      3  C   UNL     1     -33.961  25.742   3.975  0.00  0.00    +0.117 A 
ATOM      4  C   UNL     1     -33.837  25.309   2.657  0.00  0.00    +0.188 A 
ATOM      5  C   UNL     1     -35.141  23.377   3.085  0.00  0.00    +0.182 A 
ATOM      6  C   UNL     1     -33.110  26.068   1.739  0.00  0.00    +0.210 A 
ATOM      7  C   UNL     1     -34.730  24.922   4.924  0.00  0.00    +0.238 A 
ATOM      8  C   UNL     1     -33.360  26.934   4.386  0.00  0.00    +0.177 A 
ATOM      9  C   UNL     1     -35.327  23.676   4.383  0.00  0.00    +0.212 A 
ATOM     10  C   UNL     1     -32.633  27.691   3.466  0.00  0.00    +0.209 A 
ATOM     11  C   UNL     1     -32.509  27.259   2.145  0.00  0.00    +0.209 A 
ENDROOT
BRANCH   5  12
ATOM     12  C   UNL     1     -35.693  22.159   2.465  0.00  0.00    +0.038 C 
ATOM     13  C   UNL     1     -37.028  22.122   2.066  0.00  0.00    +0.006 C 
ATOM     14  C   UNL     1     -34.878  21.042   2.278  0.00  0.00    +0.006 C 
ATOM     15  C   UNL     1     -37.550  20.969   1.479  0.00  0.00    +0.037 C 
ATOM     16  C   UNL     1     -35.400  19.889   1.691  0.00  0.00    +0.037 C 
ATOM     17  C   UNL     1     -36.735  19.852   1.292  0.00  0.00    +0.134 C 
BRANCH  17  18
ATOM     18  O   UNL     1     -37.245  18.728   0.719  0.00  0.00    -0.506 OA
ATOM     19  H   UNL     1     -37.098  18.558  -0.191  0.00  0.00    +0.292 HD
ENDBRANCH  17  18
ENDBRANCH   5  12
BRANCH   6  20
ATOM     20  O   UNL     1     -32.986  25.650   0.447  0.00  0.00    -0.465 OA
ATOM     21  C   UNL     1     -33.967  26.110  -0.480  0.00  0.00    +0.253 C 
ENDBRANCH   6  20
BRANCH   9  22
ATOM     22  O   UNL     1     -36.038  22.871   5.247  0.00  0.00    -0.465 OA
ATOM     23  C   UNL     1     -35.172  22.012   5.963  0.00  0.00    +0.253 C 
ENDBRANCH   9  22
BRANCH  10  24
ATOM     24  O   UNL     1     -32.042  28.856   3.856  0.00  0.00    -0.465 OA
ATOM     25  C   UNL     1     -32.814  30.048   3.727  0.00  0.00    +0.253 C 
ENDBRANCH  10  24
BRANCH   8  26
ATOM     26  O   UNL     1     -33.458  27.390   5.667  0.00  0.00    -0.503 OA
ATOM     27  H   UNL     1     -32.688  27.661   6.128  0.00  0.00    +0.292 HD
ENDBRANCH   8  26
BRANCH  11  28
ATOM     28  O   UNL     1     -31.797  28.002   1.250  0.00  0.00    -0.501 OA
ATOM     29  H   UNL     1     -31.246  28.697   1.552  0.00  0.00    +0.292 HD
ENDBRANCH  11  28
TORSDOF 7
ENDMDL
