MODEL 1
REMARK VINA RESULT:      -6.3      0.000      0.000
REMARK  Name = 53297431
REMARK  4 active torsions:
REMARK  status: ('A' for Active; 'I' for Inactive)
REMARK    1  A    between atoms: C_6  and  O_24
REMARK    2  A    between atoms: C_16  and  O_26
REMARK    3  A    between atoms: C_16  and  C_28
REMARK    4  A    between atoms: C_28  and  O_29
REMARK                            x       y       z     vdW  Elec       q    Type
REMARK                         _______ _______ _______ _____ _____    ______ ____
ROOT
ATOM      1  O   UNL     1     -34.879  23.063   0.631  0.00  0.00    -0.449 OA
ATOM      2  O   UNL     1     -35.204  22.000   3.467  0.00  0.00    -0.442 OA
ATOM      3  O   UNL     1     -33.247  24.655   0.996  0.00  0.00    -0.245 OA
ATOM      4  O   UNL     1     -37.410  22.653   3.355  0.00  0.00    -0.247 OA
ATOM      5  N   UNL     1     -35.184  20.353  -0.884  0.00  0.00    +0.413 N 
ATOM      6  C   UNL     1     -34.544  20.648   0.540  0.00  0.00    +0.111 C 
ATOM      7  C   UNL     1     -33.905  22.040   0.357  0.00  0.00    +0.178 C 
ATOM      8  C   UNL     1     -34.760  21.507  -1.799  0.00  0.00    -0.065 C 
ATOM      9  C   UNL     1     -33.532  22.081  -1.116  0.00  0.00    +0.022 C 
ATOM     10  C   UNL     1     -36.696  20.308  -0.594  0.00  0.00    -0.042 C 
ATOM     11  C   UNL     1     -35.694  20.590   1.521  0.00  0.00    +0.003 C 
ATOM     12  C   UNL     1     -34.714  19.025  -1.458  0.00  0.00    -0.091 C 
ATOM     13  C   UNL     1     -36.856  20.389   0.886  0.00  0.00    -0.053 C 
ATOM     14  C   UNL     1     -35.529  20.673   3.004  0.00  0.00    +0.231 C 
ATOM     15  C   UNL     1     -34.409  24.276   1.012  0.00  0.00    +0.337 C 
ATOM     16  C   UNL     1     -35.836  23.977   4.660  0.00  0.00    +0.205 C 
ATOM     17  C   UNL     1     -34.726  24.900   4.071  0.00  0.00    +0.042 C 
ATOM     18  C   UNL     1     -35.516  25.055   1.619  0.00  0.00    +0.049 C 
ATOM     19  C   UNL     1     -35.198  25.795   2.886  0.00  0.00    +0.036 C 
ATOM     20  C   UNL     1     -36.258  22.832   3.732  0.00  0.00    +0.344 C 
ATOM     21  C   UNL     1     -34.145  25.845   5.140  0.00  0.00    +0.003 C 
ATOM     22  C   UNL     1     -36.708  25.091   1.008  0.00  0.00    -0.024 C 
ATOM     23  C   UNL     1     -37.010  24.388  -0.269  0.00  0.00    +0.031 C 
ENDROOT
BRANCH   6  24
ATOM     24  O   UNL     1     -33.508  19.747   0.942  0.00  0.00    -0.397 OA
ATOM     25  H   UNL     1     -32.714  20.253   1.178  0.00  0.00    +0.208 HD
ENDBRANCH   6  24
BRANCH  16  26
ATOM     26  O   UNL     1     -37.005  24.765   4.893  0.00  0.00    -0.375 OA
ATOM     27  H   UNL     1     -36.885  25.292   5.697  0.00  0.00    +0.211 HD
ENDBRANCH  16  26
BRANCH  16  28
ATOM     28  C   UNL     1     -35.443  23.338   6.002  0.00  0.00    +0.175 C 
BRANCH  28  29
ATOM     29  O   UNL     1     -36.180  22.140   6.159  0.00  0.00    -0.379 OA
ATOM     30  H   UNL     1     -36.857  22.085   5.467  0.00  0.00    +0.211 HD
ENDBRANCH  28  29
ENDBRANCH  16  28
TORSDOF 4
ENDMDL
MODEL 2
REMARK VINA RESULT:      -6.1      2.528      4.513
REMARK  Name = 53297431
REMARK  4 active torsions:
REMARK  status: ('A' for Active; 'I' for Inactive)
REMARK    1  A    between atoms: C_6  and  O_24
REMARK    2  A    between atoms: C_16  and  O_26
REMARK    3  A    between atoms: C_16  and  C_28
REMARK    4  A    between atoms: C_28  and  O_29
REMARK                            x       y       z     vdW  Elec       q    Type
REMARK                         _______ _______ _______ _____ _____    ______ ____
ROOT
ATOM      1  O   UNL     1     -33.985  25.784   2.317  0.00  0.00    -0.449 OA
ATOM      2  O   UNL     1     -34.313  22.845   1.583  0.00  0.00    -0.442 OA
ATOM      3  O   UNL     1     -33.286  25.564   4.505  0.00  0.00    -0.245 OA
ATOM      4  O   UNL     1     -36.529  23.302   1.148  0.00  0.00    -0.247 OA
ATOM      5  N   UNL     1     -32.827  26.781  -0.404  0.00  0.00    +0.413 N 
ATOM      6  C   UNL     1     -32.636  25.382   0.324  0.00  0.00    +0.111 C 
ATOM      7  C   UNL     1     -32.635  25.759   1.819  0.00  0.00    +0.178 C 
ATOM      8  C   UNL     1     -32.786  27.850   0.694  0.00  0.00    -0.065 C 
ATOM      9  C   UNL     1     -32.064  27.168   1.842  0.00  0.00    +0.022 C 
ATOM     10  C   UNL     1     -34.198  26.643  -1.091  0.00  0.00    -0.042 C 
ATOM     11  C   UNL     1     -33.801  24.529  -0.125  0.00  0.00    +0.003 C 
ATOM     12  C   UNL     1     -31.740  27.044  -1.435  0.00  0.00    -0.091 C 
ATOM     13  C   UNL     1     -34.634  25.229  -0.908  0.00  0.00    -0.053 C 
ATOM     14  C   UNL     1     -33.951  23.079   0.206  0.00  0.00    +0.231 C 
ATOM     15  C   UNL     1     -34.156  25.593   3.648  0.00  0.00    +0.337 C 
ATOM     16  C   UNL     1     -35.930  22.119   3.191  0.00  0.00    +0.205 C 
ATOM     17  C   UNL     1     -35.239  22.756   4.435  0.00  0.00    +0.042 C 
ATOM     18  C   UNL     1     -35.577  25.260   3.910  0.00  0.00    +0.049 C 
ATOM     19  C   UNL     1     -35.834  24.131   4.865  0.00  0.00    +0.036 C 
ATOM     20  C   UNL     1     -35.650  22.851   1.874  0.00  0.00    +0.344 C 
ATOM     21  C   UNL     1     -35.317  21.832   5.666  0.00  0.00    +0.003 C 
ATOM     22  C   UNL     1     -36.542  25.984   3.328  0.00  0.00    -0.024 C 
ATOM     23  C   UNL     1     -36.284  27.130   2.411  0.00  0.00    +0.031 C 
ENDROOT
BRANCH   6  24
ATOM     24  O   UNL     1     -31.401  24.713   0.047  0.00  0.00    -0.397 OA
ATOM     25  H   UNL     1     -30.787  24.851   0.785  0.00  0.00    +0.208 HD
ENDBRANCH   6  24
BRANCH  16  26
ATOM     26  O   UNL     1     -37.345  22.159   3.388  0.00  0.00    -0.375 OA
ATOM     27  H   UNL     1     -37.773  22.507   2.591  0.00  0.00    +0.211 HD
ENDBRANCH  16  26
BRANCH  16  28
ATOM     28  C   UNL     1     -35.543  20.647   2.972  0.00  0.00    +0.175 C 
BRANCH  28  29
ATOM     29  O   UNL     1     -36.719  19.913   2.694  0.00  0.00    -0.379 OA
ATOM     30  H   UNL     1     -37.350  20.480   2.224  0.00  0.00    +0.211 HD
ENDBRANCH  28  29
ENDBRANCH  16  28
TORSDOF 4
ENDMDL
MODEL 3
REMARK VINA RESULT:      -5.8      2.799      4.986
REMARK  Name = 53297431
REMARK  4 active torsions:
REMARK  status: ('A' for Active; 'I' for Inactive)
REMARK    1  A    between atoms: C_6  and  O_24
REMARK    2  A    between atoms: C_16  and  O_26
REMARK    3  A    between atoms: C_16  and  C_28
REMARK    4  A    between atoms: C_28  and  O_29
REMARK                            x       y       z     vdW  Elec       q    Type
REMARK                         _______ _______ _______ _____ _____    ______ ____
ROOT
ATOM      1  O   UNL     1     -38.018  22.949   1.140  0.00  0.00    -0.449 OA
ATOM      2  O   UNL     1     -37.909  25.046   3.346  0.00  0.00    -0.442 OA
ATOM      3  O   UNL     1     -37.729  21.038   2.403  0.00  0.00    -0.245 OA
ATOM      4  O   UNL     1     -36.098  25.960   2.254  0.00  0.00    -0.247 OA
ATOM      5  N   UNL     1     -40.246  24.268  -0.601  0.00  0.00    +0.413 N 
ATOM      6  C   UNL     1     -40.060  24.275   0.977  0.00  0.00    +0.111 C 
ATOM      7  C   UNL     1     -39.450  22.888   1.266  0.00  0.00    +0.178 C 
ATOM      8  C   UNL     1     -39.868  22.861  -1.077  0.00  0.00    -0.065 C 
ATOM      9  C   UNL     1     -40.016  22.003   0.166  0.00  0.00    +0.022 C 
ATOM     10  C   UNL     1     -39.284  25.370  -1.080  0.00  0.00    -0.042 C 
ATOM     11  C   UNL     1     -39.155  25.451   1.273  0.00  0.00    +0.003 C 
ATOM     12  C   UNL     1     -41.674  24.596  -1.010  0.00  0.00    -0.091 C 
ATOM     13  C   UNL     1     -38.755  26.044   0.140  0.00  0.00    -0.053 C 
ATOM     14  C   UNL     1     -38.823  25.921   2.652  0.00  0.00    +0.231 C 
ATOM     15  C   UNL     1     -37.299  22.023   1.820  0.00  0.00    +0.337 C 
ATOM     16  C   UNL     1     -35.740  24.658   4.281  0.00  0.00    +0.205 C 
ATOM     17  C   UNL     1     -35.873  23.108   4.395  0.00  0.00    +0.042 C 
ATOM     18  C   UNL     1     -35.887  22.467   1.896  0.00  0.00    +0.049 C 
ATOM     19  C   UNL     1     -35.208  22.320   3.227  0.00  0.00    +0.036 C 
ATOM     20  C   UNL     1     -36.574  25.278   3.154  0.00  0.00    +0.344 C 
ATOM     21  C   UNL     1     -35.250  22.578   5.702  0.00  0.00    +0.003 C 
ATOM     22  C   UNL     1     -35.283  22.934   0.794  0.00  0.00    -0.024 C 
ATOM     23  C   UNL     1     -35.947  23.043  -0.535  0.00  0.00    +0.031 C 
ENDROOT
BRANCH   6  24
ATOM     24  O   UNL     1     -41.269  24.382   1.734  0.00  0.00    -0.397 OA
ATOM     25  H   UNL     1     -41.317  23.651   2.370  0.00  0.00    +0.208 HD
ENDBRANCH   6  24
BRANCH  16  26
ATOM     26  O   UNL     1     -34.375  24.977   4.001  0.00  0.00    -0.375 OA
ATOM     27  H   UNL     1     -34.171  25.859   4.347  0.00  0.00    +0.211 HD
ENDBRANCH  16  26
BRANCH  16  28
ATOM     28  C   UNL     1     -36.124  25.395   5.574  0.00  0.00    +0.175 C 
BRANCH  28  29
ATOM     29  O   UNL     1     -36.484  26.722   5.241  0.00  0.00    -0.379 OA
ATOM     30  H   UNL     1     -37.340  26.719   4.785  0.00  0.00    +0.211 HD
ENDBRANCH  28  29
ENDBRANCH  16  28
TORSDOF 4
ENDMDL
MODEL 4
REMARK VINA RESULT:      -5.6      2.618      5.424
REMARK  Name = 53297431
REMARK  4 active torsions:
REMARK  status: ('A' for Active; 'I' for Inactive)
REMARK    1  A    between atoms: C_6  and  O_24
REMARK    2  A    between atoms: C_16  and  O_26
REMARK    3  A    between atoms: C_16  and  C_28
REMARK    4  A    between atoms: C_28  and  O_29
REMARK                            x       y       z     vdW  Elec       q    Type
REMARK                         _______ _______ _______ _____ _____    ______ ____
ROOT
ATOM      1  O   UNL     1     -36.308  24.536   1.641  0.00  0.00    -0.449 OA
ATOM      2  O   UNL     1     -37.594  22.178   0.205  0.00  0.00    -0.442 OA
ATOM      3  O   UNL     1     -34.081  24.006   1.344  0.00  0.00    -0.245 OA
ATOM      4  O   UNL     1     -38.623  21.651   2.198  0.00  0.00    -0.247 OA
ATOM      5  N   UNL     1     -38.313  26.745   0.724  0.00  0.00    +0.413 N 
ATOM      6  C   UNL     1     -37.810  25.452  -0.050  0.00  0.00    +0.111 C 
ATOM      7  C   UNL     1     -36.350  25.302   0.423  0.00  0.00    +0.178 C 
ATOM      8  C   UNL     1     -37.094  27.310   1.462  0.00  0.00    -0.065 C 
ATOM      9  C   UNL     1     -35.910  26.729   0.710  0.00  0.00    +0.022 C 
ATOM     10  C   UNL     1     -39.411  26.200   1.656  0.00  0.00    -0.042 C 
ATOM     11  C   UNL     1     -38.742  24.338   0.373  0.00  0.00    +0.003 C 
ATOM     12  C   UNL     1     -38.887  27.790  -0.220  0.00  0.00    -0.091 C 
ATOM     13  C   UNL     1     -39.617  24.769   1.292  0.00  0.00    -0.053 C 
ATOM     14  C   UNL     1     -38.726  22.966  -0.219  0.00  0.00    +0.231 C 
ATOM     15  C   UNL     1     -35.151  23.888   1.922  0.00  0.00    +0.337 C 
ATOM     16  C   UNL     1     -36.727  20.321   1.443  0.00  0.00    +0.205 C 
ATOM     17  C   UNL     1     -35.239  20.789   1.441  0.00  0.00    +0.042 C 
ATOM     18  C   UNL     1     -35.411  22.865   2.963  0.00  0.00    +0.049 C 
ATOM     19  C   UNL     1     -34.793  21.515   2.745  0.00  0.00    +0.036 C 
ATOM     20  C   UNL     1     -37.744  21.466   1.365  0.00  0.00    +0.344 C 
ATOM     21  C   UNL     1     -34.271  19.607   1.234  0.00  0.00    +0.003 C 
ATOM     22  C   UNL     1     -36.137  23.192   4.041  0.00  0.00    -0.024 C 
ATOM     23  C   UNL     1     -36.718  24.544   4.274  0.00  0.00    +0.031 C 
ENDROOT
BRANCH   6  24
ATOM     24  O   UNL     1     -37.792  25.563  -1.477  0.00  0.00    -0.397 OA
ATOM     25  H   UNL     1     -36.906  25.827  -1.769  0.00  0.00    +0.208 HD
ENDBRANCH   6  24
BRANCH  16  26
ATOM     26  O   UNL     1     -36.983  19.631   2.668  0.00  0.00    -0.375 OA
ATOM     27  H   UNL     1     -36.149  19.302   3.035  0.00  0.00    +0.211 HD
ENDBRANCH  16  26
BRANCH  16  28
ATOM     28  C   UNL     1     -37.059  19.353   0.296  0.00  0.00    +0.175 C 
BRANCH  28  29
ATOM     29  O   UNL     1     -38.459  19.367   0.091  0.00  0.00    -0.379 OA
ATOM     30  H   UNL     1     -38.887  19.834   0.825  0.00  0.00    +0.211 HD
ENDBRANCH  28  29
ENDBRANCH  16  28
TORSDOF 4
ENDMDL
MODEL 5
REMARK VINA RESULT:      -5.6      1.994      2.388
REMARK  Name = 53297431
REMARK  4 active torsions:
REMARK  status: ('A' for Active; 'I' for Inactive)
REMARK    1  A    between atoms: C_6  and  O_24
REMARK    2  A    between atoms: C_16  and  O_26
REMARK    3  A    between atoms: C_16  and  C_28
REMARK    4  A    between atoms: C_28  and  O_29
REMARK                            x       y       z     vdW  Elec       q    Type
REMARK                         _______ _______ _______ _____ _____    ______ ____
ROOT
ATOM      1  O   UNL     1     -36.798  24.340   0.600  0.00  0.00    -0.449 OA
ATOM      2  O   UNL     1     -35.737  23.581   3.352  0.00  0.00    -0.442 OA
ATOM      3  O   UNL     1     -35.114  25.759  -0.091  0.00  0.00    -0.245 OA
ATOM      4  O   UNL     1     -37.670  24.471   4.235  0.00  0.00    -0.247 OA
ATOM      5  N   UNL     1     -37.963  21.556  -0.196  0.00  0.00    +0.413 N 
ATOM      6  C   UNL     1     -36.687  21.904   0.685  0.00  0.00    +0.111 C 
ATOM      7  C   UNL     1     -36.146  23.191   0.030  0.00  0.00    +0.178 C 
ATOM      8  C   UNL     1     -37.982  22.566  -1.349  0.00  0.00    -0.065 C 
ATOM      9  C   UNL     1     -36.548  23.055  -1.431  0.00  0.00    +0.022 C 
ATOM     10  C   UNL     1     -39.133  21.712   0.792  0.00  0.00    -0.042 C 
ATOM     11  C   UNL     1     -37.202  22.067   2.098  0.00  0.00    +0.003 C 
ATOM     12  C   UNL     1     -37.912  20.137  -0.741  0.00  0.00    -0.091 C 
ATOM     13  C   UNL     1     -38.536  21.944   2.138  0.00  0.00    -0.053 C 
ATOM     14  C   UNL     1     -36.322  22.264   3.289  0.00  0.00    +0.231 C 
ATOM     15  C   UNL     1     -36.135  25.520   0.537  0.00  0.00    +0.337 C 
ATOM     16  C   UNL     1     -35.586  25.718   4.422  0.00  0.00    +0.205 C 
ATOM     17  C   UNL     1     -34.863  26.450   3.250  0.00  0.00    +0.042 C 
ATOM     18  C   UNL     1     -36.751  26.472   1.492  0.00  0.00    +0.049 C 
ATOM     19  C   UNL     1     -35.808  27.282   2.333  0.00  0.00    +0.036 C 
ATOM     20  C   UNL     1     -36.474  24.550   3.979  0.00  0.00    +0.344 C 
ATOM     21  C   UNL     1     -33.777  27.415   3.766  0.00  0.00    +0.003 C 
ATOM     22  C   UNL     1     -38.086  26.590   1.536  0.00  0.00    -0.024 C 
ATOM     23  C   UNL     1     -39.018  25.813   0.673  0.00  0.00    +0.031 C 
ENDROOT
BRANCH   6  24
ATOM     24  O   UNL     1     -35.639  20.930   0.653  0.00  0.00    -0.397 OA
ATOM     25  H   UNL     1     -35.932  20.126   1.111  0.00  0.00    +0.208 HD
ENDBRANCH   6  24
BRANCH  16  26
ATOM     26  O   UNL     1     -36.441  26.653   5.082  0.00  0.00    -0.375 OA
ATOM     27  H   UNL     1     -36.800  26.251   5.888  0.00  0.00    +0.211 HD
ENDBRANCH  16  26
BRANCH  16  28
ATOM     28  C   UNL     1     -34.617  25.162   5.478  0.00  0.00    +0.175 C 
BRANCH  28  29
ATOM     29  O   UNL     1     -35.166  23.968   6.003  0.00  0.00    -0.379 OA
ATOM     30  H   UNL     1     -34.449  23.360   6.241  0.00  0.00    +0.211 HD
ENDBRANCH  28  29
ENDBRANCH  16  28
TORSDOF 4
ENDMDL
MODEL 6
REMARK VINA RESULT:      -5.5      2.540      5.748
REMARK  Name = 53297431
REMARK  4 active torsions:
REMARK  status: ('A' for Active; 'I' for Inactive)
REMARK    1  A    between atoms: C_6  and  O_24
REMARK    2  A    between atoms: C_16  and  O_26
REMARK    3  A    between atoms: C_16  and  C_28
REMARK    4  A    between atoms: C_28  and  O_29
REMARK                            x       y       z     vdW  Elec       q    Type
REMARK                         _______ _______ _______ _____ _____    ______ ____
ROOT
ATOM      1  O   UNL     1     -35.066  23.786   2.310  0.00  0.00    -0.449 OA
ATOM      2  O   UNL     1     -37.895  24.065   1.216  0.00  0.00    -0.442 OA
ATOM      3  O   UNL     1     -34.215  22.255   0.807  0.00  0.00    -0.245 OA
ATOM      4  O   UNL     1     -38.654  23.332   3.263  0.00  0.00    -0.247 OA
ATOM      5  N   UNL     1     -34.610  26.772   3.095  0.00  0.00    +0.413 N 
ATOM      6  C   UNL     1     -35.447  26.160   1.891  0.00  0.00    +0.111 C 
ATOM      7  C   UNL     1     -34.643  24.902   1.506  0.00  0.00    +0.178 C 
ATOM      8  C   UNL     1     -33.343  25.918   3.220  0.00  0.00    -0.065 C 
ATOM      9  C   UNL     1     -33.208  25.262   1.859  0.00  0.00    +0.022 C 
ATOM     10  C   UNL     1     -35.567  26.651   4.295  0.00  0.00    -0.042 C 
ATOM     11  C   UNL     1     -36.828  25.895   2.451  0.00  0.00    +0.003 C 
ATOM     12  C   UNL     1     -34.242  28.228   2.854  0.00  0.00    -0.091 C 
ATOM     13  C   UNL     1     -36.877  26.183   3.759  0.00  0.00    -0.053 C 
ATOM     14  C   UNL     1     -37.990  25.445   1.627  0.00  0.00    +0.231 C 
ATOM     15  C   UNL     1     -34.863  22.546   1.801  0.00  0.00    +0.337 C 
ATOM     16  C   UNL     1     -38.697  21.814   1.359  0.00  0.00    +0.205 C 
ATOM     17  C   UNL     1     -37.448  21.141   0.712  0.00  0.00    +0.042 C 
ATOM     18  C   UNL     1     -35.692  21.574   2.553  0.00  0.00    +0.049 C 
ATOM     19  C   UNL     1     -36.432  20.554   1.737  0.00  0.00    +0.036 C 
ATOM     20  C   UNL     1     -38.395  23.131   2.083  0.00  0.00    +0.344 C 
ATOM     21  C   UNL     1     -37.846  19.989  -0.232  0.00  0.00    +0.003 C 
ATOM     22  C   UNL     1     -35.716  21.624   3.892  0.00  0.00    -0.024 C 
ATOM     23  C   UNL     1     -34.950  22.613   4.700  0.00  0.00    +0.031 C 
ENDROOT
BRANCH   6  24
ATOM     24  O   UNL     1     -35.539  26.987   0.728  0.00  0.00    -0.397 OA
ATOM     25  H   UNL     1     -35.718  27.902   0.996  0.00  0.00    +0.208 HD
ENDBRANCH   6  24
BRANCH  16  26
ATOM     26  O   UNL     1     -39.235  20.924   2.339  0.00  0.00    -0.375 OA
ATOM     27  H   UNL     1     -40.080  21.271   2.662  0.00  0.00    +0.211 HD
ENDBRANCH  16  26
BRANCH  16  28
ATOM     28  C   UNL     1     -39.817  22.109   0.348  0.00  0.00    +0.175 C 
BRANCH  28  29
ATOM     29  O   UNL     1     -40.737  23.000   0.950  0.00  0.00    -0.379 OA
ATOM     30  H   UNL     1     -40.259  23.622   1.520  0.00  0.00    +0.211 HD
ENDBRANCH  28  29
ENDBRANCH  16  28
TORSDOF 4
ENDMDL
MODEL 7
REMARK VINA RESULT:      -5.5      2.927      5.557
REMARK  Name = 53297431
REMARK  4 active torsions:
REMARK  status: ('A' for Active; 'I' for Inactive)
REMARK    1  A    between atoms: C_6  and  O_24
REMARK    2  A    between atoms: C_16  and  O_26
REMARK    3  A    between atoms: C_16  and  C_28
REMARK    4  A    between atoms: C_28  and  O_29
REMARK                            x       y       z     vdW  Elec       q    Type
REMARK                         _______ _______ _______ _____ _____    ______ ____
ROOT
ATOM      1  O   UNL     1     -37.162  24.597   2.728  0.00  0.00    -0.449 OA
ATOM      2  O   UNL     1     -35.675  27.221   2.297  0.00  0.00    -0.442 OA
ATOM      3  O   UNL     1     -37.156  24.520   5.035  0.00  0.00    -0.245 OA
ATOM      4  O   UNL     1     -34.097  26.021   1.125  0.00  0.00    -0.247 OA
ATOM      5  N   UNL     1     -39.239  24.895   0.418  0.00  0.00    +0.413 N 
ATOM      6  C   UNL     1     -38.582  26.012   1.336  0.00  0.00    +0.111 C 
ATOM      7  C   UNL     1     -38.417  25.301   2.695  0.00  0.00    +0.178 C 
ATOM      8  C   UNL     1     -39.524  23.696   1.331  0.00  0.00    -0.065 C 
ATOM      9  C   UNL     1     -39.559  24.297   2.723  0.00  0.00    +0.022 C 
ATOM     10  C   UNL     1     -38.161  24.627  -0.648  0.00  0.00    -0.042 C 
ATOM     11  C   UNL     1     -37.290  26.394   0.647  0.00  0.00    +0.003 C 
ATOM     12  C   UNL     1     -40.526  25.375  -0.236  0.00  0.00    -0.091 C 
ATOM     13  C   UNL     1     -37.086  25.638  -0.440  0.00  0.00    -0.053 C 
ATOM     14  C   UNL     1     -36.408  27.516   1.090  0.00  0.00    +0.231 C 
ATOM     15  C   UNL     1     -36.623  24.354   3.948  0.00  0.00    +0.337 C 
ATOM     16  C   UNL     1     -33.587  26.781   3.382  0.00  0.00    +0.205 C 
ATOM     17  C   UNL     1     -34.191  26.190   4.693  0.00  0.00    +0.042 C 
ATOM     18  C   UNL     1     -35.195  23.994   3.782  0.00  0.00    +0.049 C 
ATOM     19  C   UNL     1     -34.228  24.633   4.737  0.00  0.00    +0.036 C 
ATOM     20  C   UNL     1     -34.469  26.591   2.143  0.00  0.00    +0.344 C 
ATOM     21  C   UNL     1     -33.411  26.653   5.939  0.00  0.00    +0.003 C 
ATOM     22  C   UNL     1     -34.843  23.112   2.837  0.00  0.00    -0.024 C 
ATOM     23  C   UNL     1     -35.809  22.450   1.916  0.00  0.00    +0.031 C 
ENDROOT
BRANCH   6  24
ATOM     24  O   UNL     1     -39.386  27.176   1.553  0.00  0.00    -0.397 OA
ATOM     25  H   UNL     1     -40.099  26.964   2.175  0.00  0.00    +0.208 HD
ENDBRANCH   6  24
BRANCH  16  26
ATOM     26  O   UNL     1     -32.353  26.113   3.110  0.00  0.00    -0.375 OA
ATOM     27  H   UNL     1     -32.168  25.476   3.816  0.00  0.00    +0.211 HD
ENDBRANCH  16  26
BRANCH  16  28
ATOM     28  C   UNL     1     -33.279  28.284   3.482  0.00  0.00    +0.175 C 
BRANCH  28  29
ATOM     29  O   UNL     1     -33.231  28.817   2.172  0.00  0.00    -0.379 OA
ATOM     30  H   UNL     1     -33.169  29.784   2.219  0.00  0.00    +0.211 HD
ENDBRANCH  28  29
ENDBRANCH  16  28
TORSDOF 4
ENDMDL
MODEL 8
REMARK VINA RESULT:      -5.4      2.520      6.251
REMARK  Name = 53297431
REMARK  4 active torsions:
REMARK  status: ('A' for Active; 'I' for Inactive)
REMARK    1  A    between atoms: C_6  and  O_24
REMARK    2  A    between atoms: C_16  and  O_26
REMARK    3  A    between atoms: C_16  and  C_28
REMARK    4  A    between atoms: C_28  and  O_29
REMARK                            x       y       z     vdW  Elec       q    Type
REMARK                         _______ _______ _______ _____ _____    ______ ____
ROOT
ATOM      1  O   UNL     1     -38.017  22.100   0.890  0.00  0.00    -0.449 OA
ATOM      2  O   UNL     1     -36.063  19.787   1.225  0.00  0.00    -0.442 OA
ATOM      3  O   UNL     1     -40.005  20.928   0.847  0.00  0.00    -0.245 OA
ATOM      4  O   UNL     1     -35.098  20.442  -0.761  0.00  0.00    -0.247 OA
ATOM      5  N   UNL     1     -36.571  24.157   2.737  0.00  0.00    +0.413 N 
ATOM      6  C   UNL     1     -36.666  22.577   2.865  0.00  0.00    +0.111 C 
ATOM      7  C   UNL     1     -38.073  22.262   2.318  0.00  0.00    +0.178 C 
ATOM      8  C   UNL     1     -37.949  24.638   2.267  0.00  0.00    -0.065 C 
ATOM      9  C   UNL     1     -38.882  23.505   2.653  0.00  0.00    +0.022 C 
ATOM     10  C   UNL     1     -35.450  24.368   1.704  0.00  0.00    -0.042 C 
ATOM     11  C   UNL     1     -35.518  22.035   2.041  0.00  0.00    +0.003 C 
ATOM     12  C   UNL     1     -36.207  24.818   4.058  0.00  0.00    -0.091 C 
ATOM     13  C   UNL     1     -34.858  23.027   1.428  0.00  0.00    -0.053 C 
ATOM     14  C   UNL     1     -35.138  20.590   1.988  0.00  0.00    +0.231 C 
ATOM     15  C   UNL     1     -38.989  21.351   0.315  0.00  0.00    +0.337 C 
ATOM     16  C   UNL     1     -36.527  18.470  -0.719  0.00  0.00    +0.205 C 
ATOM     17  C   UNL     1     -38.079  18.483  -0.573  0.00  0.00    +0.042 C 
ATOM     18  C   UNL     1     -38.563  20.971  -1.053  0.00  0.00    +0.049 C 
ATOM     19  C   UNL     1     -38.799  19.545  -1.457  0.00  0.00    +0.036 C 
ATOM     20  C   UNL     1     -35.831  19.698  -0.121  0.00  0.00    +0.344 C 
ATOM     21  C   UNL     1     -38.696  17.115  -0.928  0.00  0.00    +0.003 C 
ATOM     22  C   UNL     1     -38.033  21.901  -1.860  0.00  0.00    -0.024 C 
ATOM     23  C   UNL     1     -37.835  23.325  -1.470  0.00  0.00    +0.031 C 
ENDROOT
BRANCH   6  24
ATOM     24  O   UNL     1     -36.596  22.066   4.200  0.00  0.00    -0.397 OA
ATOM     25  H   UNL     1     -37.494  21.948   4.547  0.00  0.00    +0.208 HD
ENDBRANCH   6  24
BRANCH  16  26
ATOM     26  O   UNL     1     -36.203  18.455  -2.111  0.00  0.00    -0.375 OA
ATOM     27  H   UNL     1     -36.319  19.344  -2.480  0.00  0.00    +0.211 HD
ENDBRANCH  16  26
BRANCH  16  28
ATOM     28  C   UNL     1     -35.869  17.234  -0.085  0.00  0.00    +0.175 C 
BRANCH  28  29
ATOM     29  O   UNL     1     -34.561  17.585   0.324  0.00  0.00    -0.379 OA
ATOM     30  H   UNL     1     -34.442  18.543   0.236  0.00  0.00    +0.211 HD
ENDBRANCH  28  29
ENDBRANCH  16  28
TORSDOF 4
ENDMDL
MODEL 9
REMARK VINA RESULT:      -5.4      2.905      5.111
REMARK  Name = 53297431
REMARK  4 active torsions:
REMARK  status: ('A' for Active; 'I' for Inactive)
REMARK    1  A    between atoms: C_6  and  O_24
REMARK    2  A    between atoms: C_16  and  O_26
REMARK    3  A    between atoms: C_16  and  C_28
REMARK    4  A    between atoms: C_28  and  O_29
REMARK                            x       y       z     vdW  Elec       q    Type
REMARK                         _______ _______ _______ _____ _____    ______ ____
ROOT
ATOM      1  O   UNL     1     -34.763  24.632   2.663  0.00  0.00    -0.449 OA
ATOM      2  O   UNL     1     -36.208  27.310   2.517  0.00  0.00    -0.442 OA
ATOM      3  O   UNL     1     -33.379  25.034   4.466  0.00  0.00    -0.245 OA
ATOM      4  O   UNL     1     -35.372  27.534   0.382  0.00  0.00    -0.247 OA
ATOM      5  N   UNL     1     -37.185  22.796   1.957  0.00  0.00    +0.413 N 
ATOM      6  C   UNL     1     -37.157  24.167   2.758  0.00  0.00    +0.111 C 
ATOM      7  C   UNL     1     -35.808  24.113   3.505  0.00  0.00    +0.178 C 
ATOM      8  C   UNL     1     -35.945  22.010   2.398  0.00  0.00    -0.065 C 
ATOM      9  C   UNL     1     -35.578  22.627   3.735  0.00  0.00    +0.022 C 
ATOM     10  C   UNL     1     -37.152  23.241   0.483  0.00  0.00    -0.042 C 
ATOM     11  C   UNL     1     -37.268  25.252   1.709  0.00  0.00    +0.003 C 
ATOM     12  C   UNL     1     -38.445  21.993   2.241  0.00  0.00    -0.091 C 
ATOM     13  C   UNL     1     -37.280  24.726   0.476  0.00  0.00    -0.053 C 
ATOM     14  C   UNL     1     -37.421  26.705   2.024  0.00  0.00    +0.231 C 
ATOM     15  C   UNL     1     -33.662  25.125   3.281  0.00  0.00    +0.337 C 
ATOM     16  C   UNL     1     -34.387  28.830   2.194  0.00  0.00    +0.205 C 
ATOM     17  C   UNL     1     -33.478  28.257   3.324  0.00  0.00    +0.042 C 
ATOM     18  C   UNL     1     -32.897  25.953   2.318  0.00  0.00    +0.049 C 
ATOM     19  C   UNL     1     -32.381  27.268   2.826  0.00  0.00    +0.036 C 
ATOM     20  C   UNL     1     -35.343  27.803   1.577  0.00  0.00    +0.344 C 
ATOM     21  C   UNL     1     -32.751  29.377   4.094  0.00  0.00    +0.003 C 
ATOM     22  C   UNL     1     -32.675  25.488   1.081  0.00  0.00    -0.024 C 
ATOM     23  C   UNL     1     -33.154  24.166   0.591  0.00  0.00    +0.031 C 
ENDROOT
BRANCH   6  24
ATOM     24  O   UNL     1     -38.187  24.324   3.738  0.00  0.00    -0.397 OA
ATOM     25  H   UNL     1     -38.377  25.267   3.860  0.00  0.00    +0.208 HD
ENDBRANCH   6  24
BRANCH  16  26
ATOM     26  O   UNL     1     -33.551  29.298   1.133  0.00  0.00    -0.375 OA
ATOM     27  H   UNL     1     -33.561  30.267   1.117  0.00  0.00    +0.211 HD
ENDBRANCH  16  26
BRANCH  16  28
ATOM     28  C   UNL     1     -35.248  30.018   2.654  0.00  0.00    +0.175 C 
BRANCH  28  29
ATOM     29  O   UNL     1     -36.428  30.041   1.875  0.00  0.00    -0.379 OA
ATOM     30  H   UNL     1     -36.901  29.200   1.980  0.00  0.00    +0.211 HD
ENDBRANCH  28  29
ENDBRANCH  16  28
TORSDOF 4
ENDMDL
