MODEL 1
REMARK VINA RESULT:      -6.5      0.000      0.000
REMARK  Name = 53493214
REMARK  8 active torsions:
REMARK  status: ('A' for Active; 'I' for Inactive)
REMARK    1  A    between atoms: C_3  and  O_15
REMARK    2  A    between atoms: C_4  and  O_17
REMARK    3  A    between atoms: C_6  and  O_21
REMARK    4  A    between atoms: C_10  and  C_20
REMARK    5  A    between atoms: O_21  and  C_23
REMARK    6  A    between atoms: C_23  and  C_25
REMARK    7  A    between atoms: C_27  and  O_32
REMARK    8  A    between atoms: C_31  and  O_34
REMARK                            x       y       z     vdW  Elec       q    Type
REMARK                         _______ _______ _______ _____ _____    ______ ____
ROOT
ATOM      1  C   UNL     1     -35.174  20.481   1.012  0.00  0.00    +0.036 C 
ATOM      2  C   UNL     1     -35.009  19.746  -0.313  0.00  0.00    +0.031 C 
ATOM      3  C   UNL     1     -36.632  20.735   1.488  0.00  0.00    +0.146 C 
ATOM      4  C   UNL     1     -36.016  20.192  -1.383  0.00  0.00    +0.107 C 
ATOM      5  C   UNL     1     -34.942  22.014   1.068  0.00  0.00    +0.049 C 
ATOM      6  C   UNL     1     -36.142  22.102   2.030  0.00  0.00    +0.197 C 
ATOM      7  C   UNL     1     -35.316  18.254  -0.128  0.00  0.00    +0.003 C 
ATOM      8  C   UNL     1     -35.690  17.734  -1.528  0.00  0.00    +0.003 C 
ATOM      9  C   UNL     1     -36.057  18.991  -2.348  0.00  0.00    +0.031 C 
ATOM     10  C   UNL     1     -37.671  20.803   0.428  0.00  0.00    +0.045 C 
ATOM     11  C   UNL     1     -34.369  19.866   2.195  0.00  0.00    +0.003 C 
ATOM     12  C   UNL     1     -37.384  20.558  -0.858  0.00  0.00    +0.001 C 
ATOM     13  C   UNL     1     -36.872  16.761  -1.446  0.00  0.00    +0.000 C 
ATOM     14  C   UNL     1     -34.494  17.013  -2.169  0.00  0.00    +0.000 C 
ENDROOT
BRANCH   3  15
ATOM     15  O   UNL     1     -37.064  19.857   2.555  0.00  0.00    -0.379 OA
ATOM     16  H   UNL     1     -37.880  19.403   2.289  0.00  0.00    +0.211 HD
ENDBRANCH   3  15
BRANCH   4  17
ATOM     17  O   UNL     1     -35.499  21.321  -2.088  0.00  0.00    -0.383 OA
ATOM     18  H   UNL     1     -36.226  21.927  -2.304  0.00  0.00    +0.211 HD
ENDBRANCH   4  17
BRANCH  10  20
ATOM     19  O   UNL     1     -39.527  20.955   1.879  0.00  0.00    -0.283 OA
ATOM     20  C   UNL     1     -39.054  21.149   0.766  0.00  0.00    +0.232 C 
ENDBRANCH  10  20
BRANCH   6  21
ATOM     21  O   UNL     1     -37.012  23.244   1.853  0.00  0.00    -0.446 OA
BRANCH  21  23
ATOM     22  O   UNL     1     -38.634  23.780   3.395  0.00  0.00    -0.245 OA
ATOM     23  C   UNL     1     -37.481  23.808   2.995  0.00  0.00    +0.344 C 
BRANCH  23  25
ATOM     24 CL   UNL     1     -34.190  27.835   3.404  0.00  0.00    -0.079 Cl
ATOM     25  C   UNL     1     -36.380  24.486   3.727  0.00  0.00    +0.106 C 
ATOM     26  C   UNL     1     -35.869  25.700   3.268  0.00  0.00    +0.001 C 
ATOM     27  C   UNL     1     -35.860  23.901   4.880  0.00  0.00    +0.143 C 
ATOM     28  C   UNL     1     -34.835  26.328   3.962  0.00  0.00    +0.088 C 
ATOM     29  C   UNL     1     -34.826  24.529   5.576  0.00  0.00    +0.074 C 
ATOM     30  C   UNL     1     -36.438  26.317   2.027  0.00  0.00    +0.032 C 
ATOM     31  C   UNL     1     -34.314  25.742   5.116  0.00  0.00    +0.147 C 
BRANCH  27  32
ATOM     32  O   UNL     1     -36.345  22.716   5.348  0.00  0.00    -0.505 OA
ATOM     33  H   UNL     1     -35.764  21.994   5.487  0.00  0.00    +0.292 HD
ENDBRANCH  27  32
BRANCH  31  34
ATOM     34  O   UNL     1     -33.304  26.331   5.819  0.00  0.00    -0.505 OA
ATOM     35  H   UNL     1     -33.253  27.265   5.874  0.00  0.00    +0.292 HD
ENDBRANCH  31  34
ENDBRANCH  23  25
ENDBRANCH  21  23
ENDBRANCH   6  21
TORSDOF 8
ENDMDL
MODEL 2
REMARK VINA RESULT:      -6.5     12.298     14.073
REMARK  Name = 53493214
REMARK  8 active torsions:
REMARK  status: ('A' for Active; 'I' for Inactive)
REMARK    1  A    between atoms: C_3  and  O_15
REMARK    2  A    between atoms: C_4  and  O_17
REMARK    3  A    between atoms: C_6  and  O_21
REMARK    4  A    between atoms: C_10  and  C_20
REMARK    5  A    between atoms: O_21  and  C_23
REMARK    6  A    between atoms: C_23  and  C_25
REMARK    7  A    between atoms: C_27  and  O_32
REMARK    8  A    between atoms: C_31  and  O_34
REMARK                            x       y       z     vdW  Elec       q    Type
REMARK                         _______ _______ _______ _____ _____    ______ ____
ROOT
ATOM      1  C   UNL     1     -45.257  32.726   5.207  0.00  0.00    +0.036 C 
ATOM      2  C   UNL     1     -45.291  31.648   6.284  0.00  0.00    +0.031 C 
ATOM      3  C   UNL     1     -45.226  32.233   3.732  0.00  0.00    +0.146 C 
ATOM      4  C   UNL     1     -44.377  30.453   5.975  0.00  0.00    +0.107 C 
ATOM      5  C   UNL     1     -43.932  33.484   4.927  0.00  0.00    +0.049 C 
ATOM      6  C   UNL     1     -44.280  33.424   3.428  0.00  0.00    +0.197 C 
ATOM      7  C   UNL     1     -46.691  31.023   6.356  0.00  0.00    +0.003 C 
ATOM      8  C   UNL     1     -46.490  29.636   6.996  0.00  0.00    +0.003 C 
ATOM      9  C   UNL     1     -44.988  29.317   6.819  0.00  0.00    +0.031 C 
ATOM     10  C   UNL     1     -44.650  30.883   3.498  0.00  0.00    +0.045 C 
ATOM     11  C   UNL     1     -46.369  33.808   5.342  0.00  0.00    +0.003 C 
ATOM     12  C   UNL     1     -44.273  30.092   4.512  0.00  0.00    +0.001 C 
ATOM     13  C   UNL     1     -47.365  28.588   6.300  0.00  0.00    +0.000 C 
ATOM     14  C   UNL     1     -46.851  29.678   8.489  0.00  0.00    +0.000 C 
ENDROOT
BRANCH   3  15
ATOM     15  O   UNL     1     -46.492  32.363   3.042  0.00  0.00    -0.379 OA
ATOM     16  H   UNL     1     -47.107  31.684   3.364  0.00  0.00    +0.211 HD
ENDBRANCH   3  15
BRANCH   4  17
ATOM     17  O   UNL     1     -43.060  30.717   6.457  0.00  0.00    -0.383 OA
ATOM     18  H   UNL     1     -42.914  31.676   6.489  0.00  0.00    +0.211 HD
ENDBRANCH   4  17
BRANCH  10  20
ATOM     19  O   UNL     1     -45.136  30.792   1.189  0.00  0.00    -0.283 OA
ATOM     20  C   UNL     1     -44.476  30.378   2.133  0.00  0.00    +0.232 C 
ENDBRANCH  10  20
BRANCH   6  21
ATOM     21  O   UNL     1     -43.171  33.185   2.531  0.00  0.00    -0.446 OA
BRANCH  21  23
ATOM     22  O   UNL     1     -43.752  34.713   0.910  0.00  0.00    -0.245 OA
ATOM     23  C   UNL     1     -42.927  34.167   1.625  0.00  0.00    +0.344 C 
BRANCH  23  25
ATOM     24 CL   UNL     1     -38.275  33.865  -0.715  0.00  0.00    -0.079 Cl
ATOM     25  C   UNL     1     -41.482  34.510   1.611  0.00  0.00    +0.106 C 
ATOM     26  C   UNL     1     -40.661  34.073   0.572  0.00  0.00    +0.001 C 
ATOM     27  C   UNL     1     -40.948  35.276   2.647  0.00  0.00    +0.143 C 
ATOM     28  C   UNL     1     -39.306  34.401   0.569  0.00  0.00    +0.088 C 
ATOM     29  C   UNL     1     -39.592  35.605   2.644  0.00  0.00    +0.074 C 
ATOM     30  C   UNL     1     -41.249  33.251  -0.534  0.00  0.00    +0.032 C 
ATOM     31  C   UNL     1     -38.771  35.167   1.605  0.00  0.00    +0.147 C 
BRANCH  27  32
ATOM     32  O   UNL     1     -41.732  35.715   3.673  0.00  0.00    -0.505 OA
ATOM     33  H   UNL     1     -41.842  35.185   4.437  0.00  0.00    +0.292 HD
ENDBRANCH  27  32
BRANCH  31  34
ATOM     34  O   UNL     1     -37.451  35.505   1.632  0.00  0.00    -0.505 OA
ATOM     35  H   UNL     1     -36.924  35.283   2.375  0.00  0.00    +0.292 HD
ENDBRANCH  31  34
ENDBRANCH  23  25
ENDBRANCH  21  23
ENDBRANCH   6  21
TORSDOF 8
ENDMDL
MODEL 3
REMARK VINA RESULT:      -6.4      4.239      7.397
REMARK  Name = 53493214
REMARK  8 active torsions:
REMARK  status: ('A' for Active; 'I' for Inactive)
REMARK    1  A    between atoms: C_3  and  O_15
REMARK    2  A    between atoms: C_4  and  O_17
REMARK    3  A    between atoms: C_6  and  O_21
REMARK    4  A    between atoms: C_10  and  C_20
REMARK    5  A    between atoms: O_21  and  C_23
REMARK    6  A    between atoms: C_23  and  C_25
REMARK    7  A    between atoms: C_27  and  O_32
REMARK    8  A    between atoms: C_31  and  O_34
REMARK                            x       y       z     vdW  Elec       q    Type
REMARK                         _______ _______ _______ _____ _____    ______ ____
ROOT
ATOM      1  C   UNL     1     -34.594  26.166   2.233  0.00  0.00    +0.036 C 
ATOM      2  C   UNL     1     -35.716  25.215   2.632  0.00  0.00    +0.031 C 
ATOM      3  C   UNL     1     -33.498  26.435   3.303  0.00  0.00    +0.146 C 
ATOM      4  C   UNL     1     -36.197  25.417   4.076  0.00  0.00    +0.107 C 
ATOM      5  C   UNL     1     -34.864  27.694   2.200  0.00  0.00    +0.049 C 
ATOM      6  C   UNL     1     -33.456  27.897   2.791  0.00  0.00    +0.197 C 
ATOM      7  C   UNL     1     -35.206  23.768   2.620  0.00  0.00    +0.003 C 
ATOM      8  C   UNL     1     -36.155  22.989   3.550  0.00  0.00    +0.003 C 
ATOM      9  C   UNL     1     -36.846  24.062   4.422  0.00  0.00    +0.031 C 
ATOM     10  C   UNL     1     -33.904  26.265   4.722  0.00  0.00    +0.045 C 
ATOM     11  C   UNL     1     -33.893  25.809   0.888  0.00  0.00    +0.003 C 
ATOM     12  C   UNL     1     -35.118  25.807   5.059  0.00  0.00    +0.001 C 
ATOM     13  C   UNL     1     -35.371  21.994   4.413  0.00  0.00    +0.000 C 
ATOM     14  C   UNL     1     -37.201  22.221   2.727  0.00  0.00    +0.000 C 
ENDROOT
BRANCH   3  15
ATOM     15  O   UNL     1     -32.251  25.742   3.054  0.00  0.00    -0.379 OA
ATOM     16  H   UNL     1     -31.596  26.007   3.719  0.00  0.00    +0.211 HD
ENDBRANCH   3  15
BRANCH   4  17
ATOM     17  O   UNL     1     -37.208  26.424   4.110  0.00  0.00    -0.383 OA
ATOM     18  H   UNL     1     -37.477  26.642   3.203  0.00  0.00    +0.211 HD
ENDBRANCH   4  17
BRANCH  10  20
ATOM     19  O   UNL     1     -33.353  27.050   6.880  0.00  0.00    -0.283 OA
ATOM     20  C   UNL     1     -32.976  26.602   5.805  0.00  0.00    +0.232 C 
ENDBRANCH  10  20
BRANCH   6  21
ATOM     21  O   UNL     1     -33.330  28.948   3.776  0.00  0.00    -0.446 OA
BRANCH  21  23
ATOM     22  O   UNL     1     -32.066  30.619   2.824  0.00  0.00    -0.245 OA
ATOM     23  C   UNL     1     -32.234  29.740   3.654  0.00  0.00    +0.344 C 
BRANCH  23  25
ATOM     24 CL   UNL     1     -27.799  27.331   4.970  0.00  0.00    -0.079 Cl
ATOM     25  C   UNL     1     -31.229  29.397   4.693  0.00  0.00    +0.106 C 
ATOM     26  C   UNL     1     -30.119  28.616   4.371  0.00  0.00    +0.001 C 
ATOM     27  C   UNL     1     -31.403  29.861   5.996  0.00  0.00    +0.143 C 
ATOM     28  C   UNL     1     -29.182  28.299   5.354  0.00  0.00    +0.088 C 
ATOM     29  C   UNL     1     -30.465  29.545   6.980  0.00  0.00    +0.074 C 
ATOM     30  C   UNL     1     -29.947  28.124   2.967  0.00  0.00    +0.032 C 
ATOM     31  C   UNL     1     -29.355  28.764   6.658  0.00  0.00    +0.147 C 
BRANCH  27  32
ATOM     32  O   UNL     1     -32.480  30.627   6.332  0.00  0.00    -0.505 OA
ATOM     33  H   UNL     1     -32.436  31.559   6.246  0.00  0.00    +0.292 HD
ENDBRANCH  27  32
BRANCH  31  34
ATOM     34  O   UNL     1     -28.457  28.472   7.642  0.00  0.00    -0.505 OA
ATOM     35  H   UNL     1     -28.746  28.384   8.530  0.00  0.00    +0.292 HD
ENDBRANCH  31  34
ENDBRANCH  23  25
ENDBRANCH  21  23
ENDBRANCH   6  21
TORSDOF 8
ENDMDL
MODEL 4
REMARK VINA RESULT:      -6.4      3.275      7.871
REMARK  Name = 53493214
REMARK  8 active torsions:
REMARK  status: ('A' for Active; 'I' for Inactive)
REMARK    1  A    between atoms: C_3  and  O_15
REMARK    2  A    between atoms: C_4  and  O_17
REMARK    3  A    between atoms: C_6  and  O_21
REMARK    4  A    between atoms: C_10  and  C_20
REMARK    5  A    between atoms: O_21  and  C_23
REMARK    6  A    between atoms: C_23  and  C_25
REMARK    7  A    between atoms: C_27  and  O_32
REMARK    8  A    between atoms: C_31  and  O_34
REMARK                            x       y       z     vdW  Elec       q    Type
REMARK                         _______ _______ _______ _____ _____    ______ ____
ROOT
ATOM      1  C   UNL     1     -34.332  26.424   1.750  0.00  0.00    +0.036 C 
ATOM      2  C   UNL     1     -33.243  27.490   1.774  0.00  0.00    +0.031 C 
ATOM      3  C   UNL     1     -35.065  26.149   3.093  0.00  0.00    +0.146 C 
ATOM      4  C   UNL     1     -32.370  27.436   3.037  0.00  0.00    +0.107 C 
ATOM      5  C   UNL     1     -33.933  24.925   1.719  0.00  0.00    +0.049 C 
ATOM      6  C   UNL     1     -35.101  24.654   2.686  0.00  0.00    +0.197 C 
ATOM      7  C   UNL     1     -33.876  28.886   1.832  0.00  0.00    +0.003 C 
ATOM      8  C   UNL     1     -32.791  29.806   2.423  0.00  0.00    +0.003 C 
ATOM      9  C   UNL     1     -31.788  28.860   3.122  0.00  0.00    +0.031 C 
ATOM     10  C   UNL     1     -34.307  26.456   4.334  0.00  0.00    +0.045 C 
ATOM     11  C   UNL     1     -35.403  26.622   0.636  0.00  0.00    +0.003 C 
ATOM     12  C   UNL     1     -33.098  27.034   4.298  0.00  0.00    +0.001 C 
ATOM     13  C   UNL     1     -33.405  30.797   3.418  0.00  0.00    +0.000 C 
ATOM     14  C   UNL     1     -32.088  30.592   1.305  0.00  0.00    +0.000 C 
ENDROOT
BRANCH   3  15
ATOM     15  O   UNL     1     -36.394  26.719   3.166  0.00  0.00    -0.379 OA
ATOM     16  H   UNL     1     -36.444  27.327   3.920  0.00  0.00    +0.211 HD
ENDBRANCH   3  15
BRANCH   4  17
ATOM     17  O   UNL     1     -31.294  26.519   2.839  0.00  0.00    -0.383 OA
ATOM     18  H   UNL     1     -30.560  26.751   3.428  0.00  0.00    +0.211 HD
ENDBRANCH   4  17
BRANCH  10  20
ATOM     19  O   UNL     1     -36.070  26.179   5.880  0.00  0.00    -0.283 OA
ATOM     20  C   UNL     1     -34.869  26.127   5.647  0.00  0.00    +0.232 C 
ENDBRANCH  10  20
BRANCH   6  21
ATOM     21  O   UNL     1     -34.850  23.672   3.719  0.00  0.00    -0.446 OA
BRANCH  21  23
ATOM     22  O   UNL     1     -36.109  22.812   5.444  0.00  0.00    -0.245 OA
ATOM     23  C   UNL     1     -35.954  23.103   4.269  0.00  0.00    +0.344 C 
BRANCH  23  25
ATOM     24 CL   UNL     1     -37.687  20.303   0.223  0.00  0.00    -0.079 Cl
ATOM     25  C   UNL     1     -36.988  22.871   3.228  0.00  0.00    +0.106 C 
ATOM     26  C   UNL     1     -36.858  21.817   2.325  0.00  0.00    +0.001 C 
ATOM     27  C   UNL     1     -38.095  23.717   3.160  0.00  0.00    +0.143 C 
ATOM     28  C   UNL     1     -37.835  21.608   1.352  0.00  0.00    +0.088 C 
ATOM     29  C   UNL     1     -39.073  23.508   2.187  0.00  0.00    +0.074 C 
ATOM     30  C   UNL     1     -35.663  20.917   2.411  0.00  0.00    +0.032 C 
ATOM     31  C   UNL     1     -38.942  22.454   1.283  0.00  0.00    +0.147 C 
BRANCH  27  32
ATOM     32  O   UNL     1     -38.243  24.753   4.033  0.00  0.00    -0.505 OA
ATOM     33  H   UNL     1     -39.087  24.946   4.392  0.00  0.00    +0.292 HD
ENDBRANCH  27  32
BRANCH  31  34
ATOM     34  O   UNL     1     -39.915  22.277   0.344  0.00  0.00    -0.505 OA
ATOM     35  H   UNL     1     -39.689  21.985  -0.517  0.00  0.00    +0.292 HD
ENDBRANCH  31  34
ENDBRANCH  23  25
ENDBRANCH  21  23
ENDBRANCH   6  21
TORSDOF 8
ENDMDL
MODEL 5
REMARK VINA RESULT:      -6.4      3.110      4.319
REMARK  Name = 53493214
REMARK  8 active torsions:
REMARK  status: ('A' for Active; 'I' for Inactive)
REMARK    1  A    between atoms: C_3  and  O_15
REMARK    2  A    between atoms: C_4  and  O_17
REMARK    3  A    between atoms: C_6  and  O_21
REMARK    4  A    between atoms: C_10  and  C_20
REMARK    5  A    between atoms: O_21  and  C_23
REMARK    6  A    between atoms: C_23  and  C_25
REMARK    7  A    between atoms: C_27  and  O_32
REMARK    8  A    between atoms: C_31  and  O_34
REMARK                            x       y       z     vdW  Elec       q    Type
REMARK                         _______ _______ _______ _____ _____    ______ ____
ROOT
ATOM      1  C   UNL     1     -35.328  21.265   2.010  0.00  0.00    +0.036 C 
ATOM      2  C   UNL     1     -34.143  20.871   1.136  0.00  0.00    +0.031 C 
ATOM      3  C   UNL     1     -36.709  20.670   1.616  0.00  0.00    +0.146 C 
ATOM      4  C   UNL     1     -34.479  20.841  -0.362  0.00  0.00    +0.107 C 
ATOM      5  C   UNL     1     -35.951  22.678   1.860  0.00  0.00    +0.049 C 
ATOM      6  C   UNL     1     -37.335  22.025   2.038  0.00  0.00    +0.197 C 
ATOM      7  C   UNL     1     -33.723  19.428   1.442  0.00  0.00    +0.003 C 
ATOM      8  C   UNL     1     -32.972  18.943   0.187  0.00  0.00    +0.003 C 
ATOM      9  C   UNL     1     -33.400  19.906  -0.944  0.00  0.00    +0.031 C 
ATOM     10  C   UNL     1     -36.887  20.301   0.187  0.00  0.00    +0.045 C 
ATOM     11  C   UNL     1     -35.109  21.035   3.535  0.00  0.00    +0.003 C 
ATOM     12  C   UNL     1     -35.879  20.382  -0.693  0.00  0.00    +0.001 C 
ATOM     13  C   UNL     1     -33.351  17.495  -0.144  0.00  0.00    +0.000 C 
ATOM     14  C   UNL     1     -31.454  19.025   0.406  0.00  0.00    +0.000 C 
ENDROOT
BRANCH   3  15
ATOM     15  O   UNL     1     -37.148  19.586   2.469  0.00  0.00    -0.379 OA
ATOM     16  H   UNL     1     -37.189  18.765   1.954  0.00  0.00    +0.211 HD
ENDBRANCH   3  15
BRANCH   4  17
ATOM     17  O   UNL     1     -34.299  22.142  -0.921  0.00  0.00    -0.383 OA
ATOM     18  H   UNL     1     -34.948  22.751  -0.537  0.00  0.00    +0.211 HD
ENDBRANCH   4  17
BRANCH  10  20
ATOM     19  O   UNL     1     -38.496  18.653  -0.332  0.00  0.00    -0.283 OA
ATOM     20  C   UNL     1     -38.188  19.838  -0.303  0.00  0.00    +0.232 C 
ENDBRANCH  10  20
BRANCH   6  21
ATOM     21  O   UNL     1     -38.396  22.558   1.213  0.00  0.00    -0.446 OA
BRANCH  21  23
ATOM     22  O   UNL     1     -40.232  21.557   2.175  0.00  0.00    -0.245 OA
ATOM     23  C   UNL     1     -39.636  22.541   1.768  0.00  0.00    +0.344 C 
BRANCH  23  25
ATOM     24 CL   UNL     1     -42.803  26.168  -0.240  0.00  0.00    -0.079 Cl
ATOM     25  C   UNL     1     -40.197  23.916   1.822  0.00  0.00    +0.106 C 
ATOM     26  C   UNL     1     -41.127  24.337   0.872  0.00  0.00    +0.001 C 
ATOM     27  C   UNL     1     -39.787  24.785   2.832  0.00  0.00    +0.143 C 
ATOM     28  C   UNL     1     -41.647  25.630   0.932  0.00  0.00    +0.088 C 
ATOM     29  C   UNL     1     -40.308  26.078   2.893  0.00  0.00    +0.074 C 
ATOM     30  C   UNL     1     -41.557  23.392  -0.207  0.00  0.00    +0.032 C 
ATOM     31  C   UNL     1     -41.238  26.500   1.943  0.00  0.00    +0.147 C 
BRANCH  27  32
ATOM     32  O   UNL     1     -38.880  24.394   3.772  0.00  0.00    -0.505 OA
ATOM     33  H   UNL     1     -39.005  23.590   4.237  0.00  0.00    +0.292 HD
ENDBRANCH  27  32
BRANCH  31  34
ATOM     34  O   UNL     1     -41.728  27.770   2.030  0.00  0.00    -0.505 OA
ATOM     35  H   UNL     1     -42.013  28.107   2.857  0.00  0.00    +0.292 HD
ENDBRANCH  31  34
ENDBRANCH  23  25
ENDBRANCH  21  23
ENDBRANCH   6  21
TORSDOF 8
ENDMDL
MODEL 6
REMARK VINA RESULT:      -6.3      1.780      2.832
REMARK  Name = 53493214
REMARK  8 active torsions:
REMARK  status: ('A' for Active; 'I' for Inactive)
REMARK    1  A    between atoms: C_3  and  O_15
REMARK    2  A    between atoms: C_4  and  O_17
REMARK    3  A    between atoms: C_6  and  O_21
REMARK    4  A    between atoms: C_10  and  C_20
REMARK    5  A    between atoms: O_21  and  C_23
REMARK    6  A    between atoms: C_23  and  C_25
REMARK    7  A    between atoms: C_27  and  O_32
REMARK    8  A    between atoms: C_31  and  O_34
REMARK                            x       y       z     vdW  Elec       q    Type
REMARK                         _______ _______ _______ _____ _____    ______ ____
ROOT
ATOM      1  C   UNL     1     -35.811  22.052   0.205  0.00  0.00    +0.036 C 
ATOM      2  C   UNL     1     -35.305  20.671  -0.197  0.00  0.00    +0.031 C 
ATOM      3  C   UNL     1     -35.457  22.530   1.642  0.00  0.00    +0.146 C 
ATOM      4  C   UNL     1     -35.427  19.631   0.926  0.00  0.00    +0.107 C 
ATOM      5  C   UNL     1     -37.308  22.241   0.566  0.00  0.00    +0.049 C 
ATOM      6  C   UNL     1     -36.858  23.192   1.691  0.00  0.00    +0.197 C 
ATOM      7  C   UNL     1     -33.798  20.725  -0.477  0.00  0.00    +0.003 C 
ATOM      8  C   UNL     1     -33.293  19.282  -0.297  0.00  0.00    +0.003 C 
ATOM      9  C   UNL     1     -34.383  18.566   0.533  0.00  0.00    +0.031 C 
ATOM     10  C   UNL     1     -35.217  21.466   2.652  0.00  0.00    +0.045 C 
ATOM     11  C   UNL     1     -35.448  23.188  -0.796  0.00  0.00    +0.003 C 
ATOM     12  C   UNL     1     -35.205  20.168   2.320  0.00  0.00    +0.001 C 
ATOM     13  C   UNL     1     -31.944  19.266   0.430  0.00  0.00    +0.000 C 
ATOM     14  C   UNL     1     -33.132  18.597  -1.663  0.00  0.00    +0.000 C 
ENDROOT
BRANCH   3  15
ATOM     15  O   UNL     1     -34.395  23.513   1.690  0.00  0.00    -0.379 OA
ATOM     16  H   UNL     1     -33.877  23.469   0.870  0.00  0.00    +0.211 HD
ENDBRANCH   3  15
BRANCH   4  17
ATOM     17  O   UNL     1     -36.722  19.030   0.887  0.00  0.00    -0.383 OA
ATOM     18  H   UNL     1     -37.358  19.660   0.515  0.00  0.00    +0.211 HD
ENDBRANCH   4  17
BRANCH  10  20
ATOM     19  O   UNL     1     -35.191  21.030   4.972  0.00  0.00    -0.283 OA
ATOM     20  C   UNL     1     -34.987  21.816   4.057  0.00  0.00    +0.232 C 
ENDBRANCH  10  20
BRANCH   6  21
ATOM     21  O   UNL     1     -37.598  23.102   2.930  0.00  0.00    -0.446 OA
BRANCH  21  23
ATOM     22  O   UNL     1     -39.171  24.624   3.644  0.00  0.00    -0.245 OA
ATOM     23  C   UNL     1     -38.014  24.284   3.453  0.00  0.00    +0.344 C 
BRANCH  23  25
ATOM     24 CL   UNL     1     -35.032  28.409   2.312  0.00  0.00    -0.079 Cl
ATOM     25  C   UNL     1     -36.847  25.143   3.780  0.00  0.00    +0.106 C 
ATOM     26  C   UNL     1     -36.532  26.242   2.980  0.00  0.00    +0.001 C 
ATOM     27  C   UNL     1     -36.066  24.845   4.895  0.00  0.00    +0.143 C 
ATOM     28  C   UNL     1     -35.435  27.042   3.295  0.00  0.00    +0.088 C 
ATOM     29  C   UNL     1     -34.967  25.646   5.212  0.00  0.00    +0.074 C 
ATOM     30  C   UNL     1     -37.381  26.550   1.785  0.00  0.00    +0.032 C 
ATOM     31  C   UNL     1     -34.652  26.743   4.411  0.00  0.00    +0.147 C 
BRANCH  27  32
ATOM     32  O   UNL     1     -36.355  23.777   5.692  0.00  0.00    -0.505 OA
ATOM     33  H   UNL     1     -36.159  22.909   5.400  0.00  0.00    +0.292 HD
ENDBRANCH  27  32
BRANCH  31  34
ATOM     34  O   UNL     1     -33.573  27.506   4.748  0.00  0.00    -0.505 OA
ATOM     35  H   UNL     1     -33.263  28.166   4.159  0.00  0.00    +0.292 HD
ENDBRANCH  31  34
ENDBRANCH  23  25
ENDBRANCH  21  23
ENDBRANCH   6  21
TORSDOF 8
ENDMDL
MODEL 7
REMARK VINA RESULT:      -6.2      2.927      7.460
REMARK  Name = 53493214
REMARK  8 active torsions:
REMARK  status: ('A' for Active; 'I' for Inactive)
REMARK    1  A    between atoms: C_3  and  O_15
REMARK    2  A    between atoms: C_4  and  O_17
REMARK    3  A    between atoms: C_6  and  O_21
REMARK    4  A    between atoms: C_10  and  C_20
REMARK    5  A    between atoms: O_21  and  C_23
REMARK    6  A    between atoms: C_23  and  C_25
REMARK    7  A    between atoms: C_27  and  O_32
REMARK    8  A    between atoms: C_31  and  O_34
REMARK                            x       y       z     vdW  Elec       q    Type
REMARK                         _______ _______ _______ _____ _____    ______ ____
ROOT
ATOM      1  C   UNL     1     -37.565  22.847   1.659  0.00  0.00    +0.036 C 
ATOM      2  C   UNL     1     -36.879  23.961   2.442  0.00  0.00    +0.031 C 
ATOM      3  C   UNL     1     -36.736  21.554   1.419  0.00  0.00    +0.146 C 
ATOM      4  C   UNL     1     -35.403  24.148   2.061  0.00  0.00    +0.107 C 
ATOM      5  C   UNL     1     -37.713  22.976   0.119  0.00  0.00    +0.049 C 
ATOM      6  C   UNL     1     -37.400  21.471   0.021  0.00  0.00    +0.197 C 
ATOM      7  C   UNL     1     -36.824  23.597   3.932  0.00  0.00    +0.003 C 
ATOM      8  C   UNL     1     -35.666  24.428   4.516  0.00  0.00    +0.003 C 
ATOM      9  C   UNL     1     -34.807  24.845   3.301  0.00  0.00    +0.031 C 
ATOM     10  C   UNL     1     -35.257  21.707   1.417  0.00  0.00    +0.045 C 
ATOM     11  C   UNL     1     -38.965  22.441   2.208  0.00  0.00    +0.003 C 
ATOM     12  C   UNL     1     -34.669  22.876   1.707  0.00  0.00    +0.001 C 
ATOM     13  C   UNL     1     -34.852  23.594   5.512  0.00  0.00    +0.000 C 
ATOM     14  C   UNL     1     -36.209  25.673   5.234  0.00  0.00    +0.000 C 
ENDROOT
BRANCH   3  15
ATOM     15  O   UNL     1     -37.121  20.443   2.264  0.00  0.00    -0.379 OA
ATOM     16  H   UNL     1     -38.067  20.506   2.470  0.00  0.00    +0.211 HD
ENDBRANCH   3  15
BRANCH   4  17
ATOM     17  O   UNL     1     -35.302  25.038   0.950  0.00  0.00    -0.383 OA
ATOM     18  H   UNL     1     -35.603  25.921   1.216  0.00  0.00    +0.211 HD
ENDBRANCH   4  17
BRANCH  10  20
ATOM     19  O   UNL     1     -34.428  19.517   1.716  0.00  0.00    -0.283 OA
ATOM     20  C   UNL     1     -34.394  20.569   1.090  0.00  0.00    +0.232 C 
ENDBRANCH  10  20
BRANCH   6  21
ATOM     21  O   UNL     1     -36.569  21.071  -1.093  0.00  0.00    -0.446 OA
BRANCH  21  23
ATOM     22  O   UNL     1     -37.713  20.182  -2.882  0.00  0.00    -0.245 OA
ATOM     23  C   UNL     1     -37.058  20.062  -1.859  0.00  0.00    +0.344 C 
BRANCH  23  25
ATOM     24 CL   UNL     1     -33.446  16.384  -1.060  0.00  0.00    -0.079 Cl
ATOM     25  C   UNL     1     -36.685  18.746  -1.280  0.00  0.00    +0.106 C 
ATOM     26  C   UNL     1     -35.390  18.250  -1.429  0.00  0.00    +0.001 C 
ATOM     27  C   UNL     1     -37.640  18.007  -0.582  0.00  0.00    +0.143 C 
ATOM     28  C   UNL     1     -35.050  17.013  -0.882  0.00  0.00    +0.088 C 
ATOM     29  C   UNL     1     -37.299  16.770  -0.033  0.00  0.00    +0.074 C 
ATOM     30  C   UNL     1     -34.375  19.055  -2.181  0.00  0.00    +0.032 C 
ATOM     31  C   UNL     1     -36.005  16.273  -0.184  0.00  0.00    +0.147 C 
BRANCH  27  32
ATOM     32  O   UNL     1     -38.911  18.473  -0.422  0.00  0.00    -0.505 OA
ATOM     33  H   UNL     1     -39.586  17.897  -0.123  0.00  0.00    +0.292 HD
ENDBRANCH  27  32
BRANCH  31  34
ATOM     34  O   UNL     1     -35.705  15.061   0.364  0.00  0.00    -0.505 OA
ATOM     35  H   UNL     1     -35.085  14.496  -0.057  0.00  0.00    +0.292 HD
ENDBRANCH  31  34
ENDBRANCH  23  25
ENDBRANCH  21  23
ENDBRANCH   6  21
TORSDOF 8
ENDMDL
MODEL 8
REMARK VINA RESULT:      -6.2      3.937      8.486
REMARK  Name = 53493214
REMARK  8 active torsions:
REMARK  status: ('A' for Active; 'I' for Inactive)
REMARK    1  A    between atoms: C_3  and  O_15
REMARK    2  A    between atoms: C_4  and  O_17
REMARK    3  A    between atoms: C_6  and  O_21
REMARK    4  A    between atoms: C_10  and  C_20
REMARK    5  A    between atoms: O_21  and  C_23
REMARK    6  A    between atoms: C_23  and  C_25
REMARK    7  A    between atoms: C_27  and  O_32
REMARK    8  A    between atoms: C_31  and  O_34
REMARK                            x       y       z     vdW  Elec       q    Type
REMARK                         _______ _______ _______ _____ _____    ______ ____
ROOT
ATOM      1  C   UNL     1     -34.375  29.233   1.183  0.00  0.00    +0.036 C 
ATOM      2  C   UNL     1     -32.983  29.753   0.847  0.00  0.00    +0.031 C 
ATOM      3  C   UNL     1     -34.514  28.418   2.500  0.00  0.00    +0.146 C 
ATOM      4  C   UNL     1     -31.868  28.742   1.153  0.00  0.00    +0.107 C 
ATOM      5  C   UNL     1     -34.934  28.002   0.422  0.00  0.00    +0.049 C 
ATOM      6  C   UNL     1     -35.539  27.524   1.756  0.00  0.00    +0.197 C 
ATOM      7  C   UNL     1     -32.639  30.950   1.744  0.00  0.00    +0.003 C 
ATOM      8  C   UNL     1     -31.101  31.026   1.760  0.00  0.00    +0.003 C 
ATOM      9  C   UNL     1     -30.618  29.631   1.300  0.00  0.00    +0.031 C 
ATOM     10  C   UNL     1     -33.290  27.725   2.980  0.00  0.00    +0.045 C 
ATOM     11  C   UNL     1     -35.493  30.318   1.154  0.00  0.00    +0.003 C 
ATOM     12  C   UNL     1     -32.107  27.878   2.368  0.00  0.00    +0.001 C 
ATOM     13  C   UNL     1     -30.590  31.354   3.167  0.00  0.00    +0.000 C 
ATOM     14  C   UNL     1     -30.608  32.106   0.784  0.00  0.00    +0.000 C 
ENDROOT
BRANCH   3  15
ATOM     15  O   UNL     1     -35.130  29.154   3.585  0.00  0.00    -0.379 OA
ATOM     16  H   UNL     1     -36.085  28.983   3.589  0.00  0.00    +0.211 HD
ENDBRANCH   3  15
BRANCH   4  17
ATOM     17  O   UNL     1     -31.680  27.880   0.031  0.00  0.00    -0.383 OA
ATOM     18  H   UNL     1     -31.042  27.187   0.260  0.00  0.00    +0.211 HD
ENDBRANCH   4  17
BRANCH  10  20
ATOM     19  O   UNL     1     -33.847  27.192   5.212  0.00  0.00    -0.283 OA
ATOM     20  C   UNL     1     -33.348  26.844   4.149  0.00  0.00    +0.232 C 
ENDBRANCH  10  20
BRANCH   6  21
ATOM     21  O   UNL     1     -35.485  26.099   1.999  0.00  0.00    -0.446 OA
BRANCH  21  23
ATOM     22  O   UNL     1     -37.722  25.986   2.528  0.00  0.00    -0.245 OA
ATOM     23  C   UNL     1     -36.579  25.564   2.599  0.00  0.00    +0.344 C 
BRANCH  23  25
ATOM     24 CL   UNL     1     -35.233  20.525   2.682  0.00  0.00    -0.079 Cl
ATOM     25  C   UNL     1     -36.203  24.357   3.379  0.00  0.00    +0.106 C 
ATOM     26  C   UNL     1     -35.928  23.153   2.731  0.00  0.00    +0.001 C 
ATOM     27  C   UNL     1     -36.123  24.436   4.769  0.00  0.00    +0.143 C 
ATOM     28  C   UNL     1     -35.576  22.026   3.473  0.00  0.00    +0.088 C 
ATOM     29  C   UNL     1     -35.770  23.308   5.512  0.00  0.00    +0.074 C 
ATOM     30  C   UNL     1     -36.017  23.084   1.237  0.00  0.00    +0.032 C 
ATOM     31  C   UNL     1     -35.497  22.104   4.864  0.00  0.00    +0.147 C 
BRANCH  27  32
ATOM     32  O   UNL     1     -36.386  25.602   5.424  0.00  0.00    -0.505 OA
ATOM     33  H   UNL     1     -36.540  25.596   6.348  0.00  0.00    +0.292 HD
ENDBRANCH  27  32
BRANCH  31  34
ATOM     34  O   UNL     1     -35.155  21.021   5.619  0.00  0.00    -0.505 OA
ATOM     35  H   UNL     1     -35.718  20.272   5.647  0.00  0.00    +0.292 HD
ENDBRANCH  31  34
ENDBRANCH  23  25
ENDBRANCH  21  23
ENDBRANCH   6  21
TORSDOF 8
ENDMDL
MODEL 9
REMARK VINA RESULT:      -6.2      4.399      9.430
REMARK  Name = 53493214
REMARK  8 active torsions:
REMARK  status: ('A' for Active; 'I' for Inactive)
REMARK    1  A    between atoms: C_3  and  O_15
REMARK    2  A    between atoms: C_4  and  O_17
REMARK    3  A    between atoms: C_6  and  O_21
REMARK    4  A    between atoms: C_10  and  C_20
REMARK    5  A    between atoms: O_21  and  C_23
REMARK    6  A    between atoms: C_23  and  C_25
REMARK    7  A    between atoms: C_27  and  O_32
REMARK    8  A    between atoms: C_31  and  O_34
REMARK                            x       y       z     vdW  Elec       q    Type
REMARK                         _______ _______ _______ _____ _____    ______ ____
ROOT
ATOM      1  C   UNL     1     -31.702  28.043   3.346  0.00  0.00    +0.036 C 
ATOM      2  C   UNL     1     -30.817  28.786   4.340  0.00  0.00    +0.031 C 
ATOM      3  C   UNL     1     -32.823  28.873   2.659  0.00  0.00    +0.146 C 
ATOM      4  C   UNL     1     -31.597  29.763   5.233  0.00  0.00    +0.107 C 
ATOM      5  C   UNL     1     -32.803  27.085   3.870  0.00  0.00    +0.049 C 
ATOM      6  C   UNL     1     -33.715  27.608   2.744  0.00  0.00    +0.197 C 
ATOM      7  C   UNL     1     -29.830  29.691   3.592  0.00  0.00    +0.003 C 
ATOM      8  C   UNL     1     -29.418  30.777   4.603  0.00  0.00    +0.003 C 
ATOM      9  C   UNL     1     -30.514  30.758   5.693  0.00  0.00    +0.031 C 
ATOM     10  C   UNL     1     -33.320  30.058   3.406  0.00  0.00    +0.045 C 
ATOM     11  C   UNL     1     -30.921  27.265   2.245  0.00  0.00    +0.003 C 
ATOM     12  C   UNL     1     -32.763  30.449   4.561  0.00  0.00    +0.001 C 
ATOM     13  C   UNL     1     -29.338  32.148   3.921  0.00  0.00    +0.000 C 
ATOM     14  C   UNL     1     -28.051  30.445   5.219  0.00  0.00    +0.000 C 
ENDROOT
BRANCH   3  15
ATOM     15  O   UNL     1     -32.532  29.234   1.287  0.00  0.00    -0.379 OA
ATOM     16  H   UNL     1     -31.608  29.524   1.218  0.00  0.00    +0.211 HD
ENDBRANCH   3  15
BRANCH   4  17
ATOM     17  O   UNL     1     -32.094  29.074   6.380  0.00  0.00    -0.383 OA
ATOM     18  H   UNL     1     -32.935  29.471   6.656  0.00  0.00    +0.211 HD
ENDBRANCH   4  17
BRANCH  10  20
ATOM     19  O   UNL     1     -35.481  31.002   3.534  0.00  0.00    -0.283 OA
ATOM     20  C   UNL     1     -34.451  30.837   2.893  0.00  0.00    +0.232 C 
ENDBRANCH  10  20
BRANCH   6  21
ATOM     21  O   UNL     1     -35.106  27.792   3.093  0.00  0.00    -0.446 OA
BRANCH  21  23
ATOM     22  O   UNL     1     -36.688  27.169   1.541  0.00  0.00    -0.245 OA
ATOM     23  C   UNL     1     -35.977  26.932   2.505  0.00  0.00    +0.344 C 
BRANCH  23  25
ATOM     24 CL   UNL     1     -35.249  21.770   2.310  0.00  0.00    -0.079 Cl
ATOM     25  C   UNL     1     -35.958  25.620   3.201  0.00  0.00    +0.106 C 
ATOM     26  C   UNL     1     -35.648  24.454   2.502  0.00  0.00    +0.001 C 
ATOM     27  C   UNL     1     -36.252  25.561   4.562  0.00  0.00    +0.143 C 
ATOM     28  C   UNL     1     -35.633  23.227   3.165  0.00  0.00    +0.088 C 
ATOM     29  C   UNL     1     -36.236  24.334   5.227  0.00  0.00    +0.074 C 
ATOM     30  C   UNL     1     -35.334  24.533   1.039  0.00  0.00    +0.032 C 
ATOM     31  C   UNL     1     -35.927  23.167   4.527  0.00  0.00    +0.147 C 
BRANCH  27  32
ATOM     32  O   UNL     1     -36.557  26.688   5.266  0.00  0.00    -0.505 OA
ATOM     33  H   UNL     1     -36.979  26.620   6.099  0.00  0.00    +0.292 HD
ENDBRANCH  27  32
BRANCH  31  34
ATOM     34  O   UNL     1     -35.920  21.984   5.205  0.00  0.00    -0.505 OA
ATOM     35  H   UNL     1     -36.650  21.400   5.137  0.00  0.00    +0.292 HD
ENDBRANCH  31  34
ENDBRANCH  23  25
ENDBRANCH  21  23
ENDBRANCH   6  21
TORSDOF 8
ENDMDL
