MODEL 1
REMARK VINA RESULT:      -5.9      0.000      0.000
REMARK  Name = 5281204
REMARK  14 active torsions:
REMARK  status: ('A' for Active; 'I' for Inactive)
REMARK    1  A    between atoms: O_1  and  C_7
REMARK    2  A    between atoms: O_1  and  C_17
REMARK    3  A    between atoms: C_3  and  O_8
REMARK    4  A    between atoms: C_4  and  O_10
REMARK    5  A    between atoms: C_5  and  O_12
REMARK    6  A    between atoms: C_6  and  C_14
REMARK    7  A    between atoms: C_14  and  O_15
REMARK    8  A    between atoms: C_17  and  C_18
REMARK    9  A    between atoms: C_18  and  C_20
REMARK   10  A    between atoms: C_19  and  C_21
REMARK   11  A    between atoms: C_21  and  C_24
REMARK   12  A    between atoms: C_23  and  C_28
REMARK   13  A    between atoms: C_28  and  C_30
REMARK   14  A    between atoms: C_30  and  O_31
REMARK                            x       y       z     vdW  Elec       q    Type
REMARK                         _______ _______ _______ _____ _____    ______ ____
ROOT
ATOM      1  O   UNL     1     -39.240  23.889   2.759  0.00  0.00    -0.328 OA
ENDROOT
BRANCH   1   7
ATOM      2  O   UNL     1     -37.330  23.013   3.774  0.00  0.00    -0.326 OA
ATOM      3  C   UNL     1     -36.413  25.634   4.509  0.00  0.00    +0.172 C 
ATOM      4  C   UNL     1     -35.803  24.359   5.091  0.00  0.00    +0.169 C 
ATOM      5  C   UNL     1     -37.827  25.380   3.983  0.00  0.00    +0.196 C 
ATOM      6  C   UNL     1     -35.954  23.190   4.115  0.00  0.00    +0.176 C 
ATOM      7  C   UNL     1     -37.874  24.139   3.092  0.00  0.00    +0.266 C 
BRANCH   3   8
ATOM      8  O   UNL     1     -36.461  26.615   5.546  0.00  0.00    -0.379 OA
ATOM      9  H   UNL     1     -35.559  26.829   5.830  0.00  0.00    +0.211 HD
ENDBRANCH   3   8
BRANCH   4  10
ATOM     10  O   UNL     1     -34.420  24.577   5.355  0.00  0.00    -0.379 OA
ATOM     11  H   UNL     1     -34.316  25.373   5.899  0.00  0.00    +0.211 HD
ENDBRANCH   4  10
BRANCH   5  12
ATOM     12  O   UNL     1     -38.253  26.502   3.210  0.00  0.00    -0.378 OA
ATOM     13  H   UNL     1     -39.068  26.278   2.736  0.00  0.00    +0.211 HD
ENDBRANCH   5  12
BRANCH   6  14
ATOM     14  C   UNL     1     -35.457  21.880   4.720  0.00  0.00    +0.169 C 
BRANCH  14  15
ATOM     15  O   UNL     1     -35.939  21.786   6.048  0.00  0.00    -0.379 OA
ATOM     16  H   UNL     1     -35.285  22.166   6.656  0.00  0.00    +0.211 HD
ENDBRANCH  14  15
ENDBRANCH   6  14
ENDBRANCH   1   7
BRANCH   1  17
ATOM     17  C   UNL     1     -39.454  23.976   1.360  0.00  0.00    +0.150 C 
BRANCH  17  18
ATOM     18  C   UNL     1     -40.885  24.424   1.088  0.00  0.00    +0.058 C 
BRANCH  18  20
ATOM     19  C   UNL     1     -41.363  26.751   1.899  0.00  0.00    -0.030 C 
ATOM     20  C   UNL     1     -40.979  25.915   0.924  0.00  0.00    -0.028 C 
BRANCH  19  21
ATOM     21  C   UNL     1     -41.748  26.302   3.277  0.00  0.00    +0.033 C 
BRANCH  21  24
ATOM     22  O   UNL     1     -41.991  28.874   4.716  0.00  0.00    -0.296 OA
ATOM     23  C   UNL     1     -44.114  26.984   2.603  0.00  0.00    +0.019 C 
ATOM     24  C   UNL     1     -43.056  26.932   3.719  0.00  0.00    +0.062 C 
ATOM     25  C   UNL     1     -45.002  28.165   3.003  0.00  0.00    +0.009 C 
ATOM     26  C   UNL     1     -44.021  29.235   3.467  0.00  0.00    +0.065 C 
ATOM     27  C   UNL     1     -42.907  28.404   4.052  0.00  0.00    +0.151 C 
BRANCH  23  28
ATOM     28  C   UNL     1     -44.903  25.690   2.465  0.00  0.00    +0.110 C 
BRANCH  28  30
ATOM     29  O   UNL     1     -44.377  25.638   0.087  0.00  0.00    -0.250 OA
ATOM     30  C   UNL     1     -44.723  25.064   1.107  0.00  0.00    +0.314 C 
BRANCH  30  31
ATOM     31  O   UNL     1     -45.003  23.737   1.169  0.00  0.00    -0.480 OA
ATOM     32  H   UNL     1     -44.669  23.156   0.514  0.00  0.00    +0.295 HD
ENDBRANCH  30  31
ENDBRANCH  28  30
ENDBRANCH  23  28
ENDBRANCH  21  24
ENDBRANCH  19  21
ENDBRANCH  18  20
ENDBRANCH  17  18
ENDBRANCH   1  17
TORSDOF 14
ENDMDL
MODEL 2
REMARK VINA RESULT:      -5.9      6.016      8.741
REMARK  Name = 5281204
REMARK  14 active torsions:
REMARK  status: ('A' for Active; 'I' for Inactive)
REMARK    1  A    between atoms: O_1  and  C_7
REMARK    2  A    between atoms: O_1  and  C_17
REMARK    3  A    between atoms: C_3  and  O_8
REMARK    4  A    between atoms: C_4  and  O_10
REMARK    5  A    between atoms: C_5  and  O_12
REMARK    6  A    between atoms: C_6  and  C_14
REMARK    7  A    between atoms: C_14  and  O_15
REMARK    8  A    between atoms: C_17  and  C_18
REMARK    9  A    between atoms: C_18  and  C_20
REMARK   10  A    between atoms: C_19  and  C_21
REMARK   11  A    between atoms: C_21  and  C_24
REMARK   12  A    between atoms: C_23  and  C_28
REMARK   13  A    between atoms: C_28  and  C_30
REMARK   14  A    between atoms: C_30  and  O_31
REMARK                            x       y       z     vdW  Elec       q    Type
REMARK                         _______ _______ _______ _____ _____    ______ ____
ROOT
ATOM      1  O   UNL     1     -35.396  20.303   0.095  0.00  0.00    -0.328 OA
ENDROOT
BRANCH   1   7
ATOM      2  O   UNL     1     -35.392  17.993  -0.237  0.00  0.00    -0.326 OA
ATOM      3  C   UNL     1     -32.632  17.801   0.536  0.00  0.00    +0.172 C 
ATOM      4  C   UNL     1     -33.534  16.574   0.406  0.00  0.00    +0.169 C 
ATOM      5  C   UNL     1     -33.454  19.072   0.752  0.00  0.00    +0.196 C 
ATOM      6  C   UNL     1     -34.653  16.828  -0.607  0.00  0.00    +0.176 C 
ATOM      7  C   UNL     1     -34.596  19.175  -0.260  0.00  0.00    +0.266 C 
BRANCH   3   8
ATOM      8  O   UNL     1     -31.767  17.598   1.654  0.00  0.00    -0.379 OA
ATOM      9  H   UNL     1     -32.298  17.406   2.442  0.00  0.00    +0.211 HD
ENDBRANCH   3   8
BRANCH   4  10
ATOM     10  O   UNL     1     -32.756  15.459  -0.022  0.00  0.00    -0.379 OA
ATOM     11  H   UNL     1     -33.342  14.772  -0.376  0.00  0.00    +0.211 HD
ENDBRANCH   4  10
BRANCH   5  12
ATOM     12  O   UNL     1     -32.612  20.213   0.594  0.00  0.00    -0.378 OA
ATOM     13  H   UNL     1     -33.018  20.978   1.031  0.00  0.00    +0.211 HD
ENDBRANCH   5  12
BRANCH   6  14
ATOM     14  C   UNL     1     -35.635  15.660  -0.668  0.00  0.00    +0.169 C 
BRANCH  14  15
ATOM     15  O   UNL     1     -35.800  15.141   0.639  0.00  0.00    -0.379 OA
ATOM     16  H   UNL     1     -35.548  14.204   0.647  0.00  0.00    +0.211 HD
ENDBRANCH  14  15
ENDBRANCH   6  14
ENDBRANCH   1   7
BRANCH   1  17
ATOM     17  C   UNL     1     -36.471  19.927   0.941  0.00  0.00    +0.150 C 
BRANCH  17  18
ATOM     18  C   UNL     1     -36.348  20.650   2.276  0.00  0.00    +0.058 C 
BRANCH  18  20
ATOM     19  C   UNL     1     -36.508  23.156   2.303  0.00  0.00    -0.030 C 
ATOM     20  C   UNL     1     -37.099  21.953   2.274  0.00  0.00    -0.028 C 
BRANCH  19  21
ATOM     21  C   UNL     1     -35.021  23.353   2.343  0.00  0.00    +0.033 C 
BRANCH  21  24
ATOM     22  O   UNL     1     -35.090  26.300   2.117  0.00  0.00    -0.296 OA
ATOM     23  C   UNL     1     -35.266  23.997   4.802  0.00  0.00    +0.019 C 
ATOM     24  C   UNL     1     -34.622  24.319   3.442  0.00  0.00    +0.062 C 
ATOM     25  C   UNL     1     -35.296  25.350   5.517  0.00  0.00    +0.009 C 
ATOM     26  C   UNL     1     -35.732  26.337   4.440  0.00  0.00    +0.065 C 
ATOM     27  C   UNL     1     -35.140  25.724   3.196  0.00  0.00    +0.151 C 
BRANCH  23  28
ATOM     28  C   UNL     1     -34.503  22.944   5.592  0.00  0.00    +0.110 C 
BRANCH  28  30
ATOM     29  O   UNL     1     -36.320  21.991   6.905  0.00  0.00    -0.250 OA
ATOM     30  C   UNL     1     -35.411  21.856   6.101  0.00  0.00    +0.314 C 
BRANCH  30  31
ATOM     31  O   UNL     1     -35.076  20.670   5.532  0.00  0.00    -0.480 OA
ATOM     32  H   UNL     1     -35.549  19.892   5.756  0.00  0.00    +0.295 HD
ENDBRANCH  30  31
ENDBRANCH  28  30
ENDBRANCH  23  28
ENDBRANCH  21  24
ENDBRANCH  19  21
ENDBRANCH  18  20
ENDBRANCH  17  18
ENDBRANCH   1  17
TORSDOF 14
ENDMDL
MODEL 3
REMARK VINA RESULT:      -5.9      3.572      8.389
REMARK  Name = 5281204
REMARK  14 active torsions:
REMARK  status: ('A' for Active; 'I' for Inactive)
REMARK    1  A    between atoms: O_1  and  C_7
REMARK    2  A    between atoms: O_1  and  C_17
REMARK    3  A    between atoms: C_3  and  O_8
REMARK    4  A    between atoms: C_4  and  O_10
REMARK    5  A    between atoms: C_5  and  O_12
REMARK    6  A    between atoms: C_6  and  C_14
REMARK    7  A    between atoms: C_14  and  O_15
REMARK    8  A    between atoms: C_17  and  C_18
REMARK    9  A    between atoms: C_18  and  C_20
REMARK   10  A    between atoms: C_19  and  C_21
REMARK   11  A    between atoms: C_21  and  C_24
REMARK   12  A    between atoms: C_23  and  C_28
REMARK   13  A    between atoms: C_28  and  C_30
REMARK   14  A    between atoms: C_30  and  O_31
REMARK                            x       y       z     vdW  Elec       q    Type
REMARK                         _______ _______ _______ _____ _____    ______ ____
ROOT
ATOM      1  O   UNL     1     -35.713  22.389   3.221  0.00  0.00    -0.328 OA
ENDROOT
BRANCH   1   7
ATOM      2  O   UNL     1     -37.414  23.960   2.932  0.00  0.00    -0.326 OA
ATOM      3  C   UNL     1     -39.196  21.966   1.885  0.00  0.00    +0.172 C 
ATOM      4  C   UNL     1     -39.677  23.352   2.313  0.00  0.00    +0.169 C 
ATOM      5  C   UNL     1     -37.875  21.605   2.565  0.00  0.00    +0.196 C 
ATOM      6  C   UNL     1     -38.553  24.382   2.181  0.00  0.00    +0.176 C 
ATOM      7  C   UNL     1     -36.859  22.741   2.446  0.00  0.00    +0.266 C 
BRANCH   3   8
ATOM      8  O   UNL     1     -40.197  21.017   2.255  0.00  0.00    -0.379 OA
ATOM      9  H   UNL     1     -40.803  20.880   1.511  0.00  0.00    +0.211 HD
ENDBRANCH   3   8
BRANCH   4  10
ATOM     10  O   UNL     1     -40.775  23.745   1.493  0.00  0.00    -0.379 OA
ATOM     11  H   UNL     1     -40.973  23.038   0.859  0.00  0.00    +0.211 HD
ENDBRANCH   4  10
BRANCH   5  12
ATOM     12  O   UNL     1     -37.324  20.444   1.943  0.00  0.00    -0.378 OA
ATOM     13  H   UNL     1     -37.727  20.323   1.070  0.00  0.00    +0.211 HD
ENDBRANCH   5  12
BRANCH   6  14
ATOM     14  C   UNL     1     -38.974  25.750   2.712  0.00  0.00    +0.169 C 
BRANCH  14  15
ATOM     15  O   UNL     1     -37.963  26.226   3.582  0.00  0.00    -0.379 OA
ATOM     16  H   UNL     1     -38.307  26.973   4.098  0.00  0.00    +0.211 HD
ENDBRANCH  14  15
ENDBRANCH   6  14
ENDBRANCH   1   7
BRANCH   1  17
ATOM     17  C   UNL     1     -36.018  22.355   4.606  0.00  0.00    +0.150 C 
BRANCH  17  18
ATOM     18  C   UNL     1     -34.903  23.034   5.393  0.00  0.00    +0.058 C 
BRANCH  18  20
ATOM     19  C   UNL     1     -34.719  25.498   4.950  0.00  0.00    -0.030 C 
ATOM     20  C   UNL     1     -35.215  24.478   5.666  0.00  0.00    -0.028 C 
BRANCH  19  21
ATOM     21  C   UNL     1     -33.790  25.324   3.786  0.00  0.00    +0.033 C 
BRANCH  21  24
ATOM     22  O   UNL     1     -35.476  26.217   1.527  0.00  0.00    -0.296 OA
ATOM     23  C   UNL     1     -33.467  27.852   3.942  0.00  0.00    +0.019 C 
ATOM     24  C   UNL     1     -33.608  26.625   3.026  0.00  0.00    +0.062 C 
ATOM     25  C   UNL     1     -33.956  29.012   3.070  0.00  0.00    +0.009 C 
ATOM     26  C   UNL     1     -35.188  28.459   2.363  0.00  0.00    +0.065 C 
ATOM     27  C   UNL     1     -34.836  27.000   2.218  0.00  0.00    +0.151 C 
BRANCH  23  28
ATOM     28  C   UNL     1     -32.046  28.066   4.442  0.00  0.00    +0.110 C 
BRANCH  28  30
ATOM     29  O   UNL     1     -32.075  29.469   6.434  0.00  0.00    -0.250 OA
ATOM     30  C   UNL     1     -32.008  28.364   5.918  0.00  0.00    +0.314 C 
BRANCH  30  31
ATOM     31  O   UNL     1     -31.886  27.209   6.621  0.00  0.00    -0.480 OA
ATOM     32  H   UNL     1     -32.628  26.849   7.064  0.00  0.00    +0.295 HD
ENDBRANCH  30  31
ENDBRANCH  28  30
ENDBRANCH  23  28
ENDBRANCH  21  24
ENDBRANCH  19  21
ENDBRANCH  18  20
ENDBRANCH  17  18
ENDBRANCH   1  17
TORSDOF 14
ENDMDL
MODEL 4
REMARK VINA RESULT:      -5.8      4.494      7.607
REMARK  Name = 5281204
REMARK  14 active torsions:
REMARK  status: ('A' for Active; 'I' for Inactive)
REMARK    1  A    between atoms: O_1  and  C_7
REMARK    2  A    between atoms: O_1  and  C_17
REMARK    3  A    between atoms: C_3  and  O_8
REMARK    4  A    between atoms: C_4  and  O_10
REMARK    5  A    between atoms: C_5  and  O_12
REMARK    6  A    between atoms: C_6  and  C_14
REMARK    7  A    between atoms: C_14  and  O_15
REMARK    8  A    between atoms: C_17  and  C_18
REMARK    9  A    between atoms: C_18  and  C_20
REMARK   10  A    between atoms: C_19  and  C_21
REMARK   11  A    between atoms: C_21  and  C_24
REMARK   12  A    between atoms: C_23  and  C_28
REMARK   13  A    between atoms: C_28  and  C_30
REMARK   14  A    between atoms: C_30  and  O_31
REMARK                            x       y       z     vdW  Elec       q    Type
REMARK                         _______ _______ _______ _____ _____    ______ ____
ROOT
ATOM      1  O   UNL     1     -38.587  23.569   3.139  0.00  0.00    -0.328 OA
ENDROOT
BRANCH   1   7
ATOM      2  O   UNL     1     -36.767  23.040   4.499  0.00  0.00    -0.326 OA
ATOM      3  C   UNL     1     -35.637  25.658   4.152  0.00  0.00    +0.172 C 
ATOM      4  C   UNL     1     -35.141  24.686   5.223  0.00  0.00    +0.169 C 
ATOM      5  C   UNL     1     -37.062  25.319   3.714  0.00  0.00    +0.196 C 
ATOM      6  C   UNL     1     -35.383  23.237   4.795  0.00  0.00    +0.176 C 
ATOM      7  C   UNL     1     -37.208  23.830   3.398  0.00  0.00    +0.266 C 
BRANCH   3   8
ATOM      8  O   UNL     1     -35.609  26.976   4.702  0.00  0.00    -0.379 OA
ATOM      9  H   UNL     1     -34.992  27.000   5.450  0.00  0.00    +0.211 HD
ENDBRANCH   3   8
BRANCH   4  10
ATOM     10  O   UNL     1     -33.746  24.889   5.434  0.00  0.00    -0.379 OA
ATOM     11  H   UNL     1     -33.558  24.873   6.385  0.00  0.00    +0.211 HD
ENDBRANCH   4  10
BRANCH   5  12
ATOM     12  O   UNL     1     -37.386  26.060   2.538  0.00  0.00    -0.378 OA
ATOM     13  H   UNL     1     -38.346  26.185   2.488  0.00  0.00    +0.211 HD
ENDBRANCH   5  12
BRANCH   6  14
ATOM     14  C   UNL     1     -35.004  22.252   5.898  0.00  0.00    +0.169 C 
BRANCH  14  15
ATOM     15  O   UNL     1     -35.260  20.938   5.436  0.00  0.00    -0.379 OA
ATOM     16  H   UNL     1     -35.143  20.907   4.473  0.00  0.00    +0.211 HD
ENDBRANCH  14  15
ENDBRANCH   6  14
ENDBRANCH   1   7
BRANCH   1  17
ATOM     17  C   UNL     1     -38.772  23.003   1.851  0.00  0.00    +0.150 C 
BRANCH  17  18
ATOM     18  C   UNL     1     -38.712  21.484   1.947  0.00  0.00    +0.058 C 
BRANCH  18  20
ATOM     19  C   UNL     1     -36.758  20.416   0.787  0.00  0.00    -0.030 C 
ATOM     20  C   UNL     1     -38.017  20.879   0.759  0.00  0.00    -0.028 C 
BRANCH  19  21
ATOM     21  C   UNL     1     -35.886  20.445   2.007  0.00  0.00    +0.033 C 
BRANCH  21  24
ATOM     22  O   UNL     1     -33.614  18.621   1.505  0.00  0.00    -0.296 OA
ATOM     23  C   UNL     1     -34.419  21.933   0.540  0.00  0.00    +0.019 C 
ATOM     24  C   UNL     1     -34.475  20.887   1.667  0.00  0.00    +0.062 C 
ATOM     25  C   UNL     1     -33.027  21.734  -0.067  0.00  0.00    +0.009 C 
ATOM     26  C   UNL     1     -32.857  20.220  -0.131  0.00  0.00    +0.065 C 
ATOM     27  C   UNL     1     -33.645  19.766   1.070  0.00  0.00    +0.151 C 
BRANCH  23  28
ATOM     28  C   UNL     1     -34.634  23.356   1.033  0.00  0.00    +0.110 C 
BRANCH  28  30
ATOM     29  O   UNL     1     -36.323  23.645  -0.701  0.00  0.00    -0.250 OA
ATOM     30  C   UNL     1     -35.581  24.121   0.145  0.00  0.00    +0.314 C 
BRANCH  30  31
ATOM     31  O   UNL     1     -35.498  25.448   0.415  0.00  0.00    -0.480 OA
ATOM     32  H   UNL     1     -35.100  25.741   1.211  0.00  0.00    +0.295 HD
ENDBRANCH  30  31
ENDBRANCH  28  30
ENDBRANCH  23  28
ENDBRANCH  21  24
ENDBRANCH  19  21
ENDBRANCH  18  20
ENDBRANCH  17  18
ENDBRANCH   1  17
TORSDOF 14
ENDMDL
MODEL 5
REMARK VINA RESULT:      -5.8      5.924     10.909
REMARK  Name = 5281204
REMARK  14 active torsions:
REMARK  status: ('A' for Active; 'I' for Inactive)
REMARK    1  A    between atoms: O_1  and  C_7
REMARK    2  A    between atoms: O_1  and  C_17
REMARK    3  A    between atoms: C_3  and  O_8
REMARK    4  A    between atoms: C_4  and  O_10
REMARK    5  A    between atoms: C_5  and  O_12
REMARK    6  A    between atoms: C_6  and  C_14
REMARK    7  A    between atoms: C_14  and  O_15
REMARK    8  A    between atoms: C_17  and  C_18
REMARK    9  A    between atoms: C_18  and  C_20
REMARK   10  A    between atoms: C_19  and  C_21
REMARK   11  A    between atoms: C_21  and  C_24
REMARK   12  A    between atoms: C_23  and  C_28
REMARK   13  A    between atoms: C_28  and  C_30
REMARK   14  A    between atoms: C_30  and  O_31
REMARK                            x       y       z     vdW  Elec       q    Type
REMARK                         _______ _______ _______ _____ _____    ______ ____
ROOT
ATOM      1  O   UNL     1     -34.882  26.462   5.502  0.00  0.00    -0.328 OA
ENDROOT
BRANCH   1   7
ATOM      2  O   UNL     1     -34.886  24.130   5.429  0.00  0.00    -0.326 OA
ATOM      3  C   UNL     1     -36.789  24.113   3.279  0.00  0.00    +0.172 C 
ATOM      4  C   UNL     1     -36.003  22.868   3.688  0.00  0.00    +0.169 C 
ATOM      5  C   UNL     1     -36.077  25.390   3.730  0.00  0.00    +0.196 C 
ATOM      6  C   UNL     1     -35.617  22.931   5.167  0.00  0.00    +0.176 C 
ATOM      7  C   UNL     1     -35.659  25.304   5.198  0.00  0.00    +0.266 C 
BRANCH   3   8
ATOM      8  O   UNL     1     -36.909  24.114   1.855  0.00  0.00    -0.379 OA
ATOM      9  H   UNL     1     -36.212  23.560   1.472  0.00  0.00    +0.211 HD
ENDBRANCH   3   8
BRANCH   4  10
ATOM     10  O   UNL     1     -36.803  21.710   3.458  0.00  0.00    -0.379 OA
ATOM     11  H   UNL     1     -37.651  21.975   3.070  0.00  0.00    +0.211 HD
ENDBRANCH   4  10
BRANCH   5  12
ATOM     12  O   UNL     1     -36.959  26.502   3.580  0.00  0.00    -0.378 OA
ATOM     13  H   UNL     1     -37.482  26.393   2.771  0.00  0.00    +0.211 HD
ENDBRANCH   5  12
BRANCH   6  14
ATOM     14  C   UNL     1     -34.732  21.754   5.570  0.00  0.00    +0.169 C 
BRANCH  14  15
ATOM     15  O   UNL     1     -35.564  20.687   5.985  0.00  0.00    -0.379 OA
ATOM     16  H   UNL     1     -36.383  20.695   5.464  0.00  0.00    +0.211 HD
ENDBRANCH  14  15
ENDBRANCH   6  14
ENDBRANCH   1   7
BRANCH   1  17
ATOM     17  C   UNL     1     -33.666  26.472   4.772  0.00  0.00    +0.150 C 
BRANCH  17  18
ATOM     18  C   UNL     1     -32.907  27.762   5.058  0.00  0.00    +0.058 C 
BRANCH  18  20
ATOM     19  C   UNL     1     -31.793  28.854   7.026  0.00  0.00    -0.030 C 
ATOM     20  C   UNL     1     -32.325  27.769   6.445  0.00  0.00    -0.028 C 
BRANCH  19  21
ATOM     21  C   UNL     1     -31.710  30.197   6.365  0.00  0.00    +0.033 C 
BRANCH  21  24
ATOM     22  O   UNL     1     -31.813  31.512   3.719  0.00  0.00    -0.296 OA
ATOM     23  C   UNL     1     -29.235  30.717   6.014  0.00  0.00    +0.019 C 
ATOM     24  C   UNL     1     -30.559  30.258   5.379  0.00  0.00    +0.062 C 
ATOM     25  C   UNL     1     -28.464  31.328   4.841  0.00  0.00    +0.009 C 
ATOM     26  C   UNL     1     -29.511  32.132   4.079  0.00  0.00    +0.065 C 
ATOM     27  C   UNL     1     -30.761  31.323   4.317  0.00  0.00    +0.151 C 
BRANCH  23  28
ATOM     28  C   UNL     1     -28.468  29.586   6.682  0.00  0.00    +0.110 C 
BRANCH  28  30
ATOM     29  O   UNL     1     -27.106  30.892   8.224  0.00  0.00    -0.250 OA
ATOM     30  C   UNL     1     -27.912  29.998   8.021  0.00  0.00    +0.314 C 
BRANCH  30  31
ATOM     31  O   UNL     1     -28.440  29.220   9.000  0.00  0.00    -0.480 OA
ATOM     32  H   UNL     1     -28.563  28.302   8.855  0.00  0.00    +0.295 HD
ENDBRANCH  30  31
ENDBRANCH  28  30
ENDBRANCH  23  28
ENDBRANCH  21  24
ENDBRANCH  19  21
ENDBRANCH  18  20
ENDBRANCH  17  18
ENDBRANCH   1  17
TORSDOF 14
ENDMDL
MODEL 6
REMARK VINA RESULT:      -5.8      6.443      9.536
REMARK  Name = 5281204
REMARK  14 active torsions:
REMARK  status: ('A' for Active; 'I' for Inactive)
REMARK    1  A    between atoms: O_1  and  C_7
REMARK    2  A    between atoms: O_1  and  C_17
REMARK    3  A    between atoms: C_3  and  O_8
REMARK    4  A    between atoms: C_4  and  O_10
REMARK    5  A    between atoms: C_5  and  O_12
REMARK    6  A    between atoms: C_6  and  C_14
REMARK    7  A    between atoms: C_14  and  O_15
REMARK    8  A    between atoms: C_17  and  C_18
REMARK    9  A    between atoms: C_18  and  C_20
REMARK   10  A    between atoms: C_19  and  C_21
REMARK   11  A    between atoms: C_21  and  C_24
REMARK   12  A    between atoms: C_23  and  C_28
REMARK   13  A    between atoms: C_28  and  C_30
REMARK   14  A    between atoms: C_30  and  O_31
REMARK                            x       y       z     vdW  Elec       q    Type
REMARK                         _______ _______ _______ _____ _____    ______ ____
ROOT
ATOM      1  O   UNL     1     -35.379  21.722   0.823  0.00  0.00    -0.328 OA
ENDROOT
BRANCH   1   7
ATOM      2  O   UNL     1     -34.978  23.404   2.390  0.00  0.00    -0.326 OA
ATOM      3  C   UNL     1     -35.672  21.662   4.565  0.00  0.00    +0.172 C 
ATOM      4  C   UNL     1     -34.969  23.002   4.780  0.00  0.00    +0.169 C 
ATOM      5  C   UNL     1     -35.455  21.145   3.142  0.00  0.00    +0.196 C 
ATOM      6  C   UNL     1     -35.309  23.980   3.654  0.00  0.00    +0.176 C 
ATOM      7  C   UNL     1     -35.739  22.233   2.106  0.00  0.00    +0.266 C 
BRANCH   3   8
ATOM      8  O   UNL     1     -35.134  20.725   5.499  0.00  0.00    -0.379 OA
ATOM      9  H   UNL     1     -35.816  20.483   6.144  0.00  0.00    +0.211 HD
ENDBRANCH   3   8
BRANCH   4  10
ATOM     10  O   UNL     1     -35.383  23.556   6.027  0.00  0.00    -0.379 OA
ATOM     11  H   UNL     1     -36.255  23.967   5.924  0.00  0.00    +0.211 HD
ENDBRANCH   4  10
BRANCH   5  12
ATOM     12  O   UNL     1     -36.338  20.051   2.896  0.00  0.00    -0.378 OA
ATOM     13  H   UNL     1     -36.698  19.730   3.737  0.00  0.00    +0.211 HD
ENDBRANCH   5  12
BRANCH   6  14
ATOM     14  C   UNL     1     -34.528  25.285   3.784  0.00  0.00    +0.169 C 
BRANCH  14  15
ATOM     15  O   UNL     1     -33.362  25.038   4.549  0.00  0.00    -0.379 OA
ATOM     16  H   UNL     1     -32.612  24.885   3.952  0.00  0.00    +0.211 HD
ENDBRANCH  14  15
ENDBRANCH   6  14
ENDBRANCH   1   7
BRANCH   1  17
ATOM     17  C   UNL     1     -34.086  22.161   0.437  0.00  0.00    +0.150 C 
BRANCH  17  18
ATOM     18  C   UNL     1     -33.482  21.170  -0.550  0.00  0.00    +0.058 C 
BRANCH  18  20
ATOM     19  C   UNL     1     -32.321  19.357   0.740  0.00  0.00    -0.030 C 
ATOM     20  C   UNL     1     -32.271  20.486   0.019  0.00  0.00    -0.028 C 
BRANCH  19  21
ATOM     21  C   UNL     1     -33.594  18.635   1.070  0.00  0.00    +0.033 C 
BRANCH  21  24
ATOM     22  O   UNL     1     -32.480  16.006   0.301  0.00  0.00    -0.296 OA
ATOM     23  C   UNL     1     -35.600  17.623  -0.141  0.00  0.00    +0.019 C 
ATOM     24  C   UNL     1     -34.072  17.796  -0.100  0.00  0.00    +0.062 C 
ATOM     25  C   UNL     1     -35.793  16.305  -0.897  0.00  0.00    +0.009 C 
ATOM     26  C   UNL     1     -34.722  15.383  -0.328  0.00  0.00    +0.065 C 
ATOM     27  C   UNL     1     -33.614  16.353  -0.005  0.00  0.00    +0.151 C 
BRANCH  23  28
ATOM     28  C   UNL     1     -36.317  18.784  -0.814  0.00  0.00    +0.110 C 
BRANCH  28  30
ATOM     29  O   UNL     1     -38.684  18.216  -0.695  0.00  0.00    -0.250 OA
ATOM     30  C   UNL     1     -37.743  18.911  -0.345  0.00  0.00    +0.314 C 
BRANCH  30  31
ATOM     31  O   UNL     1     -37.848  19.932   0.544  0.00  0.00    -0.480 OA
ATOM     32  H   UNL     1     -38.601  19.995   1.099  0.00  0.00    +0.295 HD
ENDBRANCH  30  31
ENDBRANCH  28  30
ENDBRANCH  23  28
ENDBRANCH  21  24
ENDBRANCH  19  21
ENDBRANCH  18  20
ENDBRANCH  17  18
ENDBRANCH   1  17
TORSDOF 14
ENDMDL
MODEL 7
REMARK VINA RESULT:      -5.7      6.044      8.519
REMARK  Name = 5281204
REMARK  14 active torsions:
REMARK  status: ('A' for Active; 'I' for Inactive)
REMARK    1  A    between atoms: O_1  and  C_7
REMARK    2  A    between atoms: O_1  and  C_17
REMARK    3  A    between atoms: C_3  and  O_8
REMARK    4  A    between atoms: C_4  and  O_10
REMARK    5  A    between atoms: C_5  and  O_12
REMARK    6  A    between atoms: C_6  and  C_14
REMARK    7  A    between atoms: C_14  and  O_15
REMARK    8  A    between atoms: C_17  and  C_18
REMARK    9  A    between atoms: C_18  and  C_20
REMARK   10  A    between atoms: C_19  and  C_21
REMARK   11  A    between atoms: C_21  and  C_24
REMARK   12  A    between atoms: C_23  and  C_28
REMARK   13  A    between atoms: C_28  and  C_30
REMARK   14  A    between atoms: C_30  and  O_31
REMARK                            x       y       z     vdW  Elec       q    Type
REMARK                         _______ _______ _______ _____ _____    ______ ____
ROOT
ATOM      1  O   UNL     1     -32.024  28.563   3.199  0.00  0.00    -0.328 OA
ENDROOT
BRANCH   1   7
ATOM      2  O   UNL     1     -30.073  28.019   4.359  0.00  0.00    -0.326 OA
ATOM      3  C   UNL     1     -30.915  29.528   6.653  0.00  0.00    +0.172 C 
ATOM      4  C   UNL     1     -29.745  28.547   6.702  0.00  0.00    +0.169 C 
ATOM      5  C   UNL     1     -31.862  29.204   5.497  0.00  0.00    +0.196 C 
ATOM      6  C   UNL     1     -29.094  28.408   5.324  0.00  0.00    +0.176 C 
ATOM      7  C   UNL     1     -31.094  28.999   4.191  0.00  0.00    +0.266 C 
BRANCH   3   8
ATOM      8  O   UNL     1     -31.624  29.434   7.890  0.00  0.00    -0.379 OA
ATOM      9  H   UNL     1     -31.019  29.617   8.624  0.00  0.00    +0.211 HD
ENDBRANCH   3   8
BRANCH   4  10
ATOM     10  O   UNL     1     -28.775  29.015   7.636  0.00  0.00    -0.379 OA
ATOM     11  H   UNL     1     -27.982  28.459   7.585  0.00  0.00    +0.211 HD
ENDBRANCH   4  10
BRANCH   5  12
ATOM     12  O   UNL     1     -32.775  30.285   5.315  0.00  0.00    -0.378 OA
ATOM     13  H   UNL     1     -33.608  30.086   5.770  0.00  0.00    +0.211 HD
ENDBRANCH   5  12
BRANCH   6  14
ATOM     14  C   UNL     1     -27.998  27.346   5.321  0.00  0.00    +0.169 C 
BRANCH  14  15
ATOM     15  O   UNL     1     -28.153  26.535   6.471  0.00  0.00    -0.379 OA
ATOM     16  H   UNL     1     -28.728  26.987   7.109  0.00  0.00    +0.211 HD
ENDBRANCH  14  15
ENDBRANCH   6  14
ENDBRANCH   1   7
BRANCH   1  17
ATOM     17  C   UNL     1     -32.534  27.274   3.502  0.00  0.00    +0.150 C 
BRANCH  17  18
ATOM     18  C   UNL     1     -33.976  27.169   3.023  0.00  0.00    +0.058 C 
BRANCH  18  20
ATOM     19  C   UNL     1     -34.872  25.110   1.899  0.00  0.00    -0.030 C 
ATOM     20  C   UNL     1     -34.110  26.213   1.870  0.00  0.00    -0.028 C 
BRANCH  19  21
ATOM     21  C   UNL     1     -35.686  24.691   3.086  0.00  0.00    +0.033 C 
BRANCH  21  24
ATOM     22  O   UNL     1     -34.528  25.139   5.770  0.00  0.00    -0.296 OA
ATOM     23  C   UNL     1     -35.730  22.310   4.009  0.00  0.00    +0.019 C 
ATOM     24  C   UNL     1     -34.963  23.640   3.908  0.00  0.00    +0.062 C 
ATOM     25  C   UNL     1     -35.226  21.701   5.320  0.00  0.00    +0.009 C 
ATOM     26  C   UNL     1     -35.180  22.877   6.289  0.00  0.00    +0.065 C 
ATOM     27  C   UNL     1     -34.848  24.026   5.371  0.00  0.00    +0.151 C 
BRANCH  23  28
ATOM     28  C   UNL     1     -35.496  21.392   2.819  0.00  0.00    +0.110 C 
BRANCH  28  30
ATOM     29  O   UNL     1     -37.701  21.580   1.798  0.00  0.00    -0.250 OA
ATOM     30  C   UNL     1     -36.790  20.892   2.232  0.00  0.00    +0.314 C 
BRANCH  30  31
ATOM     31  O   UNL     1     -36.813  19.534   2.250  0.00  0.00    -0.480 OA
ATOM     32  H   UNL     1     -37.386  19.067   1.675  0.00  0.00    +0.295 HD
ENDBRANCH  30  31
ENDBRANCH  28  30
ENDBRANCH  23  28
ENDBRANCH  21  24
ENDBRANCH  19  21
ENDBRANCH  18  20
ENDBRANCH  17  18
ENDBRANCH   1  17
TORSDOF 14
ENDMDL
MODEL 8
REMARK VINA RESULT:      -5.7      2.417      8.170
REMARK  Name = 5281204
REMARK  14 active torsions:
REMARK  status: ('A' for Active; 'I' for Inactive)
REMARK    1  A    between atoms: O_1  and  C_7
REMARK    2  A    between atoms: O_1  and  C_17
REMARK    3  A    between atoms: C_3  and  O_8
REMARK    4  A    between atoms: C_4  and  O_10
REMARK    5  A    between atoms: C_5  and  O_12
REMARK    6  A    between atoms: C_6  and  C_14
REMARK    7  A    between atoms: C_14  and  O_15
REMARK    8  A    between atoms: C_17  and  C_18
REMARK    9  A    between atoms: C_18  and  C_20
REMARK   10  A    between atoms: C_19  and  C_21
REMARK   11  A    between atoms: C_21  and  C_24
REMARK   12  A    between atoms: C_23  and  C_28
REMARK   13  A    between atoms: C_28  and  C_30
REMARK   14  A    between atoms: C_30  and  O_31
REMARK                            x       y       z     vdW  Elec       q    Type
REMARK                         _______ _______ _______ _____ _____    ______ ____
ROOT
ATOM      1  O   UNL     1     -37.546  26.112   2.337  0.00  0.00    -0.328 OA
ENDROOT
BRANCH   1   7
ATOM      2  O   UNL     1     -39.202  27.178   1.085  0.00  0.00    -0.326 OA
ATOM      3  C   UNL     1     -41.273  26.150   2.790  0.00  0.00    +0.172 C 
ATOM      4  C   UNL     1     -41.523  27.268   1.778  0.00  0.00    +0.169 C 
ATOM      5  C   UNL     1     -39.791  26.059   3.158  0.00  0.00    +0.196 C 
ATOM      6  C   UNL     1     -40.547  27.167   0.604  0.00  0.00    +0.176 C 
ATOM      7  C   UNL     1     -38.907  26.055   1.911  0.00  0.00    +0.266 C 
BRANCH   3   8
ATOM      8  O   UNL     1     -42.038  26.434   3.962  0.00  0.00    -0.379 OA
ATOM      9  H   UNL     1     -42.569  25.658   4.197  0.00  0.00    +0.211 HD
ENDBRANCH   3   8
BRANCH   4  10
ATOM     10  O   UNL     1     -42.859  27.172   1.290  0.00  0.00    -0.379 OA
ATOM     11  H   UNL     1     -43.478  27.436   1.989  0.00  0.00    +0.211 HD
ENDBRANCH   4  10
BRANCH   5  12
ATOM     12  O   UNL     1     -39.556  24.850   3.878  0.00  0.00    -0.378 OA
ATOM     13  H   UNL     1     -39.944  24.919   4.764  0.00  0.00    +0.211 HD
ENDBRANCH   5  12
BRANCH   6  14
ATOM     14  C   UNL     1     -40.701  28.339  -0.361  0.00  0.00    +0.169 C 
BRANCH  14  15
ATOM     15  O   UNL     1     -41.151  29.467   0.368  0.00  0.00    -0.379 OA
ATOM     16  H   UNL     1     -40.941  29.348   1.307  0.00  0.00    +0.211 HD
ENDBRANCH  14  15
ENDBRANCH   6  14
ENDBRANCH   1   7
BRANCH   1  17
ATOM     17  C   UNL     1     -36.726  26.735   1.361  0.00  0.00    +0.150 C 
BRANCH  17  18
ATOM     18  C   UNL     1     -35.783  25.706   0.752  0.00  0.00    +0.058 C 
BRANCH  18  20
ATOM     19  C   UNL     1     -34.601  24.257   2.428  0.00  0.00    -0.030 C 
ATOM     20  C   UNL     1     -34.650  25.371   1.682  0.00  0.00    -0.028 C 
BRANCH  19  21
ATOM     21  C   UNL     1     -35.672  23.207   2.429  0.00  0.00    +0.033 C 
BRANCH  21  24
ATOM     22  O   UNL     1     -35.450  20.450   3.474  0.00  0.00    -0.296 OA
ATOM     23  C   UNL     1     -35.407  23.681   4.923  0.00  0.00    +0.019 C 
ATOM     24  C   UNL     1     -36.027  22.781   3.841  0.00  0.00    +0.062 C 
ATOM     25  C   UNL     1     -35.311  22.763   6.145  0.00  0.00    +0.009 C 
ATOM     26  C   UNL     1     -34.819  21.435   5.581  0.00  0.00    +0.065 C 
ATOM     27  C   UNL     1     -35.435  21.432   4.206  0.00  0.00    +0.151 C 
BRANCH  23  28
ATOM     28  C   UNL     1     -36.228  24.931   5.205  0.00  0.00    +0.110 C 
BRANCH  28  30
ATOM     29  O   UNL     1     -34.424  26.251   6.176  0.00  0.00    -0.250 OA
ATOM     30  C   UNL     1     -35.356  26.145   5.394  0.00  0.00    +0.314 C 
BRANCH  30  31
ATOM     31  O   UNL     1     -35.755  27.136   4.557  0.00  0.00    -0.480 OA
ATOM     32  H   UNL     1     -35.703  28.031   4.831  0.00  0.00    +0.295 HD
ENDBRANCH  30  31
ENDBRANCH  28  30
ENDBRANCH  23  28
ENDBRANCH  21  24
ENDBRANCH  19  21
ENDBRANCH  18  20
ENDBRANCH  17  18
ENDBRANCH   1  17
TORSDOF 14
ENDMDL
MODEL 9
REMARK VINA RESULT:      -5.7      5.297      8.705
REMARK  Name = 5281204
REMARK  14 active torsions:
REMARK  status: ('A' for Active; 'I' for Inactive)
REMARK    1  A    between atoms: O_1  and  C_7
REMARK    2  A    between atoms: O_1  and  C_17
REMARK    3  A    between atoms: C_3  and  O_8
REMARK    4  A    between atoms: C_4  and  O_10
REMARK    5  A    between atoms: C_5  and  O_12
REMARK    6  A    between atoms: C_6  and  C_14
REMARK    7  A    between atoms: C_14  and  O_15
REMARK    8  A    between atoms: C_17  and  C_18
REMARK    9  A    between atoms: C_18  and  C_20
REMARK   10  A    between atoms: C_19  and  C_21
REMARK   11  A    between atoms: C_21  and  C_24
REMARK   12  A    between atoms: C_23  and  C_28
REMARK   13  A    between atoms: C_28  and  C_30
REMARK   14  A    between atoms: C_30  and  O_31
REMARK                            x       y       z     vdW  Elec       q    Type
REMARK                         _______ _______ _______ _____ _____    ______ ____
ROOT
ATOM      1  O   UNL     1     -33.344  28.957   4.079  0.00  0.00    -0.328 OA
ENDROOT
BRANCH   1   7
ATOM      2  O   UNL     1     -31.197  28.137   3.673  0.00  0.00    -0.326 OA
ATOM      3  C   UNL     1     -30.145  29.515   5.963  0.00  0.00    +0.172 C 
ATOM      4  C   UNL     1     -29.361  28.428   5.228  0.00  0.00    +0.169 C 
ATOM      5  C   UNL     1     -31.647  29.380   5.710  0.00  0.00    +0.196 C 
ATOM      6  C   UNL     1     -29.788  28.349   3.760  0.00  0.00    +0.176 C 
ATOM      7  C   UNL     1     -31.948  29.219   4.219  0.00  0.00    +0.266 C 
BRANCH   3   8
ATOM      8  O   UNL     1     -29.885  29.380   7.361  0.00  0.00    -0.379 OA
ATOM      9  H   UNL     1     -30.179  28.506   7.661  0.00  0.00    +0.211 HD
ENDBRANCH   3   8
BRANCH   4  10
ATOM     10  O   UNL     1     -27.968  28.722   5.299  0.00  0.00    -0.379 OA
ATOM     11  H   UNL     1     -27.645  28.967   4.418  0.00  0.00    +0.211 HD
ENDBRANCH   4  10
BRANCH   5  12
ATOM     12  O   UNL     1     -32.313  30.553   6.176  0.00  0.00    -0.378 OA
ATOM     13  H   UNL     1     -32.542  31.117   5.421  0.00  0.00    +0.211 HD
ENDBRANCH   5  12
BRANCH   6  14
ATOM     14  C   UNL     1     -29.103  27.194   3.034  0.00  0.00    +0.169 C 
BRANCH  14  15
ATOM     15  O   UNL     1     -28.460  26.376   3.995  0.00  0.00    -0.379 OA
ATOM     16  H   UNL     1     -28.843  25.485   3.967  0.00  0.00    +0.211 HD
ENDBRANCH  14  15
ENDBRANCH   6  14
ENDBRANCH   1   7
BRANCH   1  17
ATOM     17  C   UNL     1     -33.712  28.841   2.714  0.00  0.00    +0.150 C 
BRANCH  17  18
ATOM     18  C   UNL     1     -35.015  28.059   2.599  0.00  0.00    +0.058 C 
BRANCH  18  20
ATOM     19  C   UNL     1     -35.595  25.658   2.147  0.00  0.00    -0.030 C 
ATOM     20  C   UNL     1     -34.805  26.723   1.943  0.00  0.00    -0.028 C 
BRANCH  19  21
ATOM     21  C   UNL     1     -36.786  25.667   3.059  0.00  0.00    +0.033 C 
BRANCH  21  24
ATOM     22  O   UNL     1     -37.573  22.834   2.743  0.00  0.00    -0.296 OA
ATOM     23  C   UNL     1     -35.283  24.576   4.810  0.00  0.00    +0.019 C 
ATOM     24  C   UNL     1     -36.666  24.606   4.136  0.00  0.00    +0.062 C 
ATOM     25  C   UNL     1     -35.155  23.133   5.307  0.00  0.00    +0.009 C 
ATOM     26  C   UNL     1     -35.701  22.289   4.161  0.00  0.00    +0.065 C 
ATOM     27  C   UNL     1     -36.751  23.199   3.576  0.00  0.00    +0.151 C 
BRANCH  23  28
ATOM     28  C   UNL     1     -35.143  25.588   5.936  0.00  0.00    +0.110 C 
BRANCH  28  30
ATOM     29  O   UNL     1     -33.299  26.881   6.867  0.00  0.00    -0.250 OA
ATOM     30  C   UNL     1     -33.776  26.222   5.956  0.00  0.00    +0.314 C 
BRANCH  30  31
ATOM     31  O   UNL     1     -33.126  25.957   4.794  0.00  0.00    -0.480 OA
ATOM     32  H   UNL     1     -32.907  26.656   4.210  0.00  0.00    +0.295 HD
ENDBRANCH  30  31
ENDBRANCH  28  30
ENDBRANCH  23  28
ENDBRANCH  21  24
ENDBRANCH  19  21
ENDBRANCH  18  20
ENDBRANCH  17  18
ENDBRANCH   1  17
TORSDOF 14
ENDMDL
