MODEL 1
REMARK VINA RESULT:      -5.3      0.000      0.000
REMARK  Name = 57520880
REMARK  5 active torsions:
REMARK  status: ('A' for Active; 'I' for Inactive)
REMARK    1  A    between atoms: N_1  and  C_16
REMARK    2  A    between atoms: C_13  and  C_17
REMARK    3  A    between atoms: C_13  and  C_20
REMARK    4  A    between atoms: C_17  and  O_18
REMARK    5  A    between atoms: C_20  and  O_21
REMARK                            x       y       z     vdW  Elec       q    Type
REMARK                         _______ _______ _______ _____ _____    ______ ____
ROOT
ATOM      1  N   UNL     1     -36.950  23.247   2.541  0.00  0.00    -0.239 N 
ATOM      2  N   UNL     1     -37.084  23.836   0.395  0.00  0.00    -0.246 NA
ATOM      3  N   UNL     1     -38.803  24.531   3.442  0.00  0.00    -0.321 NA
ATOM      4  N   UNL     1     -39.921  25.819   1.697  0.00  0.00    -0.191 NA
ATOM      5  N   UNL     1     -40.641  25.898   3.924  0.00  0.00    -0.293 N 
ATOM      6  C   UNL     1     -38.003  24.112   2.452  0.00  0.00    +0.216 C 
ATOM      7  C   UNL     1     -36.430  23.112   1.280  0.00  0.00    +0.226 C 
ATOM      8  C   UNL     1     -38.069  24.465   1.113  0.00  0.00    +0.126 C 
ATOM      9  C   UNL     1     -39.075  25.353   0.746  0.00  0.00    +0.187 C 
ATOM     10  C   UNL     1     -39.736  25.386   2.967  0.00  0.00    +0.139 C 
ATOM     11  H   UNL     1     -40.565  25.626   4.867  0.00  0.00    +0.155 HD
ATOM     12  H   UNL     1     -41.346  26.526   3.648  0.00  0.00    +0.155 HD
ENDROOT
BRANCH   1  16
ATOM     13  C   UNL     1     -35.226  24.390   5.160  0.00  0.00    +0.074 C 
ATOM     14  C   UNL     1     -35.164  23.022   5.915  0.00  0.00    +0.032 C 
ATOM     15  C   UNL     1     -35.799  23.201   4.670  0.00  0.00    -0.024 C 
ATOM     16  C   UNL     1     -36.486  22.618   3.680  0.00  0.00    +0.061 C 
BRANCH  13  17
ATOM     17  C   UNL     1     -33.982  24.894   4.522  0.00  0.00    +0.144 C 
BRANCH  17  18
ATOM     18  O   UNL     1     -33.515  26.039   5.224  0.00  0.00    -0.382 OA
ATOM     19  H   UNL     1     -32.886  25.763   5.909  0.00  0.00    +0.210 HD
ENDBRANCH  17  18
ENDBRANCH  13  17
BRANCH  13  20
ATOM     20  C   UNL     1     -36.130  25.442   5.694  0.00  0.00    +0.144 C 
BRANCH  20  21
ATOM     21  O   UNL     1     -36.555  26.291   4.636  0.00  0.00    -0.382 OA
ATOM     22  H   UNL     1     -36.047  26.089   3.835  0.00  0.00    +0.210 HD
ENDBRANCH  20  21
ENDBRANCH  13  20
ENDBRANCH   1  16
TORSDOF 5
ENDMDL
MODEL 2
REMARK VINA RESULT:      -5.2      4.229      5.784
REMARK  Name = 57520880
REMARK  5 active torsions:
REMARK  status: ('A' for Active; 'I' for Inactive)
REMARK    1  A    between atoms: N_1  and  C_16
REMARK    2  A    between atoms: C_13  and  C_17
REMARK    3  A    between atoms: C_13  and  C_20
REMARK    4  A    between atoms: C_17  and  O_18
REMARK    5  A    between atoms: C_20  and  O_21
REMARK                            x       y       z     vdW  Elec       q    Type
REMARK                         _______ _______ _______ _____ _____    ______ ____
ROOT
ATOM      1  N   UNL     1     -33.367  26.567   2.834  0.00  0.00    -0.239 N 
ATOM      2  N   UNL     1     -32.763  28.634   2.260  0.00  0.00    -0.246 NA
ATOM      3  N   UNL     1     -33.017  26.681   5.234  0.00  0.00    -0.321 NA
ATOM      4  N   UNL     1     -32.206  28.881   5.909  0.00  0.00    -0.191 NA
ATOM      5  N   UNL     1     -32.560  27.177   7.475  0.00  0.00    -0.293 N 
ATOM      6  C   UNL     1     -33.011  27.191   3.995  0.00  0.00    +0.216 C 
ATOM      7  C   UNL     1     -33.202  27.473   1.820  0.00  0.00    +0.226 C 
ATOM      8  C   UNL     1     -32.639  28.472   3.618  0.00  0.00    +0.126 C 
ATOM      9  C   UNL     1     -32.225  29.331   4.630  0.00  0.00    +0.187 C 
ATOM     10  C   UNL     1     -32.597  27.603   6.128  0.00  0.00    +0.139 C 
ATOM     11  H   UNL     1     -32.832  26.260   7.708  0.00  0.00    +0.155 HD
ATOM     12  H   UNL     1     -32.265  27.797   8.180  0.00  0.00    +0.155 HD
ENDROOT
BRANCH   1  16
ATOM     13  C   UNL     1     -36.293  25.137   3.567  0.00  0.00    +0.074 C 
ATOM     14  C   UNL     1     -35.891  23.704   3.085  0.00  0.00    +0.032 C 
ATOM     15  C   UNL     1     -35.030  24.818   3.031  0.00  0.00    -0.024 C 
ATOM     16  C   UNL     1     -33.814  25.267   2.695  0.00  0.00    +0.061 C 
BRANCH  13  17
ATOM     17  C   UNL     1     -36.402  25.378   5.030  0.00  0.00    +0.144 C 
BRANCH  17  18
ATOM     18  O   UNL     1     -36.276  26.770   5.295  0.00  0.00    -0.382 OA
ATOM     19  H   UNL     1     -35.915  26.897   6.186  0.00  0.00    +0.210 HD
ENDBRANCH  17  18
ENDBRANCH  13  17
BRANCH  13  20
ATOM     20  C   UNL     1     -37.240  25.917   2.728  0.00  0.00    +0.144 C 
BRANCH  20  21
ATOM     21  O   UNL     1     -38.337  26.351   3.521  0.00  0.00    -0.382 OA
ATOM     22  H   UNL     1     -38.554  27.269   3.297  0.00  0.00    +0.210 HD
ENDBRANCH  20  21
ENDBRANCH  13  20
ENDBRANCH   1  16
TORSDOF 5
ENDMDL
MODEL 3
REMARK VINA RESULT:      -5.2      2.763      5.195
REMARK  Name = 57520880
REMARK  5 active torsions:
REMARK  status: ('A' for Active; 'I' for Inactive)
REMARK    1  A    between atoms: N_1  and  C_16
REMARK    2  A    between atoms: C_13  and  C_17
REMARK    3  A    between atoms: C_13  and  C_20
REMARK    4  A    between atoms: C_17  and  O_18
REMARK    5  A    between atoms: C_20  and  O_21
REMARK                            x       y       z     vdW  Elec       q    Type
REMARK                         _______ _______ _______ _____ _____    ______ ____
ROOT
ATOM      1  N   UNL     1     -36.305  22.365   1.980  0.00  0.00    -0.239 N 
ATOM      2  N   UNL     1     -35.488  20.933   3.480  0.00  0.00    -0.246 NA
ATOM      3  N   UNL     1     -36.565  24.333   3.380  0.00  0.00    -0.321 NA
ATOM      4  N   UNL     1     -35.857  23.889   5.673  0.00  0.00    -0.191 NA
ATOM      5  N   UNL     1     -36.668  25.990   5.029  0.00  0.00    -0.293 N 
ATOM      6  C   UNL     1     -36.225  23.055   3.156  0.00  0.00    +0.216 C 
ATOM      7  C   UNL     1     -35.851  21.096   2.225  0.00  0.00    +0.226 C 
ATOM      8  C   UNL     1     -35.717  22.150   4.073  0.00  0.00    +0.126 C 
ATOM      9  C   UNL     1     -35.534  22.607   5.374  0.00  0.00    +0.187 C 
ATOM     10  C   UNL     1     -36.345  24.661   4.672  0.00  0.00    +0.139 C 
ATOM     11  H   UNL     1     -37.027  26.607   4.351  0.00  0.00    +0.155 HD
ATOM     12  H   UNL     1     -36.533  26.298   5.953  0.00  0.00    +0.155 HD
ENDROOT
BRANCH   1  16
ATOM     13  C   UNL     1     -39.384  22.791   0.765  0.00  0.00    +0.074 C 
ATOM     14  C   UNL     1     -38.928  23.361  -0.619  0.00  0.00    +0.032 C 
ATOM     15  C   UNL     1     -38.036  22.968   0.399  0.00  0.00    -0.024 C 
ATOM     16  C   UNL     1     -36.754  22.846   0.765  0.00  0.00    +0.061 C 
BRANCH  13  17
ATOM     17  C   UNL     1     -39.932  21.409   0.807  0.00  0.00    +0.144 C 
BRANCH  17  18
ATOM     18  O   UNL     1     -40.110  21.008   2.159  0.00  0.00    -0.382 OA
ATOM     19  H   UNL     1     -40.839  20.370   2.213  0.00  0.00    +0.210 HD
ENDBRANCH  17  18
ENDBRANCH  13  17
BRANCH  13  20
ATOM     20  C   UNL     1     -39.980  23.734   1.747  0.00  0.00    +0.144 C 
BRANCH  20  21
ATOM     21  O   UNL     1     -39.427  23.498   3.035  0.00  0.00    -0.382 OA
ATOM     22  H   UNL     1     -39.604  22.582   3.300  0.00  0.00    +0.210 HD
ENDBRANCH  20  21
ENDBRANCH  13  20
ENDBRANCH   1  16
TORSDOF 5
ENDMDL
MODEL 4
REMARK VINA RESULT:      -5.2      1.814      3.120
REMARK  Name = 57520880
REMARK  5 active torsions:
REMARK  status: ('A' for Active; 'I' for Inactive)
REMARK    1  A    between atoms: N_1  and  C_16
REMARK    2  A    between atoms: C_13  and  C_17
REMARK    3  A    between atoms: C_13  and  C_20
REMARK    4  A    between atoms: C_17  and  O_18
REMARK    5  A    between atoms: C_20  and  O_21
REMARK                            x       y       z     vdW  Elec       q    Type
REMARK                         _______ _______ _______ _____ _____    ______ ____
ROOT
ATOM      1  N   UNL     1     -37.053  25.332   2.156  0.00  0.00    -0.239 N 
ATOM      2  N   UNL     1     -39.225  25.834   2.136  0.00  0.00    -0.246 NA
ATOM      3  N   UNL     1     -37.185  22.908   2.147  0.00  0.00    -0.321 NA
ATOM      4  N   UNL     1     -39.503  22.146   2.123  0.00  0.00    -0.191 NA
ATOM      5  N   UNL     1     -37.718  20.629   2.136  0.00  0.00    -0.293 N 
ATOM      6  C   UNL     1     -37.716  24.139   2.146  0.00  0.00    +0.216 C 
ATOM      7  C   UNL     1     -38.001  26.321   2.149  0.00  0.00    +0.226 C 
ATOM      8  C   UNL     1     -39.061  24.471   2.134  0.00  0.00    +0.126 C 
ATOM      9  C   UNL     1     -39.969  23.418   2.122  0.00  0.00    +0.187 C 
ATOM     10  C   UNL     1     -38.159  21.972   2.135  0.00  0.00    +0.139 C 
ATOM     11  H   UNL     1     -36.754  20.428   2.144  0.00  0.00    +0.155 HD
ATOM     12  H   UNL     1     -38.374  19.896   2.127  0.00  0.00    +0.155 HD
ENDROOT
BRANCH   1  16
ATOM     13  C   UNL     1     -34.789  25.003   4.586  0.00  0.00    +0.074 C 
ATOM     14  C   UNL     1     -33.559  25.407   3.709  0.00  0.00    +0.032 C 
ATOM     15  C   UNL     1     -34.881  25.351   3.225  0.00  0.00    -0.024 C 
ATOM     16  C   UNL     1     -35.684  25.522   2.168  0.00  0.00    +0.061 C 
BRANCH  13  17
ATOM     17  C   UNL     1     -35.275  25.974   5.601  0.00  0.00    +0.144 C 
BRANCH  17  18
ATOM     18  O   UNL     1     -36.659  26.226   5.396  0.00  0.00    -0.382 OA
ATOM     19  H   UNL     1     -37.072  25.448   4.989  0.00  0.00    +0.210 HD
ENDBRANCH  17  18
ENDBRANCH  13  17
BRANCH  13  20
ATOM     20  C   UNL     1     -34.940  23.572   4.961  0.00  0.00    +0.144 C 
BRANCH  20  21
ATOM     21  O   UNL     1     -36.315  23.272   5.164  0.00  0.00    -0.382 OA
ATOM     22  H   UNL     1     -36.418  22.764   5.983  0.00  0.00    +0.210 HD
ENDBRANCH  20  21
ENDBRANCH  13  20
ENDBRANCH   1  16
TORSDOF 5
ENDMDL
MODEL 5
REMARK VINA RESULT:      -5.1      4.463      6.165
REMARK  Name = 57520880
REMARK  5 active torsions:
REMARK  status: ('A' for Active; 'I' for Inactive)
REMARK    1  A    between atoms: N_1  and  C_16
REMARK    2  A    between atoms: C_13  and  C_17
REMARK    3  A    between atoms: C_13  and  C_20
REMARK    4  A    between atoms: C_17  and  O_18
REMARK    5  A    between atoms: C_20  and  O_21
REMARK                            x       y       z     vdW  Elec       q    Type
REMARK                         _______ _______ _______ _____ _____    ______ ____
ROOT
ATOM      1  N   UNL     1     -32.270  27.769   3.254  0.00  0.00    -0.239 N 
ATOM      2  N   UNL     1     -31.928  25.780   2.309  0.00  0.00    -0.246 NA
ATOM      3  N   UNL     1     -34.397  27.350   4.349  0.00  0.00    -0.321 NA
ATOM      4  N   UNL     1     -35.167  25.069   3.948  0.00  0.00    -0.191 NA
ATOM      5  N   UNL     1     -36.414  26.570   5.243  0.00  0.00    -0.293 N 
ATOM      6  C   UNL     1     -33.344  26.998   3.598  0.00  0.00    +0.216 C 
ATOM      7  C   UNL     1     -31.447  26.994   2.480  0.00  0.00    +0.226 C 
ATOM      8  C   UNL     1     -33.113  25.769   3.001  0.00  0.00    +0.126 C 
ATOM      9  C   UNL     1     -34.074  24.783   3.199  0.00  0.00    +0.187 C 
ATOM     10  C   UNL     1     -35.259  26.316   4.469  0.00  0.00    +0.139 C 
ATOM     11  H   UNL     1     -36.547  27.455   5.653  0.00  0.00    +0.155 HD
ATOM     12  H   UNL     1     -37.085  25.862   5.373  0.00  0.00    +0.155 HD
ENDROOT
BRANCH   1  16
ATOM     13  C   UNL     1     -30.939  29.116   6.002  0.00  0.00    +0.074 C 
ATOM     14  C   UNL     1     -31.084  30.602   5.533  0.00  0.00    +0.032 C 
ATOM     15  C   UNL     1     -31.492  29.494   4.763  0.00  0.00    -0.024 C 
ATOM     16  C   UNL     1     -32.043  29.083   3.615  0.00  0.00    +0.061 C 
BRANCH  13  17
ATOM     17  C   UNL     1     -31.853  28.626   7.067  0.00  0.00    +0.144 C 
BRANCH  17  18
ATOM     18  O   UNL     1     -32.252  27.293   6.776  0.00  0.00    -0.382 OA
ATOM     19  H   UNL     1     -33.061  27.307   6.240  0.00  0.00    +0.210 HD
ENDBRANCH  17  18
ENDBRANCH  13  17
BRANCH  13  20
ATOM     20  C   UNL     1     -29.579  28.518   6.016  0.00  0.00    +0.144 C 
BRANCH  20  21
ATOM     21  O   UNL     1     -29.551  27.410   6.906  0.00  0.00    -0.382 OA
ATOM     22  H   UNL     1     -28.720  26.924   6.792  0.00  0.00    +0.210 HD
ENDBRANCH  20  21
ENDBRANCH  13  20
ENDBRANCH   1  16
TORSDOF 5
ENDMDL
MODEL 6
REMARK VINA RESULT:      -5.0      1.783      2.280
REMARK  Name = 57520880
REMARK  5 active torsions:
REMARK  status: ('A' for Active; 'I' for Inactive)
REMARK    1  A    between atoms: N_1  and  C_16
REMARK    2  A    between atoms: C_13  and  C_17
REMARK    3  A    between atoms: C_13  and  C_20
REMARK    4  A    between atoms: C_17  and  O_18
REMARK    5  A    between atoms: C_20  and  O_21
REMARK                            x       y       z     vdW  Elec       q    Type
REMARK                         _______ _______ _______ _____ _____    ______ ____
ROOT
ATOM      1  N   UNL     1     -36.098  23.179   4.089  0.00  0.00    -0.239 N 
ATOM      2  N   UNL     1     -36.550  21.650   2.531  0.00  0.00    -0.246 NA
ATOM      3  N   UNL     1     -38.090  24.556   3.911  0.00  0.00    -0.321 NA
ATOM      4  N   UNL     1     -39.609  23.702   2.203  0.00  0.00    -0.191 NA
ATOM      5  N   UNL     1     -40.122  25.620   3.445  0.00  0.00    -0.293 N 
ATOM      6  C   UNL     1     -37.313  23.519   3.568  0.00  0.00    +0.216 C 
ATOM      7  C   UNL     1     -35.679  22.050   3.435  0.00  0.00    +0.226 C 
ATOM      8  C   UNL     1     -37.575  22.559   2.603  0.00  0.00    +0.126 C 
ATOM      9  C   UNL     1     -38.775  22.676   1.908  0.00  0.00    +0.187 C 
ATOM     10  C   UNL     1     -39.221  24.566   3.172  0.00  0.00    +0.139 C 
ATOM     11  H   UNL     1     -39.904  26.285   4.138  0.00  0.00    +0.155 HD
ATOM     12  H   UNL     1     -40.966  25.689   2.945  0.00  0.00    +0.155 HD
ENDROOT
BRANCH   1  16
ATOM     13  C   UNL     1     -34.335  26.013   4.072  0.00  0.00    +0.074 C 
ATOM     14  C   UNL     1     -33.949  25.965   5.587  0.00  0.00    +0.032 C 
ATOM     15  C   UNL     1     -34.735  24.986   4.949  0.00  0.00    -0.024 C 
ATOM     16  C   UNL     1     -35.410  23.838   5.090  0.00  0.00    +0.061 C 
BRANCH  13  17
ATOM     17  C   UNL     1     -33.277  25.718   3.071  0.00  0.00    +0.144 C 
BRANCH  17  18
ATOM     18  O   UNL     1     -33.799  24.862   2.062  0.00  0.00    -0.382 OA
ATOM     19  H   UNL     1     -33.067  24.459   1.570  0.00  0.00    +0.210 HD
ENDBRANCH  17  18
ENDBRANCH  13  17
BRANCH  13  20
ATOM     20  C   UNL     1     -35.350  27.009   3.641  0.00  0.00    +0.144 C 
BRANCH  20  21
ATOM     21  O   UNL     1     -36.074  26.504   2.526  0.00  0.00    -0.382 OA
ATOM     22  H   UNL     1     -36.506  27.238   2.062  0.00  0.00    +0.210 HD
ENDBRANCH  20  21
ENDBRANCH  13  20
ENDBRANCH   1  16
TORSDOF 5
ENDMDL
MODEL 7
REMARK VINA RESULT:      -5.0      2.456      4.829
REMARK  Name = 57520880
REMARK  5 active torsions:
REMARK  status: ('A' for Active; 'I' for Inactive)
REMARK    1  A    between atoms: N_1  and  C_16
REMARK    2  A    between atoms: C_13  and  C_17
REMARK    3  A    between atoms: C_13  and  C_20
REMARK    4  A    between atoms: C_17  and  O_18
REMARK    5  A    between atoms: C_20  and  O_21
REMARK                            x       y       z     vdW  Elec       q    Type
REMARK                         _______ _______ _______ _____ _____    ______ ____
ROOT
ATOM      1  N   UNL     1     -36.404  23.870   1.924  0.00  0.00    -0.239 N 
ATOM      2  N   UNL     1     -34.614  25.185   2.121  0.00  0.00    -0.246 NA
ATOM      3  N   UNL     1     -36.398  22.828   4.117  0.00  0.00    -0.321 NA
ATOM      4  N   UNL     1     -34.543  23.637   5.480  0.00  0.00    -0.191 NA
ATOM      5  N   UNL     1     -36.059  22.052   6.299  0.00  0.00    -0.293 N 
ATOM      6  C   UNL     1     -35.914  23.656   3.180  0.00  0.00    +0.216 C 
ATOM      7  C   UNL     1     -35.590  24.797   1.326  0.00  0.00    +0.226 C 
ATOM      8  C   UNL     1     -34.805  24.480   3.283  0.00  0.00    +0.126 C 
ATOM      9  C   UNL     1     -34.110  24.453   4.488  0.00  0.00    +0.187 C 
ATOM     10  C   UNL     1     -35.644  22.886   5.236  0.00  0.00    +0.139 C 
ATOM     11  H   UNL     1     -36.853  21.478   6.192  0.00  0.00    +0.155 HD
ATOM     12  H   UNL     1     -35.557  22.044   7.144  0.00  0.00    +0.155 HD
ENDROOT
BRANCH   1  16
ATOM     13  C   UNL     1     -39.621  24.757   1.870  0.00  0.00    +0.074 C 
ATOM     14  C   UNL     1     -40.105  23.533   1.025  0.00  0.00    +0.032 C 
ATOM     15  C   UNL     1     -38.764  23.741   1.403  0.00  0.00    -0.024 C 
ATOM     16  C   UNL     1     -37.511  23.274   1.351  0.00  0.00    +0.061 C 
BRANCH  13  17
ATOM     17  C   UNL     1     -39.962  24.788   3.317  0.00  0.00    +0.144 C 
BRANCH  17  18
ATOM     18  O   UNL     1     -38.781  24.996   4.081  0.00  0.00    -0.382 OA
ATOM     19  H   UNL     1     -38.066  25.294   3.496  0.00  0.00    +0.210 HD
ENDBRANCH  17  18
ENDBRANCH  13  17
BRANCH  13  20
ATOM     20  C   UNL     1     -39.567  26.087   1.208  0.00  0.00    +0.144 C 
BRANCH  20  21
ATOM     21  O   UNL     1     -38.604  26.907   1.857  0.00  0.00    -0.382 OA
ATOM     22  H   UNL     1     -38.475  26.596   2.766  0.00  0.00    +0.210 HD
ENDBRANCH  20  21
ENDBRANCH  13  20
ENDBRANCH   1  16
TORSDOF 5
ENDMDL
MODEL 8
REMARK VINA RESULT:      -5.0      2.667      5.410
REMARK  Name = 57520880
REMARK  5 active torsions:
REMARK  status: ('A' for Active; 'I' for Inactive)
REMARK    1  A    between atoms: N_1  and  C_16
REMARK    2  A    between atoms: C_13  and  C_17
REMARK    3  A    between atoms: C_13  and  C_20
REMARK    4  A    between atoms: C_17  and  O_18
REMARK    5  A    between atoms: C_20  and  O_21
REMARK                            x       y       z     vdW  Elec       q    Type
REMARK                         _______ _______ _______ _____ _____    ______ ____
ROOT
ATOM      1  N   UNL     1     -36.312  24.491   3.413  0.00  0.00    -0.239 N 
ATOM      2  N   UNL     1     -35.927  24.149   5.582  0.00  0.00    -0.246 NA
ATOM      3  N   UNL     1     -35.852  22.267   2.553  0.00  0.00    -0.321 NA
ATOM      4  N   UNL     1     -35.211  20.738   4.344  0.00  0.00    -0.191 NA
ATOM      5  N   UNL     1     -35.330  20.028   2.115  0.00  0.00    -0.293 N 
ATOM      6  C   UNL     1     -35.955  23.178   3.531  0.00  0.00    +0.216 C 
ATOM      7  C   UNL     1     -36.281  25.032   4.671  0.00  0.00    +0.226 C 
ATOM      8  C   UNL     1     -35.720  22.986   4.883  0.00  0.00    +0.126 C 
ATOM      9  C   UNL     1     -35.335  21.710   5.280  0.00  0.00    +0.187 C 
ATOM     10  C   UNL     1     -35.473  21.072   3.057  0.00  0.00    +0.139 C 
ATOM     11  H   UNL     1     -35.505  20.199   1.162  0.00  0.00    +0.155 HD
ATOM     12  H   UNL     1     -35.057  19.131   2.413  0.00  0.00    +0.155 HD
ENDROOT
BRANCH   1  16
ATOM     13  C   UNL     1     -39.148  24.607   1.659  0.00  0.00    +0.074 C 
ATOM     14  C   UNL     1     -38.609  25.573   0.554  0.00  0.00    +0.032 C 
ATOM     15  C   UNL     1     -37.838  25.121   1.643  0.00  0.00    -0.024 C 
ATOM     16  C   UNL     1     -36.646  25.159   2.251  0.00  0.00    +0.061 C 
BRANCH  13  17
ATOM     17  C   UNL     1     -39.355  23.179   1.300  0.00  0.00    +0.144 C 
BRANCH  17  18
ATOM     18  O   UNL     1     -39.051  22.357   2.420  0.00  0.00    -0.382 OA
ATOM     19  H   UNL     1     -39.861  22.190   2.928  0.00  0.00    +0.210 HD
ENDBRANCH  17  18
ENDBRANCH  13  17
BRANCH  13  20
ATOM     20  C   UNL     1     -40.109  25.151   2.654  0.00  0.00    +0.144 C 
BRANCH  20  21
ATOM     21  O   UNL     1     -39.686  24.805   3.967  0.00  0.00    -0.382 OA
ATOM     22  H   UNL     1     -40.433  24.888   4.580  0.00  0.00    +0.210 HD
ENDBRANCH  20  21
ENDBRANCH  13  20
ENDBRANCH   1  16
TORSDOF 5
ENDMDL
MODEL 9
REMARK VINA RESULT:      -4.9      3.707      5.275
REMARK  Name = 57520880
REMARK  5 active torsions:
REMARK  status: ('A' for Active; 'I' for Inactive)
REMARK    1  A    between atoms: N_1  and  C_16
REMARK    2  A    between atoms: C_13  and  C_17
REMARK    3  A    between atoms: C_13  and  C_20
REMARK    4  A    between atoms: C_17  and  O_18
REMARK    5  A    between atoms: C_20  and  O_21
REMARK                            x       y       z     vdW  Elec       q    Type
REMARK                         _______ _______ _______ _____ _____    ______ ____
ROOT
ATOM      1  N   UNL     1     -35.394  23.311   2.875  0.00  0.00    -0.239 N 
ATOM      2  N   UNL     1     -35.912  22.910   5.006  0.00  0.00    -0.246 NA
ATOM      3  N   UNL     1     -35.202  25.731   2.942  0.00  0.00    -0.321 NA
ATOM      4  N   UNL     1     -35.639  26.594   5.182  0.00  0.00    -0.191 NA
ATOM      5  N   UNL     1     -35.113  28.024   3.404  0.00  0.00    -0.293 N 
ATOM      6  C   UNL     1     -35.430  24.529   3.491  0.00  0.00    +0.216 C 
ATOM      7  C   UNL     1     -35.690  22.369   3.826  0.00  0.00    +0.226 C 
ATOM      8  C   UNL     1     -35.753  24.259   4.811  0.00  0.00    +0.126 C 
ATOM      9  C   UNL     1     -35.856  25.348   5.670  0.00  0.00    +0.187 C 
ATOM     10  C   UNL     1     -35.330  26.706   3.868  0.00  0.00    +0.139 C 
ATOM     11  H   UNL     1     -34.884  28.180   2.459  0.00  0.00    +0.155 HD
ATOM     12  H   UNL     1     -35.190  28.783   4.024  0.00  0.00    +0.155 HD
ENDROOT
BRANCH   1  16
ATOM     13  C   UNL     1     -36.612  21.060   0.734  0.00  0.00    +0.074 C 
ATOM     14  C   UNL     1     -35.739  21.513  -0.482  0.00  0.00    +0.032 C 
ATOM     15  C   UNL     1     -35.681  22.114   0.791  0.00  0.00    -0.024 C 
ATOM     16  C   UNL     1     -35.111  23.061   1.546  0.00  0.00    +0.061 C 
BRANCH  13  17
ATOM     17  C   UNL     1     -36.271  19.776   1.401  0.00  0.00    +0.144 C 
BRANCH  17  18
ATOM     18  O   UNL     1     -36.967  19.681   2.637  0.00  0.00    -0.382 OA
ATOM     19  H   UNL     1     -37.905  19.498   2.467  0.00  0.00    +0.210 HD
ENDBRANCH  17  18
ENDBRANCH  13  17
BRANCH  13  20
ATOM     20  C   UNL     1     -38.060  21.395   0.719  0.00  0.00    +0.144 C 
BRANCH  20  21
ATOM     21  O   UNL     1     -38.827  20.206   0.587  0.00  0.00    -0.382 OA
ATOM     22  H   UNL     1     -39.145  19.928   1.460  0.00  0.00    +0.210 HD
ENDBRANCH  20  21
ENDBRANCH  13  20
ENDBRANCH   1  16
TORSDOF 5
ENDMDL
