MODEL 1
REMARK VINA RESULT:      -6.8      0.000      0.000
REMARK  Name = 5321664
REMARK  8 active torsions:
REMARK  status: ('A' for Active; 'I' for Inactive)
REMARK    1  A    between atoms: C_3  and  C_28
REMARK    2  A    between atoms: C_6  and  C_12
REMARK    3  A    between atoms: C_7  and  O_24
REMARK    4  A    between atoms: C_8  and  O_26
REMARK    5  A    between atoms: C_15  and  O_18
REMARK    6  A    between atoms: C_16  and  O_20
REMARK    7  A    between atoms: C_17  and  O_22
REMARK    8  A    between atoms: C_28  and  C_29
REMARK                            x       y       z     vdW  Elec       q    Type
REMARK                         _______ _______ _______ _____ _____    ______ ____
ROOT
ATOM      1  O   UNL     1     -36.327  20.926   1.565  0.00  0.00    -0.453 OA
ATOM      2  O   UNL     1     -39.784  20.045  -0.403  0.00  0.00    -0.286 OA
ATOM      3  C   UNL     1     -35.229  19.058   0.626  0.00  0.00    +0.051 C 
ATOM      4  C   UNL     1     -36.385  19.829   0.742  0.00  0.00    +0.150 C 
ATOM      5  C   UNL     1     -37.535  19.472   0.039  0.00  0.00    +0.107 C 
ATOM      6  C   UNL     1     -37.459  21.715   1.695  0.00  0.00    +0.149 C 
ATOM      7  C   UNL     1     -35.227  17.930  -0.195  0.00  0.00    +0.136 C 
ATOM      8  C   UNL     1     -37.536  18.344  -0.784  0.00  0.00    +0.143 C 
ATOM      9  C   UNL     1     -38.740  20.302   0.181  0.00  0.00    +0.205 C 
ATOM     10  C   UNL     1     -36.378  17.575  -0.899  0.00  0.00    +0.073 C 
ATOM     11  C   UNL     1     -38.626  21.471   1.076  0.00  0.00    +0.080 C 
ENDROOT
BRANCH   6  12
ATOM     12  C   UNL     1     -37.288  22.864   2.607  0.00  0.00    +0.041 C 
ATOM     13  C   UNL     1     -38.020  24.036   2.403  0.00  0.00    +0.043 C 
ATOM     14  C   UNL     1     -36.397  22.783   3.680  0.00  0.00    +0.043 C 
ATOM     15  C   UNL     1     -36.237  23.868   4.542  0.00  0.00    +0.175 C 
ATOM     16  C   UNL     1     -37.861  25.122   3.265  0.00  0.00    +0.175 C 
ATOM     17  C   UNL     1     -36.969  25.038   4.335  0.00  0.00    +0.202 C 
BRANCH  15  18
ATOM     18  O   UNL     1     -35.364  23.773   5.583  0.00  0.00    -0.468 OA
ATOM     19  C   UNL     1     -35.231  22.496   6.203  0.00  0.00    +0.253 C 
ENDBRANCH  15  18
BRANCH  16  20
ATOM     20  O   UNL     1     -38.581  26.257   3.051  0.00  0.00    -0.468 OA
ATOM     21  C   UNL     1     -39.959  26.098   2.722  0.00  0.00    +0.253 C 
ENDBRANCH  16  20
BRANCH  17  22
ATOM     22  O   UNL     1     -36.814  26.098   5.178  0.00  0.00    -0.501 OA
ATOM     23  H   UNL     1     -35.961  26.327   5.489  0.00  0.00    +0.292 HD
ENDBRANCH  17  22
ENDBRANCH   6  12
BRANCH   7  24
ATOM     24  O   UNL     1     -34.107  17.164  -0.324  0.00  0.00    -0.506 OA
ATOM     25  H   UNL     1     -34.025  16.369   0.166  0.00  0.00    +0.292 HD
ENDBRANCH   7  24
BRANCH   8  26
ATOM     26  O   UNL     1     -38.633  17.952  -1.490  0.00  0.00    -0.505 OA
ATOM     27  H   UNL     1     -38.646  17.113  -1.908  0.00  0.00    +0.292 HD
ENDBRANCH   8  26
BRANCH   3  28
ATOM     28  C   UNL     1     -33.990  19.432   1.377  0.00  0.00    +0.058 C 
BRANCH  28  29
ATOM     29  C   UNL     1     -33.034  20.255   0.553  0.00  0.00    -0.030 C 
ATOM     30  C   UNL     1     -31.782  19.937   0.171  0.00  0.00    -0.048 C 
ATOM     31  C   UNL     1     -30.879  20.810  -0.655  0.00  0.00    +0.026 C 
ATOM     32  C   UNL     1     -31.172  18.622   0.576  0.00  0.00    +0.026 C 
ENDBRANCH  28  29
ENDBRANCH   3  28
TORSDOF 8
ENDMDL
MODEL 2
REMARK VINA RESULT:      -6.7      0.146      2.370
REMARK  Name = 5321664
REMARK  8 active torsions:
REMARK  status: ('A' for Active; 'I' for Inactive)
REMARK    1  A    between atoms: C_3  and  C_28
REMARK    2  A    between atoms: C_6  and  C_12
REMARK    3  A    between atoms: C_7  and  O_24
REMARK    4  A    between atoms: C_8  and  O_26
REMARK    5  A    between atoms: C_15  and  O_18
REMARK    6  A    between atoms: C_16  and  O_20
REMARK    7  A    between atoms: C_17  and  O_22
REMARK    8  A    between atoms: C_28  and  C_29
REMARK                            x       y       z     vdW  Elec       q    Type
REMARK                         _______ _______ _______ _____ _____    ______ ____
ROOT
ATOM      1  O   UNL     1     -36.435  20.925   1.490  0.00  0.00    -0.453 OA
ATOM      2  O   UNL     1     -39.876  20.056  -0.511  0.00  0.00    -0.286 OA
ATOM      3  C   UNL     1     -35.339  19.044   0.576  0.00  0.00    +0.051 C 
ATOM      4  C   UNL     1     -36.492  19.824   0.673  0.00  0.00    +0.150 C 
ATOM      5  C   UNL     1     -37.636  19.470  -0.040  0.00  0.00    +0.107 C 
ATOM      6  C   UNL     1     -37.563  21.723   1.602  0.00  0.00    +0.149 C 
ATOM      7  C   UNL     1     -35.336  17.911  -0.238  0.00  0.00    +0.136 C 
ATOM      8  C   UNL     1     -37.636  18.336  -0.856  0.00  0.00    +0.143 C 
ATOM      9  C   UNL     1     -38.837  20.309   0.083  0.00  0.00    +0.205 C 
ATOM     10  C   UNL     1     -36.481  17.558  -0.953  0.00  0.00    +0.073 C 
ATOM     11  C   UNL     1     -38.724  21.483   0.971  0.00  0.00    +0.080 C 
ENDROOT
BRANCH   6  12
ATOM     12  C   UNL     1     -37.395  22.877   2.509  0.00  0.00    +0.041 C 
ATOM     13  C   UNL     1     -36.464  22.820   3.549  0.00  0.00    +0.043 C 
ATOM     14  C   UNL     1     -38.163  24.030   2.329  0.00  0.00    +0.043 C 
ATOM     15  C   UNL     1     -38.001  25.120   3.185  0.00  0.00    +0.175 C 
ATOM     16  C   UNL     1     -36.303  23.909   4.406  0.00  0.00    +0.175 C 
ATOM     17  C   UNL     1     -37.071  25.060   4.223  0.00  0.00    +0.202 C 
BRANCH  15  18
ATOM     18  O   UNL     1     -38.758  26.237   2.996  0.00  0.00    -0.468 OA
ATOM     19  C   UNL     1     -40.169  26.055   2.905  0.00  0.00    +0.253 C 
ENDBRANCH  15  18
BRANCH  16  20
ATOM     20  O   UNL     1     -35.392  23.838   5.415  0.00  0.00    -0.468 OA
ATOM     21  C   UNL     1     -35.320  22.609   6.135  0.00  0.00    +0.253 C 
ENDBRANCH  16  20
BRANCH  17  22
ATOM     22  O   UNL     1     -36.914  26.125   5.060  0.00  0.00    -0.501 OA
ATOM     23  H   UNL     1     -36.746  26.976   4.707  0.00  0.00    +0.292 HD
ENDBRANCH  17  22
ENDBRANCH   6  12
BRANCH   7  24
ATOM     24  O   UNL     1     -34.220  17.136  -0.349  0.00  0.00    -0.506 OA
ATOM     25  H   UNL     1     -33.371  17.520  -0.255  0.00  0.00    +0.292 HD
ENDBRANCH   7  24
BRANCH   8  26
ATOM     26  O   UNL     1     -38.727  17.947  -1.572  0.00  0.00    -0.505 OA
ATOM     27  H   UNL     1     -38.680  17.191  -2.124  0.00  0.00    +0.292 HD
ENDBRANCH   8  26
BRANCH   3  28
ATOM     28  C   UNL     1     -34.107  19.414   1.339  0.00  0.00    +0.058 C 
BRANCH  28  29
ATOM     29  C   UNL     1     -33.146  20.245   0.528  0.00  0.00    -0.030 C 
ATOM     30  C   UNL     1     -31.879  19.946   0.182  0.00  0.00    -0.048 C 
ATOM     31  C   UNL     1     -30.972  20.825  -0.633  0.00  0.00    +0.026 C 
ATOM     32  C   UNL     1     -31.254  18.649   0.622  0.00  0.00    +0.026 C 
ENDBRANCH  28  29
ENDBRANCH   3  28
TORSDOF 8
ENDMDL
MODEL 3
REMARK VINA RESULT:      -6.6      1.762      6.931
REMARK  Name = 5321664
REMARK  8 active torsions:
REMARK  status: ('A' for Active; 'I' for Inactive)
REMARK    1  A    between atoms: C_3  and  C_28
REMARK    2  A    between atoms: C_6  and  C_12
REMARK    3  A    between atoms: C_7  and  O_24
REMARK    4  A    between atoms: C_8  and  O_26
REMARK    5  A    between atoms: C_15  and  O_18
REMARK    6  A    between atoms: C_16  and  O_20
REMARK    7  A    between atoms: C_17  and  O_22
REMARK    8  A    between atoms: C_28  and  C_29
REMARK                            x       y       z     vdW  Elec       q    Type
REMARK                         _______ _______ _______ _____ _____    ______ ____
ROOT
ATOM      1  O   UNL     1     -35.937  21.135   1.352  0.00  0.00    -0.453 OA
ATOM      2  O   UNL     1     -38.908  19.160  -0.616  0.00  0.00    -0.286 OA
ATOM      3  C   UNL     1     -37.478  22.638   2.324  0.00  0.00    +0.051 C 
ATOM      4  C   UNL     1     -37.241  21.542   1.495  0.00  0.00    +0.150 C 
ATOM      5  C   UNL     1     -38.304  20.910   0.852  0.00  0.00    +0.107 C 
ATOM      6  C   UNL     1     -35.672  20.044   0.539  0.00  0.00    +0.149 C 
ATOM      7  C   UNL     1     -38.782  23.098   2.508  0.00  0.00    +0.136 C 
ATOM      8  C   UNL     1     -39.611  21.369   1.034  0.00  0.00    +0.143 C 
ATOM      9  C   UNL     1     -38.024  19.759  -0.018  0.00  0.00    +0.205 C 
ATOM     10  C   UNL     1     -39.846  22.465   1.864  0.00  0.00    +0.073 C 
ATOM     11  C   UNL     1     -36.608  19.359  -0.137  0.00  0.00    +0.080 C 
ENDROOT
BRANCH   6  12
ATOM     12  C   UNL     1     -34.239  19.696   0.452  0.00  0.00    +0.041 C 
ATOM     13  C   UNL     1     -33.817  18.390   0.711  0.00  0.00    +0.043 C 
ATOM     14  C   UNL     1     -33.298  20.671   0.109  0.00  0.00    +0.043 C 
ATOM     15  C   UNL     1     -31.946  20.341   0.025  0.00  0.00    +0.175 C 
ATOM     16  C   UNL     1     -32.465  18.059   0.627  0.00  0.00    +0.175 C 
ATOM     17  C   UNL     1     -31.528  19.035   0.285  0.00  0.00    +0.202 C 
BRANCH  15  18
ATOM     18  O   UNL     1     -31.041  21.303  -0.310  0.00  0.00    -0.468 OA
ATOM     19  C   UNL     1     -31.493  22.343  -1.175  0.00  0.00    +0.253 C 
ENDBRANCH  15  18
BRANCH  16  20
ATOM     20  O   UNL     1     -32.071  16.781   0.884  0.00  0.00    -0.468 OA
ATOM     21  C   UNL     1     -32.313  15.813  -0.135  0.00  0.00    +0.253 C 
ENDBRANCH  16  20
BRANCH  17  22
ATOM     22  O   UNL     1     -30.206  18.712   0.203  0.00  0.00    -0.501 OA
ATOM     23  H   UNL     1     -29.650  19.167  -0.398  0.00  0.00    +0.292 HD
ENDBRANCH  17  22
ENDBRANCH   6  12
BRANCH   7  24
ATOM     24  O   UNL     1     -39.037  24.167   3.315  0.00  0.00    -0.506 OA
ATOM     25  H   UNL     1     -39.920  24.392   3.530  0.00  0.00    +0.292 HD
ENDBRANCH   7  24
BRANCH   8  26
ATOM     26  O   UNL     1     -40.683  20.788   0.428  0.00  0.00    -0.505 OA
ATOM     27  H   UNL     1     -41.204  21.281  -0.176  0.00  0.00    +0.292 HD
ENDBRANCH   8  26
BRANCH   3  28
ATOM     28  C   UNL     1     -36.344  23.324   3.017  0.00  0.00    +0.058 C 
BRANCH  28  29
ATOM     29  C   UNL     1     -35.858  22.569   4.228  0.00  0.00    -0.030 C 
ATOM     30  C   UNL     1     -35.478  23.068   5.420  0.00  0.00    -0.048 C 
ATOM     31  C   UNL     1     -35.001  22.254   6.589  0.00  0.00    +0.026 C 
ATOM     32  C   UNL     1     -35.499  24.553   5.665  0.00  0.00    +0.026 C 
ENDBRANCH  28  29
ENDBRANCH   3  28
TORSDOF 8
ENDMDL
MODEL 4
REMARK VINA RESULT:      -6.4      1.699      6.960
REMARK  Name = 5321664
REMARK  8 active torsions:
REMARK  status: ('A' for Active; 'I' for Inactive)
REMARK    1  A    between atoms: C_3  and  C_28
REMARK    2  A    between atoms: C_6  and  C_12
REMARK    3  A    between atoms: C_7  and  O_24
REMARK    4  A    between atoms: C_8  and  O_26
REMARK    5  A    between atoms: C_15  and  O_18
REMARK    6  A    between atoms: C_16  and  O_20
REMARK    7  A    between atoms: C_17  and  O_22
REMARK    8  A    between atoms: C_28  and  C_29
REMARK                            x       y       z     vdW  Elec       q    Type
REMARK                         _______ _______ _______ _____ _____    ______ ____
ROOT
ATOM      1  O   UNL     1     -35.844  20.745   1.263  0.00  0.00    -0.453 OA
ATOM      2  O   UNL     1     -39.020  19.008  -0.606  0.00  0.00    -0.286 OA
ATOM      3  C   UNL     1     -37.227  22.385   2.250  0.00  0.00    +0.051 C 
ATOM      4  C   UNL     1     -37.104  21.263   1.431  0.00  0.00    +0.150 C 
ATOM      5  C   UNL     1     -38.233  20.717   0.822  0.00  0.00    +0.107 C 
ATOM      6  C   UNL     1     -35.692  19.626   0.459  0.00  0.00    +0.149 C 
ATOM      7  C   UNL     1     -38.482  22.958   2.458  0.00  0.00    +0.136 C 
ATOM      8  C   UNL     1     -39.491  21.288   1.028  0.00  0.00    +0.143 C 
ATOM      9  C   UNL     1     -38.074  19.536  -0.038  0.00  0.00    +0.205 C 
ATOM     10  C   UNL     1     -39.611  22.410   1.849  0.00  0.00    +0.073 C 
ATOM     11  C   UNL     1     -36.700  19.015  -0.185  0.00  0.00    +0.080 C 
ENDROOT
BRANCH   6  12
ATOM     12  C   UNL     1     -34.297  19.155   0.344  0.00  0.00    +0.041 C 
ATOM     13  C   UNL     1     -33.258  20.075   0.182  0.00  0.00    +0.043 C 
ATOM     14  C   UNL     1     -34.009  17.789   0.398  0.00  0.00    +0.043 C 
ATOM     15  C   UNL     1     -32.691  17.346   0.291  0.00  0.00    +0.175 C 
ATOM     16  C   UNL     1     -31.940  19.633   0.074  0.00  0.00    +0.175 C 
ATOM     17  C   UNL     1     -31.656  18.268   0.129  0.00  0.00    +0.202 C 
BRANCH  15  18
ATOM     18  O   UNL     1     -32.426  16.011   0.346  0.00  0.00    -0.468 OA
ATOM     19  C   UNL     1     -32.916  15.209  -0.727  0.00  0.00    +0.253 C 
ENDBRANCH  15  18
BRANCH  16  20
ATOM     20  O   UNL     1     -30.939  20.542  -0.084  0.00  0.00    -0.468 OA
ATOM     21  C   UNL     1     -30.858  21.202  -1.346  0.00  0.00    +0.253 C 
ENDBRANCH  16  20
BRANCH  17  22
ATOM     22  O   UNL     1     -30.367  17.834   0.025  0.00  0.00    -0.501 OA
ATOM     23  H   UNL     1     -29.910  17.916  -0.789  0.00  0.00    +0.292 HD
ENDBRANCH  17  22
ENDBRANCH   6  12
BRANCH   7  24
ATOM     24  O   UNL     1     -38.624  24.054   3.256  0.00  0.00    -0.506 OA
ATOM     25  H   UNL     1     -37.890  24.612   3.421  0.00  0.00    +0.292 HD
ENDBRANCH   7  24
BRANCH   8  26
ATOM     26  O   UNL     1     -40.624  20.794   0.456  0.00  0.00    -0.505 OA
ATOM     27  H   UNL     1     -41.090  20.094   0.869  0.00  0.00    +0.292 HD
ENDBRANCH   8  26
BRANCH   3  28
ATOM     28  C   UNL     1     -36.022  22.980   2.907  0.00  0.00    +0.058 C 
BRANCH  28  29
ATOM     29  C   UNL     1     -35.678  22.309   4.212  0.00  0.00    -0.030 C 
ATOM     30  C   UNL     1     -35.485  22.884   5.415  0.00  0.00    -0.048 C 
ATOM     31  C   UNL     1     -35.143  22.152   6.682  0.00  0.00    +0.026 C 
ATOM     32  C   UNL     1     -35.596  24.378   5.572  0.00  0.00    +0.026 C 
ENDBRANCH  28  29
ENDBRANCH   3  28
TORSDOF 8
ENDMDL
MODEL 5
REMARK VINA RESULT:      -6.4      1.521      6.878
REMARK  Name = 5321664
REMARK  8 active torsions:
REMARK  status: ('A' for Active; 'I' for Inactive)
REMARK    1  A    between atoms: C_3  and  C_28
REMARK    2  A    between atoms: C_6  and  C_12
REMARK    3  A    between atoms: C_7  and  O_24
REMARK    4  A    between atoms: C_8  and  O_26
REMARK    5  A    between atoms: C_15  and  O_18
REMARK    6  A    between atoms: C_16  and  O_20
REMARK    7  A    between atoms: C_17  and  O_22
REMARK    8  A    between atoms: C_28  and  C_29
REMARK                            x       y       z     vdW  Elec       q    Type
REMARK                         _______ _______ _______ _____ _____    ______ ____
ROOT
ATOM      1  O   UNL     1     -37.159  22.035   1.685  0.00  0.00    -0.453 OA
ATOM      2  O   UNL     1     -41.009  21.924   0.354  0.00  0.00    -0.286 OA
ATOM      3  C   UNL     1     -37.518  24.096   2.781  0.00  0.00    +0.051 C 
ATOM      4  C   UNL     1     -38.023  23.053   2.003  0.00  0.00    +0.150 C 
ATOM      5  C   UNL     1     -39.351  23.077   1.582  0.00  0.00    +0.107 C 
ATOM      6  C   UNL     1     -37.635  20.982   0.919  0.00  0.00    +0.149 C 
ATOM      7  C   UNL     1     -38.348  25.160   3.135  0.00  0.00    +0.136 C 
ATOM      8  C   UNL     1     -40.184  24.141   1.935  0.00  0.00    +0.143 C 
ATOM      9  C   UNL     1     -39.856  21.966   0.762  0.00  0.00    +0.205 C 
ATOM     10  C   UNL     1     -39.678  25.182   2.714  0.00  0.00    +0.073 C 
ATOM     11  C   UNL     1     -38.889  20.894   0.449  0.00  0.00    +0.080 C 
ENDROOT
BRANCH   6  12
ATOM     12  C   UNL     1     -36.622  19.945   0.632  0.00  0.00    +0.041 C 
ATOM     13  C   UNL     1     -36.987  18.776  -0.041  0.00  0.00    +0.043 C 
ATOM     14  C   UNL     1     -35.296  20.129   1.029  0.00  0.00    +0.043 C 
ATOM     15  C   UNL     1     -34.340  19.150   0.756  0.00  0.00    +0.175 C 
ATOM     16  C   UNL     1     -36.033  17.797  -0.314  0.00  0.00    +0.175 C 
ATOM     17  C   UNL     1     -34.709  17.983   0.084  0.00  0.00    +0.202 C 
BRANCH  15  18
ATOM     18  O   UNL     1     -33.050  19.344   1.150  0.00  0.00    -0.468 OA
ATOM     19  C   UNL     1     -32.219  20.115   0.285  0.00  0.00    +0.253 C 
ENDBRANCH  15  18
BRANCH  16  20
ATOM     20  O   UNL     1     -36.406  16.663  -0.969  0.00  0.00    -0.468 OA
ATOM     21  C   UNL     1     -37.453  15.892  -0.385  0.00  0.00    +0.253 C 
ENDBRANCH  16  20
BRANCH  17  22
ATOM     22  O   UNL     1     -33.775  17.027  -0.183  0.00  0.00    -0.501 OA
ATOM     23  H   UNL     1     -34.044  16.172  -0.454  0.00  0.00    +0.292 HD
ENDBRANCH  17  22
ENDBRANCH   6  12
BRANCH   7  24
ATOM     24  O   UNL     1     -37.876  26.188   3.896  0.00  0.00    -0.506 OA
ATOM     25  H   UNL     1     -36.984  26.461   3.812  0.00  0.00    +0.292 HD
ENDBRANCH   7  24
BRANCH   8  26
ATOM     26  O   UNL     1     -41.488  24.212   1.548  0.00  0.00    -0.505 OA
ATOM     27  H   UNL     1     -41.841  25.024   1.238  0.00  0.00    +0.292 HD
ENDBRANCH   8  26
BRANCH   3  28
ATOM     28  C   UNL     1     -36.094  24.081   3.237  0.00  0.00    +0.058 C 
BRANCH  28  29
ATOM     29  C   UNL     1     -35.946  23.651   4.674  0.00  0.00    -0.030 C 
ATOM     30  C   UNL     1     -35.541  22.457   5.145  0.00  0.00    -0.048 C 
ATOM     31  C   UNL     1     -35.415  22.094   6.598  0.00  0.00    +0.026 C 
ATOM     32  C   UNL     1     -35.179  21.346   4.195  0.00  0.00    +0.026 C 
ENDBRANCH  28  29
ENDBRANCH   3  28
TORSDOF 8
ENDMDL
MODEL 6
REMARK VINA RESULT:      -6.4      1.523      7.008
REMARK  Name = 5321664
REMARK  8 active torsions:
REMARK  status: ('A' for Active; 'I' for Inactive)
REMARK    1  A    between atoms: C_3  and  C_28
REMARK    2  A    between atoms: C_6  and  C_12
REMARK    3  A    between atoms: C_7  and  O_24
REMARK    4  A    between atoms: C_8  and  O_26
REMARK    5  A    between atoms: C_15  and  O_18
REMARK    6  A    between atoms: C_16  and  O_20
REMARK    7  A    between atoms: C_17  and  O_22
REMARK    8  A    between atoms: C_28  and  C_29
REMARK                            x       y       z     vdW  Elec       q    Type
REMARK                         _______ _______ _______ _____ _____    ______ ____
ROOT
ATOM      1  O   UNL     1     -37.169  22.036   1.677  0.00  0.00    -0.453 OA
ATOM      2  O   UNL     1     -41.018  21.932   0.345  0.00  0.00    -0.286 OA
ATOM      3  C   UNL     1     -37.525  24.097   2.773  0.00  0.00    +0.051 C 
ATOM      4  C   UNL     1     -38.031  23.056   1.995  0.00  0.00    +0.150 C 
ATOM      5  C   UNL     1     -39.359  23.082   1.574  0.00  0.00    +0.107 C 
ATOM      6  C   UNL     1     -37.645  20.984   0.910  0.00  0.00    +0.149 C 
ATOM      7  C   UNL     1     -38.354  25.162   3.129  0.00  0.00    +0.136 C 
ATOM      8  C   UNL     1     -40.191  24.146   1.928  0.00  0.00    +0.143 C 
ATOM      9  C   UNL     1     -39.865  21.972   0.753  0.00  0.00    +0.205 C 
ATOM     10  C   UNL     1     -39.683  25.186   2.707  0.00  0.00    +0.073 C 
ATOM     11  C   UNL     1     -38.900  20.899   0.439  0.00  0.00    +0.080 C 
ENDROOT
BRANCH   6  12
ATOM     12  C   UNL     1     -36.634  19.947   0.622  0.00  0.00    +0.041 C 
ATOM     13  C   UNL     1     -35.306  20.134   1.012  0.00  0.00    +0.043 C 
ATOM     14  C   UNL     1     -37.001  18.772  -0.039  0.00  0.00    +0.043 C 
ATOM     15  C   UNL     1     -36.047  17.791  -0.309  0.00  0.00    +0.175 C 
ATOM     16  C   UNL     1     -34.351  19.154   0.743  0.00  0.00    +0.175 C 
ATOM     17  C   UNL     1     -34.721  17.982   0.082  0.00  0.00    +0.202 C 
BRANCH  15  18
ATOM     18  O   UNL     1     -36.421  16.652  -0.955  0.00  0.00    -0.468 OA
ATOM     19  C   UNL     1     -37.506  15.916  -0.394  0.00  0.00    +0.253 C 
ENDBRANCH  15  18
BRANCH  16  20
ATOM     20  O   UNL     1     -33.060  19.353   1.129  0.00  0.00    -0.468 OA
ATOM     21  C   UNL     1     -32.242  20.145   0.270  0.00  0.00    +0.253 C 
ENDBRANCH  16  20
BRANCH  17  22
ATOM     22  O   UNL     1     -33.788  17.024  -0.181  0.00  0.00    -0.501 OA
ATOM     23  H   UNL     1     -33.367  16.574   0.524  0.00  0.00    +0.292 HD
ENDBRANCH  17  22
ENDBRANCH   6  12
BRANCH   7  24
ATOM     24  O   UNL     1     -37.880  26.189   3.890  0.00  0.00    -0.506 OA
ATOM     25  H   UNL     1     -37.851  27.057   3.539  0.00  0.00    +0.292 HD
ENDBRANCH   7  24
BRANCH   8  26
ATOM     26  O   UNL     1     -41.495  24.219   1.540  0.00  0.00    -0.505 OA
ATOM     27  H   UNL     1     -42.055  23.474   1.639  0.00  0.00    +0.292 HD
ENDBRANCH   8  26
BRANCH   3  28
ATOM     28  C   UNL     1     -36.101  24.080   3.229  0.00  0.00    +0.058 C 
BRANCH  28  29
ATOM     29  C   UNL     1     -35.954  23.653   4.668  0.00  0.00    -0.030 C 
ATOM     30  C   UNL     1     -35.549  22.459   5.141  0.00  0.00    -0.048 C 
ATOM     31  C   UNL     1     -35.425  22.099   6.595  0.00  0.00    +0.026 C 
ATOM     32  C   UNL     1     -35.187  21.347   4.194  0.00  0.00    +0.026 C 
ENDBRANCH  28  29
ENDBRANCH   3  28
TORSDOF 8
ENDMDL
MODEL 7
REMARK VINA RESULT:      -6.2      5.301     10.095
REMARK  Name = 5321664
REMARK  8 active torsions:
REMARK  status: ('A' for Active; 'I' for Inactive)
REMARK    1  A    between atoms: C_3  and  C_28
REMARK    2  A    between atoms: C_6  and  C_12
REMARK    3  A    between atoms: C_7  and  O_24
REMARK    4  A    between atoms: C_8  and  O_26
REMARK    5  A    between atoms: C_15  and  O_18
REMARK    6  A    between atoms: C_16  and  O_20
REMARK    7  A    between atoms: C_17  and  O_22
REMARK    8  A    between atoms: C_28  and  C_29
REMARK                            x       y       z     vdW  Elec       q    Type
REMARK                         _______ _______ _______ _____ _____    ______ ____
ROOT
ATOM      1  O   UNL     1     -34.115  28.124   3.591  0.00  0.00    -0.453 OA
ATOM      2  O   UNL     1     -31.191  28.238   6.426  0.00  0.00    -0.286 OA
ATOM      3  C   UNL     1     -33.577  30.298   2.841  0.00  0.00    +0.051 C 
ATOM      4  C   UNL     1     -33.324  29.240   3.714  0.00  0.00    +0.150 C 
ATOM      5  C   UNL     1     -32.306  29.344   4.661  0.00  0.00    +0.107 C 
ATOM      6  C   UNL     1     -33.883  27.054   4.440  0.00  0.00    +0.149 C 
ATOM      7  C   UNL     1     -32.806  31.459   2.919  0.00  0.00    +0.136 C 
ATOM      8  C   UNL     1     -31.534  30.505   4.741  0.00  0.00    +0.143 C 
ATOM      9  C   UNL     1     -32.064  28.214   5.569  0.00  0.00    +0.205 C 
ATOM     10  C   UNL     1     -31.788  31.562   3.866  0.00  0.00    +0.073 C 
ATOM     11  C   UNL     1     -32.939  27.037   5.395  0.00  0.00    +0.080 C 
ENDROOT
BRANCH   6  12
ATOM     12  C   UNL     1     -34.792  25.910   4.225  0.00  0.00    +0.041 C 
ATOM     13  C   UNL     1     -35.483  25.781   3.018  0.00  0.00    +0.043 C 
ATOM     14  C   UNL     1     -34.964  24.951   5.226  0.00  0.00    +0.043 C 
ATOM     15  C   UNL     1     -35.821  23.870   5.022  0.00  0.00    +0.175 C 
ATOM     16  C   UNL     1     -36.341  24.700   2.813  0.00  0.00    +0.175 C 
ATOM     17  C   UNL     1     -36.510  23.744   3.815  0.00  0.00    +0.202 C 
BRANCH  15  18
ATOM     18  O   UNL     1     -35.977  22.943   6.008  0.00  0.00    -0.468 OA
ATOM     19  C   UNL     1     -35.001  21.906   6.083  0.00  0.00    +0.253 C 
ENDBRANCH  15  18
BRANCH  16  20
ATOM     20  O   UNL     1     -37.008  24.590   1.631  0.00  0.00    -0.468 OA
ATOM     21  C   UNL     1     -38.157  25.416   1.457  0.00  0.00    +0.253 C 
ENDBRANCH  16  20
BRANCH  17  22
ATOM     22  O   UNL     1     -37.348  22.687   3.615  0.00  0.00    -0.501 OA
ATOM     23  H   UNL     1     -37.029  21.812   3.713  0.00  0.00    +0.292 HD
ENDBRANCH  17  22
ENDBRANCH   6  12
BRANCH   7  24
ATOM     24  O   UNL     1     -33.035  32.505   2.074  0.00  0.00    -0.506 OA
ATOM     25  H   UNL     1     -32.935  32.391   1.150  0.00  0.00    +0.292 HD
ENDBRANCH   7  24
BRANCH   8  26
ATOM     26  O   UNL     1     -30.530  30.657   5.648  0.00  0.00    -0.505 OA
ATOM     27  H   UNL     1     -30.103  31.486   5.740  0.00  0.00    +0.292 HD
ENDBRANCH   8  26
BRANCH   3  28
ATOM     28  C   UNL     1     -34.667  30.197   1.823  0.00  0.00    +0.058 C 
BRANCH  28  29
ATOM     29  C   UNL     1     -35.901  30.973   2.209  0.00  0.00    -0.030 C 
ATOM     30  C   UNL     1     -36.620  31.821   1.449  0.00  0.00    -0.048 C 
ATOM     31  C   UNL     1     -37.845  32.565   1.901  0.00  0.00    +0.026 C 
ATOM     32  C   UNL     1     -36.213  32.100   0.027  0.00  0.00    +0.026 C 
ENDBRANCH  28  29
ENDBRANCH   3  28
TORSDOF 8
ENDMDL
MODEL 8
REMARK VINA RESULT:      -6.2      3.460      5.513
REMARK  Name = 5321664
REMARK  8 active torsions:
REMARK  status: ('A' for Active; 'I' for Inactive)
REMARK    1  A    between atoms: C_3  and  C_28
REMARK    2  A    between atoms: C_6  and  C_12
REMARK    3  A    between atoms: C_7  and  O_24
REMARK    4  A    between atoms: C_8  and  O_26
REMARK    5  A    between atoms: C_15  and  O_18
REMARK    6  A    between atoms: C_16  and  O_20
REMARK    7  A    between atoms: C_17  and  O_22
REMARK    8  A    between atoms: C_28  and  C_29
REMARK                            x       y       z     vdW  Elec       q    Type
REMARK                         _______ _______ _______ _____ _____    ______ ____
ROOT
ATOM      1  O   UNL     1     -36.515  24.919   2.352  0.00  0.00    -0.453 OA
ATOM      2  O   UNL     1     -40.265  25.974   1.156  0.00  0.00    -0.286 OA
ATOM      3  C   UNL     1     -37.055  22.622   2.272  0.00  0.00    +0.051 C 
ATOM      4  C   UNL     1     -37.451  23.948   2.098  0.00  0.00    +0.150 C 
ATOM      5  C   UNL     1     -38.750  24.239   1.685  0.00  0.00    +0.107 C 
ATOM      6  C   UNL     1     -36.879  26.246   2.181  0.00  0.00    +0.149 C 
ATOM      7  C   UNL     1     -37.963  21.590   2.030  0.00  0.00    +0.136 C 
ATOM      8  C   UNL     1     -39.661  23.208   1.442  0.00  0.00    +0.143 C 
ATOM      9  C   UNL     1     -39.141  25.646   1.512  0.00  0.00    +0.205 C 
ATOM     10  C   UNL     1     -39.262  21.883   1.616  0.00  0.00    +0.073 C 
ATOM     11  C   UNL     1     -38.099  26.653   1.795  0.00  0.00    +0.080 C 
ENDROOT
BRANCH   6  12
ATOM     12  C   UNL     1     -35.799  27.207   2.486  0.00  0.00    +0.041 C 
ATOM     13  C   UNL     1     -35.865  28.514   1.997  0.00  0.00    +0.043 C 
ATOM     14  C   UNL     1     -34.709  26.815   3.266  0.00  0.00    +0.043 C 
ATOM     15  C   UNL     1     -33.691  27.724   3.555  0.00  0.00    +0.175 C 
ATOM     16  C   UNL     1     -34.847  29.423   2.285  0.00  0.00    +0.175 C 
ATOM     17  C   UNL     1     -33.760  29.028   3.065  0.00  0.00    +0.202 C 
BRANCH  15  18
ATOM     18  O   UNL     1     -32.634  27.326   4.318  0.00  0.00    -0.468 OA
ATOM     19  C   UNL     1     -32.844  27.251   5.726  0.00  0.00    +0.253 C 
ENDBRANCH  15  18
BRANCH  16  20
ATOM     20  O   UNL     1     -34.927  30.693   1.799  0.00  0.00    -0.468 OA
ATOM     21  C   UNL     1     -36.146  31.397   2.025  0.00  0.00    +0.253 C 
ENDBRANCH  16  20
BRANCH  17  22
ATOM     22  O   UNL     1     -32.765  29.917   3.348  0.00  0.00    -0.501 OA
ATOM     23  H   UNL     1     -31.890  29.746   3.060  0.00  0.00    +0.292 HD
ENDBRANCH  17  22
ENDBRANCH   6  12
BRANCH   7  24
ATOM     24  O   UNL     1     -37.596  20.287   2.192  0.00  0.00    -0.506 OA
ATOM     25  H   UNL     1     -38.155  19.601   1.886  0.00  0.00    +0.292 HD
ENDBRANCH   7  24
BRANCH   8  26
ATOM     26  O   UNL     1     -40.941  23.440   1.039  0.00  0.00    -0.505 OA
ATOM     27  H   UNL     1     -41.463  24.081   1.482  0.00  0.00    +0.292 HD
ENDBRANCH   8  26
BRANCH   3  28
ATOM     28  C   UNL     1     -35.664  22.298   2.716  0.00  0.00    +0.058 C 
BRANCH  28  29
ATOM     29  C   UNL     1     -35.604  21.816   4.143  0.00  0.00    -0.030 C 
ATOM     30  C   UNL     1     -35.221  22.503   5.235  0.00  0.00    -0.048 C 
ATOM     31  C   UNL     1     -35.185  21.958   6.636  0.00  0.00    +0.026 C 
ATOM     32  C   UNL     1     -34.771  23.935   5.116  0.00  0.00    +0.026 C 
ENDBRANCH  28  29
ENDBRANCH   3  28
TORSDOF 8
ENDMDL
MODEL 9
REMARK VINA RESULT:      -6.2      3.433      5.999
REMARK  Name = 5321664
REMARK  8 active torsions:
REMARK  status: ('A' for Active; 'I' for Inactive)
REMARK    1  A    between atoms: C_3  and  C_28
REMARK    2  A    between atoms: C_6  and  C_12
REMARK    3  A    between atoms: C_7  and  O_24
REMARK    4  A    between atoms: C_8  and  O_26
REMARK    5  A    between atoms: C_15  and  O_18
REMARK    6  A    between atoms: C_16  and  O_20
REMARK    7  A    between atoms: C_17  and  O_22
REMARK    8  A    between atoms: C_28  and  C_29
REMARK                            x       y       z     vdW  Elec       q    Type
REMARK                         _______ _______ _______ _____ _____    ______ ____
ROOT
ATOM      1  O   UNL     1     -36.403  24.888   2.412  0.00  0.00    -0.453 OA
ATOM      2  O   UNL     1     -40.154  26.027   1.301  0.00  0.00    -0.286 OA
ATOM      3  C   UNL     1     -36.988  22.602   2.315  0.00  0.00    +0.051 C 
ATOM      4  C   UNL     1     -37.362  23.937   2.164  0.00  0.00    +0.150 C 
ATOM      5  C   UNL     1     -38.663  24.258   1.780  0.00  0.00    +0.107 C 
ATOM      6  C   UNL     1     -36.745  26.223   2.264  0.00  0.00    +0.149 C 
ATOM      7  C   UNL     1     -37.919  21.590   2.078  0.00  0.00    +0.136 C 
ATOM      8  C   UNL     1     -39.597  23.247   1.543  0.00  0.00    +0.143 C 
ATOM      9  C   UNL     1     -39.030  25.674   1.632  0.00  0.00    +0.205 C 
ATOM     10  C   UNL     1     -39.220  21.913   1.693  0.00  0.00    +0.073 C 
ATOM     11  C   UNL     1     -37.964  26.657   1.906  0.00  0.00    +0.080 C 
ENDROOT
BRANCH   6  12
ATOM     12  C   UNL     1     -35.642  27.160   2.559  0.00  0.00    +0.041 C 
ATOM     13  C   UNL     1     -34.628  26.792   3.447  0.00  0.00    +0.043 C 
ATOM     14  C   UNL     1     -35.605  28.418   1.951  0.00  0.00    +0.043 C 
ATOM     15  C   UNL     1     -34.562  29.301   2.229  0.00  0.00    +0.175 C 
ATOM     16  C   UNL     1     -33.584  27.675   3.726  0.00  0.00    +0.175 C 
ATOM     17  C   UNL     1     -33.551  28.930   3.117  0.00  0.00    +0.202 C 
BRANCH  15  18
ATOM     18  O   UNL     1     -34.541  30.523   1.628  0.00  0.00    -0.468 OA
ATOM     19  C   UNL     1     -35.439  31.509   2.134  0.00  0.00    +0.253 C 
ENDBRANCH  15  18
BRANCH  16  20
ATOM     20  O   UNL     1     -32.605  27.301   4.595  0.00  0.00    -0.468 OA
ATOM     21  C   UNL     1     -32.999  27.036   5.940  0.00  0.00    +0.253 C 
ENDBRANCH  16  20
BRANCH  17  22
ATOM     22  O   UNL     1     -32.532  29.793   3.388  0.00  0.00    -0.501 OA
ATOM     23  H   UNL     1     -32.036  30.167   2.687  0.00  0.00    +0.292 HD
ENDBRANCH  17  22
ENDBRANCH   6  12
BRANCH   7  24
ATOM     24  O   UNL     1     -37.573  20.279   2.218  0.00  0.00    -0.506 OA
ATOM     25  H   UNL     1     -37.361  19.938   3.064  0.00  0.00    +0.292 HD
ENDBRANCH   7  24
BRANCH   8  26
ATOM     26  O   UNL     1     -40.880  23.508   1.167  0.00  0.00    -0.505 OA
ATOM     27  H   UNL     1     -41.481  22.801   1.029  0.00  0.00    +0.292 HD
ENDBRANCH   8  26
BRANCH   3  28
ATOM     28  C   UNL     1     -35.595  22.247   2.728  0.00  0.00    +0.058 C 
BRANCH  28  29
ATOM     29  C   UNL     1     -35.516  21.749   4.149  0.00  0.00    -0.030 C 
ATOM     30  C   UNL     1     -35.295  22.465   5.268  0.00  0.00    -0.048 C 
ATOM     31  C   UNL     1     -35.228  21.902   6.659  0.00  0.00    +0.026 C 
ATOM     32  C   UNL     1     -35.077  23.953   5.190  0.00  0.00    +0.026 C 
ENDBRANCH  28  29
ENDBRANCH   3  28
TORSDOF 8
ENDMDL
