MODEL 1
REMARK VINA RESULT:      -6.5      0.000      0.000
REMARK  Name = 5459184
REMARK  7 active torsions:
REMARK  status: ('A' for Active; 'I' for Inactive)
REMARK    1  A    between atoms: C_5  and  C_12
REMARK    2  A    between atoms: C_6  and  O_22
REMARK    3  A    between atoms: C_8  and  O_24
REMARK    4  A    between atoms: C_9  and  O_28
REMARK    5  A    between atoms: C_10  and  O_26
REMARK    6  A    between atoms: C_15  and  O_18
REMARK    7  A    between atoms: C_17  and  O_20
REMARK                            x       y       z     vdW  Elec       q    Type
REMARK                         _______ _______ _______ _____ _____    ______ ____
ROOT
ATOM      1  O   UNL     1     -34.121  26.207   4.115  0.00  0.00    -0.447 OA
ATOM      2  O   UNL     1     -36.920  27.793   1.616  0.00  0.00    -0.283 OA
ATOM      3  C   UNL     1     -34.893  28.085   2.785  0.00  0.00    +0.113 A 
ATOM      4  C   UNL     1     -33.971  27.483   3.640  0.00  0.00    +0.188 A 
ATOM      5  C   UNL     1     -35.240  25.484   3.732  0.00  0.00    +0.182 A 
ATOM      6  C   UNL     1     -36.197  25.943   2.904  0.00  0.00    +0.212 A 
ATOM      7  C   UNL     1     -36.078  27.320   2.367  0.00  0.00    +0.238 A 
ATOM      8  C   UNL     1     -32.838  28.187   4.050  0.00  0.00    +0.207 C 
ATOM      9  C   UNL     1     -34.690  29.391   2.333  0.00  0.00    +0.143 C 
ATOM     10  C   UNL     1     -32.631  29.492   3.601  0.00  0.00    +0.178 C 
ATOM     11  C   UNL     1     -33.555  30.091   2.744  0.00  0.00    +0.077 C 
ENDROOT
BRANCH   5  12
ATOM     12  C   UNL     1     -35.274  24.129   4.308  0.00  0.00    +0.041 C 
ATOM     13  C   UNL     1     -35.269  23.012   3.470  0.00  0.00    +0.043 C 
ATOM     14  C   UNL     1     -35.312  23.958   5.693  0.00  0.00    +0.006 C 
ATOM     15  C   UNL     1     -35.302  21.728   4.015  0.00  0.00    +0.172 C 
ATOM     16  C   UNL     1     -35.345  22.674   6.238  0.00  0.00    +0.040 C 
ATOM     17  C   UNL     1     -35.339  21.560   5.399  0.00  0.00    +0.168 C 
BRANCH  15  18
ATOM     18  O   UNL     1     -35.298  20.648   3.187  0.00  0.00    -0.468 OA
ATOM     19  C   UNL     1     -36.378  20.536   2.261  0.00  0.00    +0.253 C 
ENDBRANCH  15  18
BRANCH  17  20
ATOM     20  O   UNL     1     -35.369  20.312   5.945  0.00  0.00    -0.503 OA
ATOM     21  H   UNL     1     -34.709  20.052   6.559  0.00  0.00    +0.292 HD
ENDBRANCH  17  20
ENDBRANCH   5  12
BRANCH   6  22
ATOM     22  O   UNL     1     -37.282  25.187   2.517  0.00  0.00    -0.465 OA
ATOM     23  C   UNL     1     -38.368  25.373   3.404  0.00  0.00    +0.253 C 
ENDBRANCH   6  22
BRANCH   8  24
ATOM     24  O   UNL     1     -31.932  27.605   4.886  0.00  0.00    -0.465 OA
ATOM     25  C   UNL     1     -32.126  27.797   6.285  0.00  0.00    +0.253 C 
ENDBRANCH   8  24
BRANCH  10  26
ATOM     26  O   UNL     1     -31.530  30.192   3.991  0.00  0.00    -0.468 OA
ATOM     27  C   UNL     1     -31.721  31.206   4.974  0.00  0.00    +0.253 C 
ENDBRANCH  10  26
BRANCH   9  28
ATOM     28  O   UNL     1     -35.560  30.022   1.497  0.00  0.00    -0.505 OA
ATOM     29  H   UNL     1     -35.573  29.807   0.586  0.00  0.00    +0.292 HD
ENDBRANCH   9  28
TORSDOF 7
ENDMDL
MODEL 2
REMARK VINA RESULT:      -6.3      2.579      7.567
REMARK  Name = 5459184
REMARK  7 active torsions:
REMARK  status: ('A' for Active; 'I' for Inactive)
REMARK    1  A    between atoms: C_5  and  C_12
REMARK    2  A    between atoms: C_6  and  O_22
REMARK    3  A    between atoms: C_8  and  O_24
REMARK    4  A    between atoms: C_9  and  O_28
REMARK    5  A    between atoms: C_10  and  O_26
REMARK    6  A    between atoms: C_15  and  O_18
REMARK    7  A    between atoms: C_17  and  O_20
REMARK                            x       y       z     vdW  Elec       q    Type
REMARK                         _______ _______ _______ _____ _____    ______ ____
ROOT
ATOM      1  O   UNL     1     -36.414  22.624   2.219  0.00  0.00    -0.447 OA
ATOM      2  O   UNL     1     -40.472  22.940   2.063  0.00  0.00    -0.283 OA
ATOM      3  C   UNL     1     -38.527  21.828   1.330  0.00  0.00    +0.113 A 
ATOM      4  C   UNL     1     -37.138  21.770   1.430  0.00  0.00    +0.188 A 
ATOM      5  C   UNL     1     -37.092  23.590   2.947  0.00  0.00    +0.182 A 
ATOM      6  C   UNL     1     -38.429  23.744   2.948  0.00  0.00    +0.212 A 
ATOM      7  C   UNL     1     -39.253  22.844   2.107  0.00  0.00    +0.238 A 
ATOM      8  C   UNL     1     -36.426  20.814   0.704  0.00  0.00    +0.207 C 
ATOM      9  C   UNL     1     -39.214  20.931   0.507  0.00  0.00    +0.143 C 
ATOM     10  C   UNL     1     -37.108  19.917  -0.119  0.00  0.00    +0.178 C 
ATOM     11  C   UNL     1     -38.498  19.976  -0.216  0.00  0.00    +0.077 C 
ENDROOT
BRANCH   5  12
ATOM     12  C   UNL     1     -36.196  24.435   3.755  0.00  0.00    +0.041 C 
ATOM     13  C   UNL     1     -35.861  25.718   3.317  0.00  0.00    +0.043 C 
ATOM     14  C   UNL     1     -35.679  23.956   4.960  0.00  0.00    +0.006 C 
ATOM     15  C   UNL     1     -35.013  26.519   4.081  0.00  0.00    +0.172 C 
ATOM     16  C   UNL     1     -34.831  24.756   5.724  0.00  0.00    +0.040 C 
ATOM     17  C   UNL     1     -34.498  26.038   5.285  0.00  0.00    +0.168 C 
BRANCH  15  18
ATOM     18  O   UNL     1     -34.693  27.767   3.642  0.00  0.00    -0.468 OA
ATOM     19  C   UNL     1     -35.245  28.177   2.392  0.00  0.00    +0.253 C 
ENDBRANCH  15  18
BRANCH  17  20
ATOM     20  O   UNL     1     -33.670  26.811   6.043  0.00  0.00    -0.503 OA
ATOM     21  H   UNL     1     -33.753  27.745   6.024  0.00  0.00    +0.292 HD
ENDBRANCH  17  20
ENDBRANCH   5  12
BRANCH   6  22
ATOM     22  O   UNL     1     -39.076  24.694   3.709  0.00  0.00    -0.465 OA
ATOM     23  C   UNL     1     -39.450  25.804   2.915  0.00  0.00    +0.253 C 
ENDBRANCH   6  22
BRANCH   8  24
ATOM     24  O   UNL     1     -35.067  20.752   0.796  0.00  0.00    -0.465 OA
ATOM     25  C   UNL     1     -34.525  19.874   1.780  0.00  0.00    +0.253 C 
ENDBRANCH   8  24
BRANCH  10  26
ATOM     26  O   UNL     1     -36.427  18.978  -0.833  0.00  0.00    -0.468 OA
ATOM     27  C   UNL     1     -36.631  17.615  -0.469  0.00  0.00    +0.253 C 
ENDBRANCH  10  26
BRANCH   9  28
ATOM     28  O   UNL     1     -40.569  20.946   0.377  0.00  0.00    -0.505 OA
ATOM     29  H   UNL     1     -41.111  21.091   1.127  0.00  0.00    +0.292 HD
ENDBRANCH   9  28
TORSDOF 7
ENDMDL
MODEL 3
REMARK VINA RESULT:      -6.0      2.618      7.750
REMARK  Name = 5459184
REMARK  7 active torsions:
REMARK  status: ('A' for Active; 'I' for Inactive)
REMARK    1  A    between atoms: C_5  and  C_12
REMARK    2  A    between atoms: C_6  and  O_22
REMARK    3  A    between atoms: C_8  and  O_24
REMARK    4  A    between atoms: C_9  and  O_28
REMARK    5  A    between atoms: C_10  and  O_26
REMARK    6  A    between atoms: C_15  and  O_18
REMARK    7  A    between atoms: C_17  and  O_20
REMARK                            x       y       z     vdW  Elec       q    Type
REMARK                         _______ _______ _______ _____ _____    ______ ____
ROOT
ATOM      1  O   UNL     1     -35.260  21.756   2.145  0.00  0.00    -0.447 OA
ATOM      2  O   UNL     1     -39.246  21.290   1.441  0.00  0.00    -0.283 OA
ATOM      3  C   UNL     1     -37.048  20.533   1.049  0.00  0.00    +0.113 A 
ATOM      4  C   UNL     1     -35.700  20.744   1.331  0.00  0.00    +0.188 A 
ATOM      5  C   UNL     1     -36.198  22.609   2.707  0.00  0.00    +0.182 A 
ATOM      6  C   UNL     1     -37.527  22.507   2.523  0.00  0.00    +0.212 A 
ATOM      7  C   UNL     1     -38.048  21.429   1.650  0.00  0.00    +0.238 A 
ATOM      8  C   UNL     1     -34.731  19.908   0.775  0.00  0.00    +0.207 C 
ATOM      9  C   UNL     1     -37.438  19.485   0.211  0.00  0.00    +0.143 C 
ATOM     10  C   UNL     1     -35.116  18.860  -0.062  0.00  0.00    +0.178 C 
ATOM     11  C   UNL     1     -36.467  18.650  -0.343  0.00  0.00    +0.077 C 
ENDROOT
BRANCH   5  12
ATOM     12  C   UNL     1     -35.593  23.645   3.561  0.00  0.00    +0.041 C 
ATOM     13  C   UNL     1     -35.060  24.801   2.987  0.00  0.00    +0.043 C 
ATOM     14  C   UNL     1     -35.550  23.474   4.945  0.00  0.00    +0.006 C 
ATOM     15  C   UNL     1     -34.487  25.783   3.795  0.00  0.00    +0.172 C 
ATOM     16  C   UNL     1     -34.977  24.456   5.754  0.00  0.00    +0.040 C 
ATOM     17  C   UNL     1     -34.446  25.610   5.179  0.00  0.00    +0.168 C 
BRANCH  15  18
ATOM     18  O   UNL     1     -33.970  26.905   3.223  0.00  0.00    -0.468 OA
ATOM     19  C   UNL     1     -34.894  27.920   2.834  0.00  0.00    +0.253 C 
ENDBRANCH  15  18
BRANCH  17  20
ATOM     20  O   UNL     1     -33.891  26.562   5.980  0.00  0.00    -0.503 OA
ATOM     21  H   UNL     1     -32.960  26.675   5.997  0.00  0.00    +0.292 HD
ENDBRANCH  17  20
ENDBRANCH   5  12
BRANCH   6  22
ATOM     22  O   UNL     1     -38.436  23.352   3.123  0.00  0.00    -0.465 OA
ATOM     23  C   UNL     1     -38.752  24.436   2.272  0.00  0.00    +0.253 C 
ENDBRANCH   6  22
BRANCH   8  24
ATOM     24  O   UNL     1     -33.410  20.108   1.047  0.00  0.00    -0.465 OA
ATOM     25  C   UNL     1     -32.657  20.847   0.089  0.00  0.00    +0.253 C 
ENDBRANCH   8  24
BRANCH  10  26
ATOM     26  O   UNL     1     -34.183  18.035  -0.612  0.00  0.00    -0.468 OA
ATOM     27  C   UNL     1     -33.987  16.770   0.015  0.00  0.00    +0.253 C 
ENDBRANCH  10  26
BRANCH   9  28
ATOM     28  O   UNL     1     -38.741  19.237  -0.095  0.00  0.00    -0.505 OA
ATOM     29  H   UNL     1     -39.351  19.031   0.585  0.00  0.00    +0.292 HD
ENDBRANCH   9  28
TORSDOF 7
ENDMDL
MODEL 4
REMARK VINA RESULT:      -5.9      4.730      7.714
REMARK  Name = 5459184
REMARK  7 active torsions:
REMARK  status: ('A' for Active; 'I' for Inactive)
REMARK    1  A    between atoms: C_5  and  C_12
REMARK    2  A    between atoms: C_6  and  O_22
REMARK    3  A    between atoms: C_8  and  O_24
REMARK    4  A    between atoms: C_9  and  O_28
REMARK    5  A    between atoms: C_10  and  O_26
REMARK    6  A    between atoms: C_15  and  O_18
REMARK    7  A    between atoms: C_17  and  O_20
REMARK                            x       y       z     vdW  Elec       q    Type
REMARK                         _______ _______ _______ _____ _____    ______ ____
ROOT
ATOM      1  O   UNL     1     -35.043  20.910   1.649  0.00  0.00    -0.447 OA
ATOM      2  O   UNL     1     -38.115  19.055  -0.279  0.00  0.00    -0.283 OA
ATOM      3  C   UNL     1     -37.421  20.768   1.185  0.00  0.00    +0.113 A 
ATOM      4  C   UNL     1     -36.327  21.359   1.814  0.00  0.00    +0.188 A 
ATOM      5  C   UNL     1     -34.824  19.817   0.826  0.00  0.00    +0.182 A 
ATOM      6  C   UNL     1     -35.789  19.163   0.154  0.00  0.00    +0.212 A 
ATOM      7  C   UNL     1     -37.194  19.613   0.302  0.00  0.00    +0.238 A 
ATOM      8  C   UNL     1     -36.515  22.457   2.655  0.00  0.00    +0.207 C 
ATOM      9  C   UNL     1     -38.709  21.268   1.391  0.00  0.00    +0.143 C 
ATOM     10  C   UNL     1     -37.800  22.960   2.863  0.00  0.00    +0.178 C 
ATOM     11  C   UNL     1     -38.894  22.366   2.232  0.00  0.00    +0.077 C 
ENDROOT
BRANCH   5  12
ATOM     12  C   UNL     1     -33.402  19.442   0.733  0.00  0.00    +0.041 C 
ATOM     13  C   UNL     1     -32.503  20.270   0.057  0.00  0.00    +0.043 C 
ATOM     14  C   UNL     1     -32.950  18.260   1.321  0.00  0.00    +0.006 C 
ATOM     15  C   UNL     1     -31.157  19.915  -0.031  0.00  0.00    +0.172 C 
ATOM     16  C   UNL     1     -31.604  17.905   1.233  0.00  0.00    +0.040 C 
ATOM     17  C   UNL     1     -30.707  18.734   0.558  0.00  0.00    +0.168 C 
BRANCH  15  18
ATOM     18  O   UNL     1     -30.291  20.730  -0.694  0.00  0.00    -0.468 OA
ATOM     19  C   UNL     1     -30.822  21.504  -1.769  0.00  0.00    +0.253 C 
ENDBRANCH  15  18
BRANCH  17  20
ATOM     20  O   UNL     1     -29.395  18.377   0.481  0.00  0.00    -0.503 OA
ATOM     21  H   UNL     1     -28.726  19.021   0.609  0.00  0.00    +0.292 HD
ENDBRANCH  17  20
ENDBRANCH   5  12
BRANCH   6  22
ATOM     22  O   UNL     1     -35.535  18.099  -0.684  0.00  0.00    -0.465 OA
ATOM     23  C   UNL     1     -35.325  18.542  -2.011  0.00  0.00    +0.253 C 
ENDBRANCH   6  22
BRANCH   8  24
ATOM     24  O   UNL     1     -35.449  23.041   3.273  0.00  0.00    -0.465 OA
ATOM     25  C   UNL     1     -35.233  22.708   4.642  0.00  0.00    +0.253 C 
ENDBRANCH   8  24
BRANCH  10  26
ATOM     26  O   UNL     1     -38.000  24.030   3.681  0.00  0.00    -0.468 OA
ATOM     27  C   UNL     1     -38.940  25.010   3.246  0.00  0.00    +0.253 C 
ENDBRANCH  10  26
BRANCH   9  28
ATOM     28  O   UNL     1     -39.810  20.726   0.800  0.00  0.00    -0.505 OA
ATOM     29  H   UNL     1     -39.914  20.774  -0.129  0.00  0.00    +0.292 HD
ENDBRANCH   9  28
TORSDOF 7
ENDMDL
MODEL 5
REMARK VINA RESULT:      -5.8      1.674      4.211
REMARK  Name = 5459184
REMARK  7 active torsions:
REMARK  status: ('A' for Active; 'I' for Inactive)
REMARK    1  A    between atoms: C_5  and  C_12
REMARK    2  A    between atoms: C_6  and  O_22
REMARK    3  A    between atoms: C_8  and  O_24
REMARK    4  A    between atoms: C_9  and  O_28
REMARK    5  A    between atoms: C_10  and  O_26
REMARK    6  A    between atoms: C_15  and  O_18
REMARK    7  A    between atoms: C_17  and  O_20
REMARK                            x       y       z     vdW  Elec       q    Type
REMARK                         _______ _______ _______ _____ _____    ______ ____
ROOT
ATOM      1  O   UNL     1     -36.313  25.669   2.696  0.00  0.00    -0.447 OA
ATOM      2  O   UNL     1     -33.400  28.473   3.197  0.00  0.00    -0.283 OA
ATOM      3  C   UNL     1     -35.427  27.863   2.157  0.00  0.00    +0.113 A 
ATOM      4  C   UNL     1     -36.391  26.864   2.031  0.00  0.00    +0.188 A 
ATOM      5  C   UNL     1     -35.226  25.441   3.526  0.00  0.00    +0.182 A 
ATOM      6  C   UNL     1     -34.235  26.325   3.743  0.00  0.00    +0.212 A 
ATOM      7  C   UNL     1     -34.276  27.632   3.043  0.00  0.00    +0.238 A 
ATOM      8  C   UNL     1     -37.493  27.060   1.198  0.00  0.00    +0.207 C 
ATOM      9  C   UNL     1     -35.558  29.063   1.453  0.00  0.00    +0.143 C 
ATOM     10  C   UNL     1     -37.628  28.257   0.494  0.00  0.00    +0.178 C 
ATOM     11  C   UNL     1     -36.662  29.255   0.622  0.00  0.00    +0.077 C 
ENDROOT
BRANCH   5  12
ATOM     12  C   UNL     1     -35.269  24.123   4.181  0.00  0.00    +0.041 C 
ATOM     13  C   UNL     1     -35.268  22.958   3.410  0.00  0.00    +0.043 C 
ATOM     14  C   UNL     1     -35.312  24.034   5.573  0.00  0.00    +0.006 C 
ATOM     15  C   UNL     1     -35.309  21.709   4.030  0.00  0.00    +0.172 C 
ATOM     16  C   UNL     1     -35.353  22.785   6.193  0.00  0.00    +0.040 C 
ATOM     17  C   UNL     1     -35.350  21.623   5.422  0.00  0.00    +0.168 C 
BRANCH  15  18
ATOM     18  O   UNL     1     -35.308  20.581   3.267  0.00  0.00    -0.468 OA
ATOM     19  C   UNL     1     -35.030  20.739   1.877  0.00  0.00    +0.253 C 
ENDBRANCH  15  18
BRANCH  17  20
ATOM     20  O   UNL     1     -35.389  20.409   6.040  0.00  0.00    -0.503 OA
ATOM     21  H   UNL     1     -35.214  19.628   5.551  0.00  0.00    +0.292 HD
ENDBRANCH  17  20
ENDBRANCH   5  12
BRANCH   6  22
ATOM     22  O   UNL     1     -33.184  26.081   4.600  0.00  0.00    -0.465 OA
ATOM     23  C   UNL     1     -33.361  26.771   5.822  0.00  0.00    +0.253 C 
ENDBRANCH   6  22
BRANCH   8  24
ATOM     24  O   UNL     1     -38.441  26.087   1.070  0.00  0.00    -0.465 OA
ATOM     25  C   UNL     1     -39.545  26.137   1.971  0.00  0.00    +0.253 C 
ENDBRANCH   8  24
BRANCH  10  26
ATOM     26  O   UNL     1     -38.698  28.463  -0.323  0.00  0.00    -0.468 OA
ATOM     27  C   UNL     1     -38.676  29.634  -1.135  0.00  0.00    +0.253 C 
ENDBRANCH  10  26
BRANCH   9  28
ATOM     28  O   UNL     1     -34.644  30.069   1.543  0.00  0.00    -0.505 OA
ATOM     29  H   UNL     1     -34.798  30.882   1.104  0.00  0.00    +0.292 HD
ENDBRANCH   9  28
TORSDOF 7
ENDMDL
MODEL 6
REMARK VINA RESULT:      -5.8      2.344      3.078
REMARK  Name = 5459184
REMARK  7 active torsions:
REMARK  status: ('A' for Active; 'I' for Inactive)
REMARK    1  A    between atoms: C_5  and  C_12
REMARK    2  A    between atoms: C_6  and  O_22
REMARK    3  A    between atoms: C_8  and  O_24
REMARK    4  A    between atoms: C_9  and  O_28
REMARK    5  A    between atoms: C_10  and  O_26
REMARK    6  A    between atoms: C_15  and  O_18
REMARK    7  A    between atoms: C_17  and  O_20
REMARK                            x       y       z     vdW  Elec       q    Type
REMARK                         _______ _______ _______ _____ _____    ______ ____
ROOT
ATOM      1  O   UNL     1     -35.588  25.748   2.230  0.00  0.00    -0.447 OA
ATOM      2  O   UNL     1     -39.467  26.903   1.767  0.00  0.00    -0.283 OA
ATOM      3  C   UNL     1     -37.200  27.259   1.226  0.00  0.00    +0.113 A 
ATOM      4  C   UNL     1     -35.895  26.813   1.424  0.00  0.00    +0.188 A 
ATOM      5  C   UNL     1     -36.621  25.090   2.880  0.00  0.00    +0.182 A 
ATOM      6  C   UNL     1     -37.922  25.413   2.766  0.00  0.00    +0.212 A 
ATOM      7  C   UNL     1     -38.302  26.559   1.906  0.00  0.00    +0.238 A 
ATOM      8  C   UNL     1     -34.833  27.458   0.790  0.00  0.00    +0.207 C 
ATOM      9  C   UNL     1     -37.454  28.352   0.393  0.00  0.00    +0.143 C 
ATOM     10  C   UNL     1     -35.082  28.550  -0.043  0.00  0.00    +0.178 C 
ATOM     11  C   UNL     1     -36.389  28.995  -0.240  0.00  0.00    +0.077 C 
ENDROOT
BRANCH   5  12
ATOM     12  C   UNL     1     -36.154  23.964   3.708  0.00  0.00    +0.041 C 
ATOM     13  C   UNL     1     -35.950  22.709   3.131  0.00  0.00    +0.043 C 
ATOM     14  C   UNL     1     -35.915  24.150   5.071  0.00  0.00    +0.006 C 
ATOM     15  C   UNL     1     -35.508  21.643   3.915  0.00  0.00    +0.172 C 
ATOM     16  C   UNL     1     -35.474  23.083   5.854  0.00  0.00    +0.040 C 
ATOM     17  C   UNL     1     -35.269  21.830   5.276  0.00  0.00    +0.168 C 
BRANCH  15  18
ATOM     18  O   UNL     1     -35.314  20.424   3.341  0.00  0.00    -0.468 OA
ATOM     19  C   UNL     1     -35.288  20.375   1.915  0.00  0.00    +0.253 C 
ENDBRANCH  15  18
BRANCH  17  20
ATOM     20  O   UNL     1     -34.836  20.798   6.053  0.00  0.00    -0.503 OA
ATOM     21  H   UNL     1     -34.333  20.104   5.671  0.00  0.00    +0.292 HD
ENDBRANCH  17  20
ENDBRANCH   5  12
BRANCH   6  22
ATOM     22  O   UNL     1     -38.929  24.717   3.400  0.00  0.00    -0.465 OA
ATOM     23  C   UNL     1     -39.500  23.757   2.533  0.00  0.00    +0.253 C 
ENDBRANCH   6  22
BRANCH   8  24
ATOM     24  O   UNL     1     -33.553  27.027   0.979  0.00  0.00    -0.465 OA
ATOM     25  C   UNL     1     -32.789  27.688   1.984  0.00  0.00    +0.253 C 
ENDBRANCH   8  24
BRANCH  10  26
ATOM     26  O   UNL     1     -34.056  29.190  -0.670  0.00  0.00    -0.468 OA
ATOM     27  C   UNL     1     -34.387  29.988  -1.803  0.00  0.00    +0.253 C 
ENDBRANCH  10  26
BRANCH   9  28
ATOM     28  O   UNL     1     -38.710  28.826   0.167  0.00  0.00    -0.505 OA
ATOM     29  H   UNL     1     -39.358  28.778   0.841  0.00  0.00    +0.292 HD
ENDBRANCH   9  28
TORSDOF 7
ENDMDL
MODEL 7
REMARK VINA RESULT:      -5.8      2.064      3.941
REMARK  Name = 5459184
REMARK  7 active torsions:
REMARK  status: ('A' for Active; 'I' for Inactive)
REMARK    1  A    between atoms: C_5  and  C_12
REMARK    2  A    between atoms: C_6  and  O_22
REMARK    3  A    between atoms: C_8  and  O_24
REMARK    4  A    between atoms: C_9  and  O_28
REMARK    5  A    between atoms: C_10  and  O_26
REMARK    6  A    between atoms: C_15  and  O_18
REMARK    7  A    between atoms: C_17  and  O_20
REMARK                            x       y       z     vdW  Elec       q    Type
REMARK                         _______ _______ _______ _____ _____    ______ ____
ROOT
ATOM      1  O   UNL     1     -36.008  25.647   2.380  0.00  0.00    -0.447 OA
ATOM      2  O   UNL     1     -34.319  25.684   6.087  0.00  0.00    -0.283 OA
ATOM      3  C   UNL     1     -34.463  26.669   3.950  0.00  0.00    +0.113 A 
ATOM      4  C   UNL     1     -35.079  26.603   2.701  0.00  0.00    +0.188 A 
ATOM      5  C   UNL     1     -36.345  24.703   3.337  0.00  0.00    +0.182 A 
ATOM      6  C   UNL     1     -35.833  24.662   4.581  0.00  0.00    +0.212 A 
ATOM      7  C   UNL     1     -34.824  25.675   4.973  0.00  0.00    +0.238 A 
ATOM      8  C   UNL     1     -34.756  27.535   1.715  0.00  0.00    +0.207 C 
ATOM      9  C   UNL     1     -33.522  27.665   4.221  0.00  0.00    +0.143 C 
ATOM     10  C   UNL     1     -33.817  28.532   1.981  0.00  0.00    +0.178 C 
ATOM     11  C   UNL     1     -33.203  28.596   3.232  0.00  0.00    +0.077 C 
ENDROOT
BRANCH   5  12
ATOM     12  C   UNL     1     -37.354  23.740   2.864  0.00  0.00    +0.041 C 
ATOM     13  C   UNL     1     -36.956  22.502   2.355  0.00  0.00    +0.043 C 
ATOM     14  C   UNL     1     -38.711  24.063   2.922  0.00  0.00    +0.006 C 
ATOM     15  C   UNL     1     -37.912  21.590   1.906  0.00  0.00    +0.172 C 
ATOM     16  C   UNL     1     -39.667  23.152   2.474  0.00  0.00    +0.040 C 
ATOM     17  C   UNL     1     -39.267  21.915   1.967  0.00  0.00    +0.168 C 
BRANCH  15  18
ATOM     18  O   UNL     1     -37.511  20.387   1.412  0.00  0.00    -0.468 OA
ATOM     19  C   UNL     1     -36.159  20.002   1.658  0.00  0.00    +0.253 C 
ENDBRANCH  15  18
BRANCH  17  20
ATOM     20  O   UNL     1     -40.211  21.033   1.534  0.00  0.00    -0.503 OA
ATOM     21  H   UNL     1     -40.527  21.080   0.652  0.00  0.00    +0.292 HD
ENDBRANCH  17  20
ENDBRANCH   5  12
BRANCH   6  22
ATOM     22  O   UNL     1     -36.213  23.728   5.520  0.00  0.00    -0.465 OA
ATOM     23  C   UNL     1     -35.267  22.679   5.598  0.00  0.00    +0.253 C 
ENDBRANCH   6  22
BRANCH   8  24
ATOM     24  O   UNL     1     -35.355  27.477   0.491  0.00  0.00    -0.465 OA
ATOM     25  C   UNL     1     -36.545  28.243   0.315  0.00  0.00    +0.253 C 
ENDBRANCH   8  24
BRANCH  10  26
ATOM     26  O   UNL     1     -33.492  29.449   1.029  0.00  0.00    -0.468 OA
ATOM     27  C   UNL     1     -33.655  30.823   1.371  0.00  0.00    +0.253 C 
ENDBRANCH  10  26
BRANCH   9  28
ATOM     28  O   UNL     1     -32.894  27.772   5.424  0.00  0.00    -0.505 OA
ATOM     29  H   UNL     1     -33.168  27.241   6.146  0.00  0.00    +0.292 HD
ENDBRANCH   9  28
TORSDOF 7
ENDMDL
MODEL 8
REMARK VINA RESULT:      -5.7      2.241      4.175
REMARK  Name = 5459184
REMARK  7 active torsions:
REMARK  status: ('A' for Active; 'I' for Inactive)
REMARK    1  A    between atoms: C_5  and  C_12
REMARK    2  A    between atoms: C_6  and  O_22
REMARK    3  A    between atoms: C_8  and  O_24
REMARK    4  A    between atoms: C_9  and  O_28
REMARK    5  A    between atoms: C_10  and  O_26
REMARK    6  A    between atoms: C_15  and  O_18
REMARK    7  A    between atoms: C_17  and  O_20
REMARK                            x       y       z     vdW  Elec       q    Type
REMARK                         _______ _______ _______ _____ _____    ______ ____
ROOT
ATOM      1  O   UNL     1     -35.432  25.252   2.434  0.00  0.00    -0.447 OA
ATOM      2  O   UNL     1     -34.447  25.558   6.375  0.00  0.00    -0.283 OA
ATOM      3  C   UNL     1     -34.172  26.373   4.180  0.00  0.00    +0.113 A 
ATOM      4  C   UNL     1     -34.552  26.217   2.848  0.00  0.00    +0.188 A 
ATOM      5  C   UNL     1     -35.963  24.389   3.380  0.00  0.00    +0.182 A 
ATOM      6  C   UNL     1     -35.687  24.440   4.697  0.00  0.00    +0.212 A 
ATOM      7  C   UNL     1     -34.740  25.467   5.191  0.00  0.00    +0.238 A 
ATOM      8  C   UNL     1     -34.029  27.065   1.870  0.00  0.00    +0.207 C 
ATOM      9  C   UNL     1     -33.269  27.375   4.544  0.00  0.00    +0.143 C 
ATOM     10  C   UNL     1     -33.128  28.067   2.230  0.00  0.00    +0.178 C 
ATOM     11  C   UNL     1     -32.750  28.222   3.564  0.00  0.00    +0.077 C 
ENDROOT
BRANCH   5  12
ATOM     12  C   UNL     1     -36.895  23.406   2.803  0.00  0.00    +0.041 C 
ATOM     13  C   UNL     1     -38.242  23.733   2.637  0.00  0.00    +0.043 C 
ATOM     14  C   UNL     1     -36.434  22.145   2.421  0.00  0.00    +0.006 C 
ATOM     15  C   UNL     1     -39.126  22.802   2.091  0.00  0.00    +0.172 C 
ATOM     16  C   UNL     1     -37.318  21.214   1.875  0.00  0.00    +0.040 C 
ATOM     17  C   UNL     1     -38.663  21.543   1.709  0.00  0.00    +0.168 C 
BRANCH  15  18
ATOM     18  O   UNL     1     -40.437  23.133   1.935  0.00  0.00    -0.468 OA
ATOM     19  C   UNL     1     -40.724  24.461   1.500  0.00  0.00    +0.253 C 
ENDBRANCH  15  18
BRANCH  17  20
ATOM     20  O   UNL     1     -39.515  20.625   1.172  0.00  0.00    -0.503 OA
ATOM     21  H   UNL     1     -39.246  19.731   1.084  0.00  0.00    +0.292 HD
ENDBRANCH  17  20
ENDBRANCH   5  12
BRANCH   6  22
ATOM     22  O   UNL     1     -36.258  23.588   5.618  0.00  0.00    -0.465 OA
ATOM     23  C   UNL     1     -35.381  22.522   5.927  0.00  0.00    +0.253 C 
ENDBRANCH   6  22
BRANCH   8  24
ATOM     24  O   UNL     1     -34.396  26.919   0.565  0.00  0.00    -0.465 OA
ATOM     25  C   UNL     1     -35.551  27.635   0.133  0.00  0.00    +0.253 C 
ENDBRANCH   8  24
BRANCH  10  26
ATOM     26  O   UNL     1     -32.609  28.903   1.287  0.00  0.00    -0.468 OA
ATOM     27  C   UNL     1     -32.506  30.282   1.631  0.00  0.00    +0.253 C 
ENDBRANCH  10  26
BRANCH   9  28
ATOM     28  O   UNL     1     -32.868  27.568   5.831  0.00  0.00    -0.505 OA
ATOM     29  H   UNL     1     -32.570  28.412   6.108  0.00  0.00    +0.292 HD
ENDBRANCH   9  28
TORSDOF 7
ENDMDL
MODEL 9
REMARK VINA RESULT:      -5.6      2.171      3.792
REMARK  Name = 5459184
REMARK  7 active torsions:
REMARK  status: ('A' for Active; 'I' for Inactive)
REMARK    1  A    between atoms: C_5  and  C_12
REMARK    2  A    between atoms: C_6  and  O_22
REMARK    3  A    between atoms: C_8  and  O_24
REMARK    4  A    between atoms: C_9  and  O_28
REMARK    5  A    between atoms: C_10  and  O_26
REMARK    6  A    between atoms: C_15  and  O_18
REMARK    7  A    between atoms: C_17  and  O_20
REMARK                            x       y       z     vdW  Elec       q    Type
REMARK                         _______ _______ _______ _____ _____    ______ ____
ROOT
ATOM      1  O   UNL     1     -35.074  25.318   2.390  0.00  0.00    -0.447 OA
ATOM      2  O   UNL     1     -34.258  25.963   6.329  0.00  0.00    -0.283 OA
ATOM      3  C   UNL     1     -33.885  26.584   4.085  0.00  0.00    +0.113 A 
ATOM      4  C   UNL     1     -34.208  26.314   2.756  0.00  0.00    +0.188 A 
ATOM      5  C   UNL     1     -35.651  24.542   3.383  0.00  0.00    +0.182 A 
ATOM      6  C   UNL     1     -35.432  24.706   4.701  0.00  0.00    +0.212 A 
ATOM      7  C   UNL     1     -34.500  25.771   5.145  0.00  0.00    +0.238 A 
ATOM      8  C   UNL     1     -33.639  27.072   1.733  0.00  0.00    +0.207 C 
ATOM      9  C   UNL     1     -32.993  27.613   4.400  0.00  0.00    +0.143 C 
ATOM     10  C   UNL     1     -32.748  28.100   2.043  0.00  0.00    +0.178 C 
ATOM     11  C   UNL     1     -32.427  28.369   3.373  0.00  0.00    +0.077 C 
ENDROOT
BRANCH   5  12
ATOM     12  C   UNL     1     -36.563  23.514   2.854  0.00  0.00    +0.041 C 
ATOM     13  C   UNL     1     -36.063  22.272   2.457  0.00  0.00    +0.043 C 
ATOM     14  C   UNL     1     -37.929  23.779   2.747  0.00  0.00    +0.006 C 
ATOM     15  C   UNL     1     -36.926  21.298   1.955  0.00  0.00    +0.172 C 
ATOM     16  C   UNL     1     -38.792  22.805   2.245  0.00  0.00    +0.040 C 
ATOM     17  C   UNL     1     -38.291  21.565   1.850  0.00  0.00    +0.168 C 
BRANCH  15  18
ATOM     18  O   UNL     1     -36.425  20.092   1.571  0.00  0.00    -0.468 OA
ATOM     19  C   UNL     1     -35.010  19.926   1.636  0.00  0.00    +0.253 C 
ENDBRANCH  15  18
BRANCH  17  20
ATOM     20  O   UNL     1     -39.145  20.622   1.363  0.00  0.00    -0.503 OA
ATOM     21  H   UNL     1     -39.780  20.855   0.713  0.00  0.00    +0.292 HD
ENDBRANCH  17  20
ENDBRANCH   5  12
BRANCH   6  22
ATOM     22  O   UNL     1     -36.046  23.938   5.667  0.00  0.00    -0.465 OA
ATOM     23  C   UNL     1     -35.251  22.817   6.000  0.00  0.00    +0.253 C 
ENDBRANCH   6  22
BRANCH   8  24
ATOM     24  O   UNL     1     -33.950  26.814   0.430  0.00  0.00    -0.465 OA
ATOM     25  C   UNL     1     -35.038  27.544  -0.132  0.00  0.00    +0.253 C 
ENDBRANCH   8  24
BRANCH  10  26
ATOM     26  O   UNL     1     -32.184  28.850   1.055  0.00  0.00    -0.468 OA
ATOM     27  C   UNL     1     -30.841  28.541   0.693  0.00  0.00    +0.253 C 
ENDBRANCH  10  26
BRANCH   9  28
ATOM     28  O   UNL     1     -32.646  27.916   5.681  0.00  0.00    -0.505 OA
ATOM     29  H   UNL     1     -33.261  27.789   6.376  0.00  0.00    +0.292 HD
ENDBRANCH   9  28
TORSDOF 7
ENDMDL
