MODEL 1
REMARK VINA RESULT:      -7.1      0.000      0.000
REMARK  Name = 57355524
REMARK  5 active torsions:
REMARK  status: ('A' for Active; 'I' for Inactive)
REMARK    1  A    between atoms: C_7  and  O_22
REMARK    2  A    between atoms: C_19  and  O_20
REMARK    3  A    between atoms: O_22  and  S_23
REMARK    4  A    between atoms: S_23  and  O_26
REMARK    5  A    between atoms: O_26  and  S_27
REMARK                            x       y       z     vdW  Elec       q    Type
REMARK                         _______ _______ _______ _____ _____    ______ ____
ROOT
ATOM      1  C   UNL     1     -46.260  27.409   6.391  0.00  0.00    +0.002 C 
ATOM      2  C   UNL     1     -46.249  27.270   4.828  0.00  0.00    +0.030 C 
ATOM      3  C   UNL     1     -46.121  28.913   6.846  0.00  0.00    +0.000 C 
ATOM      4  C   UNL     1     -46.376  25.781   4.474  0.00  0.00    +0.002 C 
ATOM      5  C   UNL     1     -47.674  25.152   5.014  0.00  0.00    +0.000 C 
ATOM      6  C   UNL     1     -44.818  29.483   6.200  0.00  0.00    +0.005 C 
ATOM      7  C   UNL     1     -45.003  27.930   4.205  0.00  0.00    +0.147 C 
ATOM      8  C   UNL     1     -47.457  26.663   7.041  0.00  0.00    +0.000 C 
ATOM      9  C   UNL     1     -47.628  25.217   6.544  0.00  0.00    +0.000 C 
ATOM     10  C   UNL     1     -44.834  29.381   4.667  0.00  0.00    +0.032 C 
ATOM     11  C   UNL     1     -46.367  25.372   3.005  0.00  0.00    +0.000 C 
ATOM     12  C   UNL     1     -47.554  23.739   4.424  0.00  0.00    +0.000 C 
ATOM     13  C   UNL     1     -45.958  29.004   8.390  0.00  0.00    +0.002 C 
ATOM     14  C   UNL     1     -46.978  23.959   3.014  0.00  0.00    +0.000 C 
ATOM     15  C   UNL     1     -44.495  30.915   6.661  0.00  0.00    +0.029 C 
ATOM     16  C   UNL     1     -47.374  29.731   6.438  0.00  0.00    +0.000 C 
ATOM     17  C   UNL     1     -48.980  25.797   4.494  0.00  0.00    +0.000 C 
ATOM     18  C   UNL     1     -45.607  30.413   8.889  0.00  0.00    +0.029 C 
ATOM     19  C   UNL     1     -44.389  31.005   8.185  0.00  0.00    +0.111 C 
ENDROOT
BRANCH  19  20
ATOM     20  O   UNL     1     -43.229  30.298   8.627  0.00  0.00    -0.384 OA
ATOM     21  H   UNL     1     -43.122  30.419   9.583  0.00  0.00    +0.210 HD
ENDBRANCH  19  20
BRANCH   7  22
ATOM     22  O   UNL     1     -43.814  27.221   4.553  0.00  0.00    -0.203 OA
BRANCH  22  23
ATOM     23  S   UNL     1     -42.432  27.573   3.763  0.00  0.00    +0.234 S 
ATOM     24  O   UNL     1     -42.757  27.820   2.370  0.00  0.00    -0.116 OA
ATOM     25  O   UNL     1     -41.701  28.561   4.533  0.00  0.00    -0.116 OA
BRANCH  23  26
ATOM     26  O   UNL     1     -41.607  26.164   3.828  0.00  0.00    -0.029 OA
BRANCH  26  27
ATOM     27  S   UNL     1     -40.466  25.639   2.785  0.00  0.00    +0.262 S 
ATOM     28  O   UNL     1     -39.635  24.555   3.674  0.00  0.00    -0.020 OA
ATOM     29  O   UNL     1     -39.572  26.745   2.493  0.00  0.00    -0.114 OA
ATOM     30  O   UNL     1     -41.124  24.918   1.712  0.00  0.00    -0.114 OA
ENDBRANCH  26  27
ENDBRANCH  23  26
ENDBRANCH  22  23
ENDBRANCH   7  22
TORSDOF 5
ENDMDL
MODEL 2
REMARK VINA RESULT:      -6.5      0.995      1.925
REMARK  Name = 57355524
REMARK  5 active torsions:
REMARK  status: ('A' for Active; 'I' for Inactive)
REMARK    1  A    between atoms: C_7  and  O_22
REMARK    2  A    between atoms: C_19  and  O_20
REMARK    3  A    between atoms: O_22  and  S_23
REMARK    4  A    between atoms: S_23  and  O_26
REMARK    5  A    between atoms: O_26  and  S_27
REMARK                            x       y       z     vdW  Elec       q    Type
REMARK                         _______ _______ _______ _____ _____    ______ ____
ROOT
ATOM      1  C   UNL     1     -46.238  27.477   6.566  0.00  0.00    +0.002 C 
ATOM      2  C   UNL     1     -46.253  27.308   5.006  0.00  0.00    +0.030 C 
ATOM      3  C   UNL     1     -46.037  28.983   6.990  0.00  0.00    +0.000 C 
ATOM      4  C   UNL     1     -46.441  25.818   4.683  0.00  0.00    +0.002 C 
ATOM      5  C   UNL     1     -47.754  25.248   5.252  0.00  0.00    +0.000 C 
ATOM      6  C   UNL     1     -44.722  29.491   6.316  0.00  0.00    +0.005 C 
ATOM      7  C   UNL     1     -44.992  27.909   4.354  0.00  0.00    +0.147 C 
ATOM      8  C   UNL     1     -47.454  26.788   7.245  0.00  0.00    +0.000 C 
ATOM      9  C   UNL     1     -47.685  25.341   6.780  0.00  0.00    +0.000 C 
ATOM     10  C   UNL     1     -44.762  29.360   4.785  0.00  0.00    +0.032 C 
ATOM     11  C   UNL     1     -46.467  25.381   3.223  0.00  0.00    +0.000 C 
ATOM     12  C   UNL     1     -47.695  23.821   4.688  0.00  0.00    +0.000 C 
ATOM     13  C   UNL     1     -45.850  29.097   8.530  0.00  0.00    +0.002 C 
ATOM     14  C   UNL     1     -47.131  23.993   3.266  0.00  0.00    +0.000 C 
ATOM     15  C   UNL     1     -44.340  30.917   6.745  0.00  0.00    +0.029 C 
ATOM     16  C   UNL     1     -47.264  29.839   6.582  0.00  0.00    +0.000 C 
ATOM     17  C   UNL     1     -49.042  25.932   4.736  0.00  0.00    +0.000 C 
ATOM     18  C   UNL     1     -45.440  30.501   8.996  0.00  0.00    +0.029 C 
ATOM     19  C   UNL     1     -44.209  31.032   8.266  0.00  0.00    +0.111 C 
ENDROOT
BRANCH  19  20
ATOM     20  O   UNL     1     -43.071  30.291   8.706  0.00  0.00    -0.384 OA
ATOM     21  H   UNL     1     -42.808  30.597   9.587  0.00  0.00    +0.210 HD
ENDBRANCH  19  20
BRANCH   7  22
ATOM     22  O   UNL     1     -43.826  27.161   4.701  0.00  0.00    -0.203 OA
BRANCH  22  23
ATOM     23  S   UNL     1     -42.437  27.461   3.901  0.00  0.00    +0.234 S 
ATOM     24  O   UNL     1     -41.861  28.680   4.438  0.00  0.00    -0.116 OA
ATOM     25  O   UNL     1     -41.659  26.238   3.856  0.00  0.00    -0.116 OA
BRANCH  23  26
ATOM     26  O   UNL     1     -42.954  27.792   2.387  0.00  0.00    -0.029 OA
BRANCH  26  27
ATOM     27  S   UNL     1     -42.159  28.632   1.234  0.00  0.00    +0.262 S 
ATOM     28  O   UNL     1     -43.099  28.420  -0.080  0.00  0.00    -0.020 OA
ATOM     29  O   UNL     1     -40.893  27.971   0.980  0.00  0.00    -0.114 OA
ATOM     30  O   UNL     1     -42.200  30.040   1.583  0.00  0.00    -0.114 OA
ENDBRANCH  26  27
ENDBRANCH  23  26
ENDBRANCH  22  23
ENDBRANCH   7  22
TORSDOF 5
ENDMDL
MODEL 3
REMARK VINA RESULT:      -6.5     10.036     11.729
REMARK  Name = 57355524
REMARK  5 active torsions:
REMARK  status: ('A' for Active; 'I' for Inactive)
REMARK    1  A    between atoms: C_7  and  O_22
REMARK    2  A    between atoms: C_19  and  O_20
REMARK    3  A    between atoms: O_22  and  S_23
REMARK    4  A    between atoms: S_23  and  O_26
REMARK    5  A    between atoms: O_26  and  S_27
REMARK                            x       y       z     vdW  Elec       q    Type
REMARK                         _______ _______ _______ _____ _____    ______ ____
ROOT
ATOM      1  C   UNL     1     -35.863  22.554   1.697  0.00  0.00    +0.002 C 
ATOM      2  C   UNL     1     -34.840  22.820   0.538  0.00  0.00    +0.030 C 
ATOM      3  C   UNL     1     -37.092  23.540   1.631  0.00  0.00    +0.000 C 
ATOM      4  C   UNL     1     -33.675  21.830   0.683  0.00  0.00    +0.002 C 
ATOM      5  C   UNL     1     -34.132  20.361   0.607  0.00  0.00    +0.000 C 
ATOM      6  C   UNL     1     -36.529  24.997   1.648  0.00  0.00    +0.005 C 
ATOM      7  C   UNL     1     -34.376  24.291   0.512  0.00  0.00    +0.147 C 
ATOM      8  C   UNL     1     -36.262  21.056   1.798  0.00  0.00    +0.000 C 
ATOM      9  C   UNL     1     -35.062  20.094   1.795  0.00  0.00    +0.000 C 
ATOM     10  C   UNL     1     -35.560  25.262   0.485  0.00  0.00    +0.032 C 
ATOM     11  C   UNL     1     -32.524  21.896  -0.315  0.00  0.00    +0.000 C 
ATOM     12  C   UNL     1     -32.772  19.651   0.678  0.00  0.00    +0.000 C 
ATOM     13  C   UNL     1     -37.996  23.371   2.885  0.00  0.00    +0.002 C 
ATOM     14  C   UNL     1     -31.837  20.526  -0.175  0.00  0.00    +0.000 C 
ATOM     15  C   UNL     1     -37.633  26.067   1.710  0.00  0.00    +0.029 C 
ATOM     16  C   UNL     1     -37.951  23.267   0.369  0.00  0.00    +0.000 C 
ATOM     17  C   UNL     1     -34.831  19.961  -0.715  0.00  0.00    +0.000 C 
ATOM     18  C   UNL     1     -39.094  24.438   2.999  0.00  0.00    +0.029 C 
ATOM     19  C   UNL     1     -38.549  25.861   2.919  0.00  0.00    +0.111 C 
ENDROOT
BRANCH  19  20
ATOM     20  O   UNL     1     -37.826  26.133   4.119  0.00  0.00    -0.384 OA
ATOM     21  H   UNL     1     -36.936  26.445   3.896  0.00  0.00    +0.210 HD
ENDBRANCH  19  20
BRANCH   7  22
ATOM     22  O   UNL     1     -33.583  24.602   1.657  0.00  0.00    -0.203 OA
BRANCH  22  23
ATOM     23  S   UNL     1     -32.690  25.966   1.644  0.00  0.00    +0.234 S 
ATOM     24  O   UNL     1     -31.421  25.683   2.288  0.00  0.00    -0.116 OA
ATOM     25  O   UNL     1     -32.726  26.527   0.307  0.00  0.00    -0.116 OA
BRANCH  23  26
ATOM     26  O   UNL     1     -33.529  26.958   2.635  0.00  0.00    -0.029 OA
BRANCH  26  27
ATOM     27  S   UNL     1     -33.872  26.717   4.213  0.00  0.00    +0.262 S 
ATOM     28  O   UNL     1     -32.960  27.845   4.957  0.00  0.00    -0.020 OA
ATOM     29  O   UNL     1     -33.360  25.415   4.597  0.00  0.00    -0.114 OA
ATOM     30  O   UNL     1     -35.264  27.058   4.436  0.00  0.00    -0.114 OA
ENDBRANCH  26  27
ENDBRANCH  23  26
ENDBRANCH  22  23
ENDBRANCH   7  22
TORSDOF 5
ENDMDL
MODEL 4
REMARK VINA RESULT:      -6.4      9.310     11.763
REMARK  Name = 57355524
REMARK  5 active torsions:
REMARK  status: ('A' for Active; 'I' for Inactive)
REMARK    1  A    between atoms: C_7  and  O_22
REMARK    2  A    between atoms: C_19  and  O_20
REMARK    3  A    between atoms: O_22  and  S_23
REMARK    4  A    between atoms: S_23  and  O_26
REMARK    5  A    between atoms: O_26  and  S_27
REMARK                            x       y       z     vdW  Elec       q    Type
REMARK                         _______ _______ _______ _____ _____    ______ ____
ROOT
ATOM      1  C   UNL     1     -36.515  22.517   0.611  0.00  0.00    +0.002 C 
ATOM      2  C   UNL     1     -37.272  22.690   1.974  0.00  0.00    +0.030 C 
ATOM      3  C   UNL     1     -35.852  21.090   0.487  0.00  0.00    +0.000 C 
ATOM      4  C   UNL     1     -37.874  24.102   2.017  0.00  0.00    +0.002 C 
ATOM      5  C   UNL     1     -38.866  24.360   0.867  0.00  0.00    +0.000 C 
ATOM      6  C   UNL     1     -34.919  20.894   1.724  0.00  0.00    +0.005 C 
ATOM      7  C   UNL     1     -36.357  22.391   3.179  0.00  0.00    +0.147 C 
ATOM      8  C   UNL     1     -37.395  22.911  -0.607  0.00  0.00    +0.000 C 
ATOM      9  C   UNL     1     -38.091  24.274  -0.452  0.00  0.00    +0.000 C 
ATOM     10  C   UNL     1     -35.678  21.025   3.054  0.00  0.00    +0.032 C 
ATOM     11  C   UNL     1     -38.648  24.534   3.258  0.00  0.00    +0.000 C 
ATOM     12  C   UNL     1     -39.351  25.769   1.240  0.00  0.00    +0.000 C 
ATOM     13  C   UNL     1     -34.966  21.009  -0.788  0.00  0.00    +0.002 C 
ATOM     14  C   UNL     1     -39.475  25.738   2.774  0.00  0.00    +0.000 C 
ATOM     15  C   UNL     1     -34.113  19.586   1.667  0.00  0.00    +0.029 C 
ATOM     16  C   UNL     1     -36.937  19.985   0.400  0.00  0.00    +0.000 C 
ATOM     17  C   UNL     1     -40.086  23.410   0.830  0.00  0.00    +0.000 C 
ATOM     18  C   UNL     1     -34.122  19.729  -0.869  0.00  0.00    +0.029 C 
ATOM     19  C   UNL     1     -33.283  19.491   0.384  0.00  0.00    +0.111 C 
ENDROOT
BRANCH  19  20
ATOM     20  O   UNL     1     -32.240  20.464   0.416  0.00  0.00    -0.384 OA
ATOM     21  H   UNL     1     -32.145  20.807   1.318  0.00  0.00    +0.210 HD
ENDBRANCH  19  20
BRANCH   7  22
ATOM     22  O   UNL     1     -35.333  23.377   3.305  0.00  0.00    -0.203 OA
BRANCH  22  23
ATOM     23  S   UNL     1     -34.978  23.951   4.790  0.00  0.00    +0.234 S 
ATOM     24  O   UNL     1     -36.108  24.734   5.255  0.00  0.00    -0.116 OA
ATOM     25  O   UNL     1     -34.461  22.860   5.593  0.00  0.00    -0.116 OA
BRANCH  23  26
ATOM     26  O   UNL     1     -33.753  24.991   4.494  0.00  0.00    -0.029 OA
BRANCH  26  27
ATOM     27  S   UNL     1     -33.685  26.574   4.890  0.00  0.00    +0.262 S 
ATOM     28  O   UNL     1     -32.240  27.033   4.293  0.00  0.00    -0.020 OA
ATOM     29  O   UNL     1     -33.616  26.679   6.336  0.00  0.00    -0.114 OA
ATOM     30  O   UNL     1     -34.713  27.276   4.147  0.00  0.00    -0.114 OA
ENDBRANCH  26  27
ENDBRANCH  23  26
ENDBRANCH  22  23
ENDBRANCH   7  22
TORSDOF 5
ENDMDL
MODEL 5
REMARK VINA RESULT:      -6.4     10.756     12.762
REMARK  Name = 57355524
REMARK  5 active torsions:
REMARK  status: ('A' for Active; 'I' for Inactive)
REMARK    1  A    between atoms: C_7  and  O_22
REMARK    2  A    between atoms: C_19  and  O_20
REMARK    3  A    between atoms: O_22  and  S_23
REMARK    4  A    between atoms: S_23  and  O_26
REMARK    5  A    between atoms: O_26  and  S_27
REMARK                            x       y       z     vdW  Elec       q    Type
REMARK                         _______ _______ _______ _____ _____    ______ ____
ROOT
ATOM      1  C   UNL     1     -34.249  25.042   2.291  0.00  0.00    +0.002 C 
ATOM      2  C   UNL     1     -34.392  26.578   2.574  0.00  0.00    +0.030 C 
ATOM      3  C   UNL     1     -35.240  24.189   3.174  0.00  0.00    +0.000 C 
ATOM      4  C   UNL     1     -33.389  27.329   1.686  0.00  0.00    +0.002 C 
ATOM      5  C   UNL     1     -33.625  27.082   0.184  0.00  0.00    +0.000 C 
ATOM      6  C   UNL     1     -34.972  24.554   4.669  0.00  0.00    +0.005 C 
ATOM      7  C   UNL     1     -34.226  26.902   4.072  0.00  0.00    +0.147 C 
ATOM      8  C   UNL     1     -34.315  24.713   0.774  0.00  0.00    +0.000 C 
ATOM      9  C   UNL     1     -33.395  25.592  -0.091  0.00  0.00    +0.000 C 
ATOM     10  C   UNL     1     -35.155  26.055   4.946  0.00  0.00    +0.032 C 
ATOM     11  C   UNL     1     -33.311  28.849   1.788  0.00  0.00    +0.000 C 
ATOM     12  C   UNL     1     -32.565  28.020  -0.414  0.00  0.00    +0.000 C 
ATOM     13  C   UNL     1     -34.955  22.670   3.003  0.00  0.00    +0.002 C 
ATOM     14  C   UNL     1     -32.608  29.269   0.485  0.00  0.00    +0.000 C 
ATOM     15  C   UNL     1     -35.792  23.701   5.652  0.00  0.00    +0.029 C 
ATOM     16  C   UNL     1     -36.712  24.459   2.768  0.00  0.00    +0.000 C 
ATOM     17  C   UNL     1     -35.017  27.510  -0.339  0.00  0.00    +0.000 C 
ATOM     18  C   UNL     1     -35.734  21.784   3.986  0.00  0.00    +0.029 C 
ATOM     19  C   UNL     1     -35.545  22.205   5.441  0.00  0.00    +0.111 C 
ENDROOT
BRANCH  19  20
ATOM     20  O   UNL     1     -34.211  21.881   5.832  0.00  0.00    -0.384 OA
ATOM     21  H   UNL     1     -33.718  21.558   5.062  0.00  0.00    +0.210 HD
ENDBRANCH  19  20
BRANCH   7  22
ATOM     22  O   UNL     1     -32.886  26.666   4.505  0.00  0.00    -0.203 OA
BRANCH  22  23
ATOM     23  S   UNL     1     -32.198  27.726   5.536  0.00  0.00    +0.234 S 
ATOM     24  O   UNL     1     -32.777  29.034   5.293  0.00  0.00    -0.116 OA
ATOM     25  O   UNL     1     -32.217  27.150   6.867  0.00  0.00    -0.116 OA
BRANCH  23  26
ATOM     26  O   UNL     1     -30.647  27.776   5.025  0.00  0.00    -0.029 OA
BRANCH  26  27
ATOM     27  S   UNL     1     -29.362  28.378   5.830  0.00  0.00    +0.262 S 
ATOM     28  O   UNL     1     -28.885  27.116   6.744  0.00  0.00    -0.020 OA
ATOM     29  O   UNL     1     -29.832  29.418   6.727  0.00  0.00    -0.114 OA
ATOM     30  O   UNL     1     -28.308  28.652   4.872  0.00  0.00    -0.114 OA
ENDBRANCH  26  27
ENDBRANCH  23  26
ENDBRANCH  22  23
ENDBRANCH   7  22
TORSDOF 5
ENDMDL
MODEL 6
REMARK VINA RESULT:      -6.2      8.740     11.190
REMARK  Name = 57355524
REMARK  5 active torsions:
REMARK  status: ('A' for Active; 'I' for Inactive)
REMARK    1  A    between atoms: C_7  and  O_22
REMARK    2  A    between atoms: C_19  and  O_20
REMARK    3  A    between atoms: O_22  and  S_23
REMARK    4  A    between atoms: S_23  and  O_26
REMARK    5  A    between atoms: O_26  and  S_27
REMARK                            x       y       z     vdW  Elec       q    Type
REMARK                         _______ _______ _______ _____ _____    ______ ____
ROOT
ATOM      1  C   UNL     1     -36.296  22.081   2.651  0.00  0.00    +0.002 C 
ATOM      2  C   UNL     1     -36.376  23.634   2.447  0.00  0.00    +0.030 C 
ATOM      3  C   UNL     1     -36.162  21.316   1.277  0.00  0.00    +0.000 C 
ATOM      4  C   UNL     1     -36.516  24.296   3.826  0.00  0.00    +0.002 C 
ATOM      5  C   UNL     1     -35.330  23.983   4.758  0.00  0.00    +0.000 C 
ATOM      6  C   UNL     1     -37.366  21.745   0.379  0.00  0.00    +0.005 C 
ATOM      7  C   UNL     1     -37.508  24.026   1.476  0.00  0.00    +0.147 C 
ATOM      8  C   UNL     1     -35.225  21.678   3.703  0.00  0.00    +0.000 C 
ATOM      9  C   UNL     1     -35.319  22.473   5.017  0.00  0.00    +0.000 C 
ATOM     10  C   UNL     1     -37.412  23.264   0.151  0.00  0.00    +0.032 C 
ATOM     11  C   UNL     1     -36.638  25.814   3.904  0.00  0.00    +0.000 C 
ATOM     12  C   UNL     1     -35.707  24.844   5.973  0.00  0.00    +0.000 C 
ATOM     13  C   UNL     1     -36.261  19.780   1.495  0.00  0.00    +0.002 C 
ATOM     14  C   UNL     1     -36.278  26.138   5.364  0.00  0.00    +0.000 C 
ATOM     15  C   UNL     1     -37.425  20.977  -0.952  0.00  0.00    +0.029 C 
ATOM     16  C   UNL     1     -34.799  21.627   0.604  0.00  0.00    +0.000 C 
ATOM     17  C   UNL     1     -33.948  24.442   4.235  0.00  0.00    +0.000 C 
ATOM     18  C   UNL     1     -36.351  18.979   0.189  0.00  0.00    +0.029 C 
ATOM     19  C   UNL     1     -37.470  19.464  -0.729  0.00  0.00    +0.111 C 
ENDROOT
BRANCH  19  20
ATOM     20  O   UNL     1     -38.720  19.104  -0.141  0.00  0.00    -0.384 OA
ATOM     21  H   UNL     1     -38.637  19.113   0.825  0.00  0.00    +0.210 HD
ENDBRANCH  19  20
BRANCH   7  22
ATOM     22  O   UNL     1     -38.790  23.756   2.043  0.00  0.00    -0.203 OA
BRANCH  22  23
ATOM     23  S   UNL     1     -39.905  24.945   2.060  0.00  0.00    +0.234 S 
ATOM     24  O   UNL     1     -40.219  25.251   3.443  0.00  0.00    -0.116 OA
ATOM     25  O   UNL     1     -39.472  25.994   1.155  0.00  0.00    -0.116 OA
BRANCH  23  26
ATOM     26  O   UNL     1     -41.218  24.222   1.410  0.00  0.00    -0.029 OA
BRANCH  26  27
ATOM     27  S   UNL     1     -41.270  23.293   0.068  0.00  0.00    +0.262 S 
ATOM     28  O   UNL     1     -42.863  23.239  -0.271  0.00  0.00    -0.020 OA
ATOM     29  O   UNL     1     -40.851  21.950   0.426  0.00  0.00    -0.114 OA
ATOM     30  O   UNL     1     -40.613  24.008  -1.010  0.00  0.00    -0.114 OA
ENDBRANCH  26  27
ENDBRANCH  23  26
ENDBRANCH  22  23
ENDBRANCH   7  22
TORSDOF 5
ENDMDL
MODEL 7
REMARK VINA RESULT:      -6.1     10.549     13.080
REMARK  Name = 57355524
REMARK  5 active torsions:
REMARK  status: ('A' for Active; 'I' for Inactive)
REMARK    1  A    between atoms: C_7  and  O_22
REMARK    2  A    between atoms: C_19  and  O_20
REMARK    3  A    between atoms: O_22  and  S_23
REMARK    4  A    between atoms: S_23  and  O_26
REMARK    5  A    between atoms: O_26  and  S_27
REMARK                            x       y       z     vdW  Elec       q    Type
REMARK                         _______ _______ _______ _____ _____    ______ ____
ROOT
ATOM      1  C   UNL     1     -33.849  23.257   0.456  0.00  0.00    +0.002 C 
ATOM      2  C   UNL     1     -35.095  24.087   0.924  0.00  0.00    +0.030 C 
ATOM      3  C   UNL     1     -34.242  21.777   0.073  0.00  0.00    +0.000 C 
ATOM      4  C   UNL     1     -34.624  25.503   1.287  0.00  0.00    +0.002 C 
ATOM      5  C   UNL     1     -33.967  26.232   0.099  0.00  0.00    +0.000 C 
ATOM      6  C   UNL     1     -34.956  21.144   1.310  0.00  0.00    +0.005 C 
ATOM      7  C   UNL     1     -35.844  23.391   2.079  0.00  0.00    +0.147 C 
ATOM      8  C   UNL     1     -33.028  23.993  -0.638  0.00  0.00    +0.000 C 
ATOM      9  C   UNL     1     -32.704  25.456  -0.290  0.00  0.00    +0.000 C 
ATOM     10  C   UNL     1     -36.199  21.941   1.737  0.00  0.00    +0.032 C 
ATOM     11  C   UNL     1     -35.648  26.510   1.799  0.00  0.00    +0.000 C 
ATOM     12  C   UNL     1     -33.710  27.606   0.734  0.00  0.00    +0.000 C 
ATOM     13  C   UNL     1     -32.969  20.932  -0.217  0.00  0.00    +0.002 C 
ATOM     14  C   UNL     1     -34.960  27.871   1.593  0.00  0.00    +0.000 C 
ATOM     15  C   UNL     1     -35.287  19.655   1.115  0.00  0.00    +0.029 C 
ATOM     16  C   UNL     1     -35.142  21.755  -1.189  0.00  0.00    +0.000 C 
ATOM     17  C   UNL     1     -34.877  26.419  -1.138  0.00  0.00    +0.000 C 
ATOM     18  C   UNL     1     -33.253  19.433  -0.390  0.00  0.00    +0.029 C 
ATOM     19  C   UNL     1     -34.036  18.840   0.778  0.00  0.00    +0.111 C 
ENDROOT
BRANCH  19  20
ATOM     20  O   UNL     1     -33.176  18.791   1.916  0.00  0.00    -0.384 OA
ATOM     21  H   UNL     1     -32.303  19.137   1.676  0.00  0.00    +0.210 HD
ENDBRANCH  19  20
BRANCH   7  22
ATOM     22  O   UNL     1     -35.057  23.378   3.270  0.00  0.00    -0.203 OA
BRANCH  22  23
ATOM     23  S   UNL     1     -35.798  23.631   4.700  0.00  0.00    +0.234 S 
ATOM     24  O   UNL     1     -36.923  24.519   4.476  0.00  0.00    -0.116 OA
ATOM     25  O   UNL     1     -35.993  22.349   5.351  0.00  0.00    -0.116 OA
BRANCH  23  26
ATOM     26  O   UNL     1     -34.678  24.467   5.547  0.00  0.00    -0.029 OA
BRANCH  26  27
ATOM     27  S   UNL     1     -34.098  25.956   5.213  0.00  0.00    +0.262 S 
ATOM     28  O   UNL     1     -33.291  26.342   6.575  0.00  0.00    -0.020 OA
ATOM     29  O   UNL     1     -35.221  26.867   5.095  0.00  0.00    -0.114 OA
ATOM     30  O   UNL     1     -33.126  25.839   4.142  0.00  0.00    -0.114 OA
ENDBRANCH  26  27
ENDBRANCH  23  26
ENDBRANCH  22  23
ENDBRANCH   7  22
TORSDOF 5
ENDMDL
MODEL 8
REMARK VINA RESULT:      -6.1      8.721     10.544
REMARK  Name = 57355524
REMARK  5 active torsions:
REMARK  status: ('A' for Active; 'I' for Inactive)
REMARK    1  A    between atoms: C_7  and  O_22
REMARK    2  A    between atoms: C_19  and  O_20
REMARK    3  A    between atoms: O_22  and  S_23
REMARK    4  A    between atoms: S_23  and  O_26
REMARK    5  A    between atoms: O_26  and  S_27
REMARK                            x       y       z     vdW  Elec       q    Type
REMARK                         _______ _______ _______ _____ _____    ______ ____
ROOT
ATOM      1  C   UNL     1     -37.855  22.367   1.339  0.00  0.00    +0.002 C 
ATOM      2  C   UNL     1     -36.295  22.512   1.263  0.00  0.00    +0.030 C 
ATOM      3  C   UNL     1     -38.576  23.770   1.317  0.00  0.00    +0.000 C 
ATOM      4  C   UNL     1     -35.676  21.108   1.302  0.00  0.00    +0.002 C 
ATOM      5  C   UNL     1     -36.144  20.221   0.132  0.00  0.00    +0.000 C 
ATOM      6  C   UNL     1     -37.993  24.618   2.492  0.00  0.00    +0.005 C 
ATOM      7  C   UNL     1     -35.753  23.437   2.371  0.00  0.00    +0.147 C 
ATOM      8  C   UNL     1     -38.405  21.360   0.291  0.00  0.00    +0.000 C 
ATOM      9  C   UNL     1     -37.656  20.016   0.271  0.00  0.00    +0.000 C 
ATOM     10  C   UNL     1     -36.469  24.791   2.387  0.00  0.00    +0.032 C 
ATOM     11  C   UNL     1     -34.158  20.972   1.265  0.00  0.00    +0.000 C 
ATOM     12  C   UNL     1     -35.297  18.966   0.390  0.00  0.00    +0.000 C 
ATOM     13  C   UNL     1     -40.102  23.605   1.569  0.00  0.00    +0.002 C 
ATOM     14  C   UNL     1     -33.929  19.512   0.838  0.00  0.00    +0.000 C 
ATOM     15  C   UNL     1     -38.698  25.974   2.661  0.00  0.00    +0.029 C 
ATOM     16  C   UNL     1     -38.381  24.469  -0.054  0.00  0.00    +0.000 C 
ATOM     17  C   UNL     1     -35.808  20.764  -1.277  0.00  0.00    +0.000 C 
ATOM     18  C   UNL     1     -40.839  24.936   1.772  0.00  0.00    +0.029 C 
ATOM     19  C   UNL     1     -40.207  25.804   2.857  0.00  0.00    +0.111 C 
ENDROOT
BRANCH  19  20
ATOM     20  O   UNL     1     -40.459  25.195   4.123  0.00  0.00    -0.384 OA
ATOM     21  H   UNL     1     -41.154  25.688   4.585  0.00  0.00    +0.210 HD
ENDBRANCH  19  20
BRANCH   7  22
ATOM     22  O   UNL     1     -35.912  22.845   3.661  0.00  0.00    -0.203 OA
BRANCH  22  23
ATOM     23  S   UNL     1     -35.261  23.596   4.953  0.00  0.00    +0.234 S 
ATOM     24  O   UNL     1     -36.316  24.328   5.630  0.00  0.00    -0.116 OA
ATOM     25  O   UNL     1     -34.447  22.640   5.679  0.00  0.00    -0.116 OA
BRANCH  23  26
ATOM     26  O   UNL     1     -34.266  24.697   4.270  0.00  0.00    -0.029 OA
BRANCH  26  27
ATOM     27  S   UNL     1     -33.908  26.188   4.833  0.00  0.00    +0.262 S 
ATOM     28  O   UNL     1     -32.570  26.580   3.989  0.00  0.00    -0.020 OA
ATOM     29  O   UNL     1     -33.528  26.069   6.228  0.00  0.00    -0.114 OA
ATOM     30  O   UNL     1     -34.966  27.095   4.430  0.00  0.00    -0.114 OA
ENDBRANCH  26  27
ENDBRANCH  23  26
ENDBRANCH  22  23
ENDBRANCH   7  22
TORSDOF 5
ENDMDL
MODEL 9
REMARK VINA RESULT:      -6.1      8.381     10.973
REMARK  Name = 57355524
REMARK  5 active torsions:
REMARK  status: ('A' for Active; 'I' for Inactive)
REMARK    1  A    between atoms: C_7  and  O_22
REMARK    2  A    between atoms: C_19  and  O_20
REMARK    3  A    between atoms: O_22  and  S_23
REMARK    4  A    between atoms: S_23  and  O_26
REMARK    5  A    between atoms: O_26  and  S_27
REMARK                            x       y       z     vdW  Elec       q    Type
REMARK                         _______ _______ _______ _____ _____    ______ ____
ROOT
ATOM      1  C   UNL     1     -37.505  24.851   1.999  0.00  0.00    +0.002 C 
ATOM      2  C   UNL     1     -37.146  23.872   3.171  0.00  0.00    +0.030 C 
ATOM      3  C   UNL     1     -38.963  24.598   1.452  0.00  0.00    +0.000 C 
ATOM      4  C   UNL     1     -35.713  24.177   3.634  0.00  0.00    +0.002 C 
ATOM      5  C   UNL     1     -35.547  25.625   4.133  0.00  0.00    +0.000 C 
ATOM      6  C   UNL     1     -39.056  23.096   1.032  0.00  0.00    +0.005 C 
ATOM      7  C   UNL     1     -37.343  22.398   2.766  0.00  0.00    +0.147 C 
ATOM      8  C   UNL     1     -37.216  26.334   2.359  0.00  0.00    +0.000 C 
ATOM      9  C   UNL     1     -35.817  26.565   2.954  0.00  0.00    +0.000 C 
ATOM     10  C   UNL     1     -38.742  22.144   2.197  0.00  0.00    +0.032 C 
ATOM     11  C   UNL     1     -35.110  23.342   4.757  0.00  0.00    +0.000 C 
ATOM     12  C   UNL     1     -34.086  25.582   4.604  0.00  0.00    +0.000 C 
ATOM     13  C   UNL     1     -39.228  25.457   0.183  0.00  0.00    +0.002 C 
ATOM     14  C   UNL     1     -33.935  24.198   5.262  0.00  0.00    +0.000 C 
ATOM     15  C   UNL     1     -40.395  22.740   0.365  0.00  0.00    +0.029 C 
ATOM     16  C   UNL     1     -40.025  24.966   2.521  0.00  0.00    +0.000 C 
ATOM     17  C   UNL     1     -36.443  26.010   5.335  0.00  0.00    +0.000 C 
ATOM     18  C   UNL     1     -40.543  25.112  -0.530  0.00  0.00    +0.029 C 
ATOM     19  C   UNL     1     -40.671  23.626  -0.852  0.00  0.00    +0.111 C 
ENDROOT
BRANCH  19  20
ATOM     20  O   UNL     1     -39.746  23.311  -1.892  0.00  0.00    -0.384 OA
ATOM     21  H   UNL     1     -40.109  23.597  -2.745  0.00  0.00    +0.210 HD
ENDBRANCH  19  20
BRANCH   7  22
ATOM     22  O   UNL     1     -36.393  22.003   1.776  0.00  0.00    -0.203 OA
BRANCH  22  23
ATOM     23  S   UNL     1     -35.647  20.562   1.937  0.00  0.00    +0.234 S 
ATOM     24  O   UNL     1     -35.322  20.375   3.338  0.00  0.00    -0.116 OA
ATOM     25  O   UNL     1     -36.418  19.563   1.222  0.00  0.00    -0.116 OA
BRANCH  23  26
ATOM     26  O   UNL     1     -34.241  20.789   1.136  0.00  0.00    -0.029 OA
BRANCH  26  27
ATOM     27  S   UNL     1     -33.175  19.644   0.669  0.00  0.00    +0.262 S 
ATOM     28  O   UNL     1     -33.824  19.092  -0.720  0.00  0.00    -0.020 OA
ATOM     29  O   UNL     1     -33.217  18.561   1.634  0.00  0.00    -0.114 OA
ATOM     30  O   UNL     1     -31.920  20.294   0.342  0.00  0.00    -0.114 OA
ENDBRANCH  26  27
ENDBRANCH  23  26
ENDBRANCH  22  23
ENDBRANCH   7  22
TORSDOF 5
ENDMDL
