MODEL 1
REMARK VINA RESULT:      -7.1      0.000      0.000
REMARK  Name = 21123832
REMARK  8 active torsions:
REMARK  status: ('A' for Active; 'I' for Inactive)
REMARK    1  A    between atoms: C_3  and  O_29
REMARK    2  A    between atoms: C_7  and  C_27
REMARK    3  A    between atoms: C_9  and  O_21
REMARK    4  A    between atoms: C_11  and  O_23
REMARK    5  A    between atoms: C_17  and  O_25
REMARK    6  A    between atoms: O_29  and  C_33
REMARK    7  A    between atoms: C_31  and  N_37
REMARK    8  A    between atoms: C_34  and  O_41
REMARK                            x       y       z     vdW  Elec       q    Type
REMARK                         _______ _______ _______ _____ _____    ______ ____
ROOT
ATOM      1  O   UNL     1     -42.892  29.721   5.624  0.00  0.00    -0.286 OA
ATOM      2  O   UNL     1     -47.339  26.810   6.193  0.00  0.00    -0.286 OA
ATOM      3  C   UNL     1     -42.676  26.388   1.696  0.00  0.00    +0.147 C 
ATOM      4  C   UNL     1     -43.347  25.734   0.477  0.00  0.00    +0.056 C 
ATOM      5  C   UNL     1     -43.645  26.702   2.808  0.00  0.00    +0.042 A 
ATOM      6  C   UNL     1     -44.812  25.936   2.960  0.00  0.00    +0.034 A 
ATOM      7  C   UNL     1     -44.449  24.766   0.842  0.00  0.00    -0.041 C 
ATOM      8  C   UNL     1     -45.115  24.864   2.004  0.00  0.00    -0.006 C 
ATOM      9  C   UNL     1     -43.356  27.718   3.731  0.00  0.00    +0.135 A 
ATOM     10  C   UNL     1     -44.230  27.976   4.794  0.00  0.00    +0.078 A 
ATOM     11  C   UNL     1     -45.679  26.193   4.030  0.00  0.00    +0.137 A 
ATOM     12  C   UNL     1     -45.389  27.214   4.943  0.00  0.00    +0.079 A 
ATOM     13  C   UNL     1     -43.911  29.052   5.754  0.00  0.00    +0.202 C 
ATOM     14  C   UNL     1     -46.318  27.476   6.063  0.00  0.00    +0.199 C 
ATOM     15  C   UNL     1     -44.838  29.312   6.875  0.00  0.00    +0.076 C 
ATOM     16  C   UNL     1     -45.999  28.552   7.024  0.00  0.00    +0.045 C 
ATOM     17  C   UNL     1     -44.548  30.330   7.791  0.00  0.00    +0.137 C 
ATOM     18  C   UNL     1     -46.870  28.808   8.088  0.00  0.00    +0.003 C 
ATOM     19  C   UNL     1     -45.417  30.582   8.852  0.00  0.00    +0.037 C 
ATOM     20  C   UNL     1     -46.577  29.823   9.000  0.00  0.00    +0.003 C 
ENDROOT
BRANCH   9  21
ATOM     21  O   UNL     1     -42.199  28.428   3.568  0.00  0.00    -0.506 OA
ATOM     22  H   UNL     1     -42.207  29.232   3.087  0.00  0.00    +0.292 HD
ENDBRANCH   9  21
BRANCH  11  23
ATOM     23  O   UNL     1     -46.810  25.436   4.158  0.00  0.00    -0.505 OA
ATOM     24  H   UNL     1     -47.455  25.662   4.800  0.00  0.00    +0.292 HD
ENDBRANCH  11  23
BRANCH  17  25
ATOM     25  O   UNL     1     -43.432  31.110   7.708  0.00  0.00    -0.505 OA
ATOM     26  H   UNL     1     -42.899  31.248   8.466  0.00  0.00    +0.292 HD
ENDBRANCH  17  25
BRANCH   7  27
ATOM     27  C   UNL     1     -44.780  23.716  -0.176  0.00  0.00    +0.022 C 
ATOM     28  C   UNL     1     -45.812  22.736   0.345  0.00  0.00    +0.005 C 
ENDBRANCH   7  27
BRANCH   3  29
ATOM     29  O   UNL     1     -41.687  25.506   2.226  0.00  0.00    -0.328 OA
BRANCH  29  33
ATOM     30  O   UNL     1     -40.180  24.068   1.091  0.00  0.00    -0.331 OA
ATOM     31  C   UNL     1     -38.831  25.489   3.202  0.00  0.00    -0.031 C 
ATOM     32  C   UNL     1     -39.388  26.206   1.967  0.00  0.00    +0.042 C 
ATOM     33  C   UNL     1     -40.555  25.420   1.364  0.00  0.00    +0.233 C 
ATOM     34  C   UNL     1     -38.495  24.029   2.861  0.00  0.00    +0.118 C 
ATOM     35  C   UNL     1     -39.724  23.345   2.243  0.00  0.00    +0.142 C 
ATOM     36  C   UNL     1     -39.428  21.919   1.793  0.00  0.00    +0.035 C 
BRANCH  31  37
ATOM     37  N   UNL     1     -37.656  26.196   3.708  0.00  0.00    +0.384 N 
ATOM     38  H   UNL     1     -37.097  26.531   2.924  0.00  0.00    -0.089 HD
ATOM     39  H   UNL     1     -37.096  25.561   4.278  0.00  0.00    -0.089 HD
ATOM     40  H   UNL     1     -37.955  26.988   4.278  0.00  0.00    -0.089 HD
ENDBRANCH  31  37
BRANCH  34  41
ATOM     41  O   UNL     1     -37.419  23.975   1.923  0.00  0.00    -0.384 OA
ATOM     42  H   UNL     1     -37.410  23.107   1.491  0.00  0.00    +0.210 HD
ENDBRANCH  34  41
ENDBRANCH  29  33
ENDBRANCH   3  29
TORSDOF 8
ENDMDL
MODEL 2
REMARK VINA RESULT:      -7.0      1.534      1.852
REMARK  Name = 21123832
REMARK  8 active torsions:
REMARK  status: ('A' for Active; 'I' for Inactive)
REMARK    1  A    between atoms: C_3  and  O_29
REMARK    2  A    between atoms: C_7  and  C_27
REMARK    3  A    between atoms: C_9  and  O_21
REMARK    4  A    between atoms: C_11  and  O_23
REMARK    5  A    between atoms: C_17  and  O_25
REMARK    6  A    between atoms: O_29  and  C_33
REMARK    7  A    between atoms: C_31  and  N_37
REMARK    8  A    between atoms: C_34  and  O_41
REMARK                            x       y       z     vdW  Elec       q    Type
REMARK                         _______ _______ _______ _____ _____    ______ ____
ROOT
ATOM      1  O   UNL     1     -43.316  29.446   4.450  0.00  0.00    -0.286 OA
ATOM      2  O   UNL     1     -46.970  26.665   7.185  0.00  0.00    -0.286 OA
ATOM      3  C   UNL     1     -44.456  25.516   1.312  0.00  0.00    +0.147 C 
ATOM      4  C   UNL     1     -45.510  24.672   0.578  0.00  0.00    +0.056 C 
ATOM      5  C   UNL     1     -44.922  26.008   2.658  0.00  0.00    +0.042 A 
ATOM      6  C   UNL     1     -45.881  25.276   3.380  0.00  0.00    +0.034 A 
ATOM      7  C   UNL     1     -46.310  23.777   1.494  0.00  0.00    -0.041 C 
ATOM      8  C   UNL     1     -46.466  24.063   2.798  0.00  0.00    -0.006 C 
ATOM      9  C   UNL     1     -44.358  27.160   3.225  0.00  0.00    +0.135 A 
ATOM     10  C   UNL     1     -44.755  27.588   4.497  0.00  0.00    +0.078 A 
ATOM     11  C   UNL     1     -46.267  25.703   4.656  0.00  0.00    +0.137 A 
ATOM     12  C   UNL     1     -45.707  26.860   5.212  0.00  0.00    +0.079 A 
ATOM     13  C   UNL     1     -44.153  28.806   5.077  0.00  0.00    +0.202 C 
ATOM     14  C   UNL     1     -46.131  27.301   6.558  0.00  0.00    +0.199 C 
ATOM     15  C   UNL     1     -44.575  29.246   6.423  0.00  0.00    +0.076 C 
ATOM     16  C   UNL     1     -45.529  28.519   7.137  0.00  0.00    +0.045 C 
ATOM     17  C   UNL     1     -44.013  30.399   6.983  0.00  0.00    +0.137 C 
ATOM     18  C   UNL     1     -45.922  28.946   8.411  0.00  0.00    +0.003 C 
ATOM     19  C   UNL     1     -44.405  30.821   8.253  0.00  0.00    +0.037 C 
ATOM     20  C   UNL     1     -45.359  30.096   8.966  0.00  0.00    +0.003 C 
ENDROOT
BRANCH   9  21
ATOM     21  O   UNL     1     -43.411  27.835   2.507  0.00  0.00    -0.506 OA
ATOM     22  H   UNL     1     -43.077  27.468   1.712  0.00  0.00    +0.292 HD
ENDBRANCH   9  21
BRANCH  11  23
ATOM     23  O   UNL     1     -47.202  24.977   5.339  0.00  0.00    -0.505 OA
ATOM     24  H   UNL     1     -47.917  24.583   4.880  0.00  0.00    +0.292 HD
ENDBRANCH  11  23
BRANCH  17  25
ATOM     25  O   UNL     1     -43.076  31.156   6.343  0.00  0.00    -0.505 OA
ATOM     26  H   UNL     1     -42.803  31.974   6.710  0.00  0.00    +0.292 HD
ENDBRANCH  17  25
BRANCH   7  27
ATOM     27  C   UNL     1     -46.948  22.574   0.864  0.00  0.00    +0.022 C 
ATOM     28  C   UNL     1     -45.938  21.472   0.613  0.00  0.00    +0.005 C 
ENDBRANCH   7  27
BRANCH   3  29
ATOM     29  O   UNL     1     -43.281  24.733   1.524  0.00  0.00    -0.328 OA
BRANCH  29  33
ATOM     30  O   UNL     1     -41.593  23.490   0.416  0.00  0.00    -0.331 OA
ATOM     31  C   UNL     1     -40.762  26.222   0.785  0.00  0.00    -0.031 C 
ATOM     32  C   UNL     1     -41.926  25.844  -0.139  0.00  0.00    +0.042 C 
ATOM     33  C   UNL     1     -42.568  24.529   0.308  0.00  0.00    +0.233 C 
ATOM     34  C   UNL     1     -39.776  25.050   0.902  0.00  0.00    +0.118 C 
ATOM     35  C   UNL     1     -40.529  23.781   1.331  0.00  0.00    +0.142 C 
ATOM     36  C   UNL     1     -39.621  22.557   1.374  0.00  0.00    +0.035 C 
BRANCH  31  37
ATOM     37  N   UNL     1     -40.095  27.424   0.290  0.00  0.00    +0.384 N 
ATOM     38  H   UNL     1     -40.329  27.563  -0.693  0.00  0.00    -0.089 HD
ATOM     39  H   UNL     1     -39.085  27.317   0.386  0.00  0.00    -0.089 HD
ATOM     40  H   UNL     1     -40.404  28.232   0.832  0.00  0.00    -0.089 HD
ENDBRANCH  31  37
BRANCH  34  41
ATOM     41  O   UNL     1     -39.145  24.807  -0.356  0.00  0.00    -0.384 OA
ATOM     42  H   UNL     1     -39.410  23.934  -0.686  0.00  0.00    +0.210 HD
ENDBRANCH  34  41
ENDBRANCH  29  33
ENDBRANCH   3  29
TORSDOF 8
ENDMDL
MODEL 3
REMARK VINA RESULT:      -7.0      7.956      9.991
REMARK  Name = 21123832
REMARK  8 active torsions:
REMARK  status: ('A' for Active; 'I' for Inactive)
REMARK    1  A    between atoms: C_3  and  O_29
REMARK    2  A    between atoms: C_7  and  C_27
REMARK    3  A    between atoms: C_9  and  O_21
REMARK    4  A    between atoms: C_11  and  O_23
REMARK    5  A    between atoms: C_17  and  O_25
REMARK    6  A    between atoms: O_29  and  C_33
REMARK    7  A    between atoms: C_31  and  N_37
REMARK    8  A    between atoms: C_34  and  O_41
REMARK                            x       y       z     vdW  Elec       q    Type
REMARK                         _______ _______ _______ _____ _____    ______ ____
ROOT
ATOM      1  O   UNL     1     -36.656  29.796   1.484  0.00  0.00    -0.286 OA
ATOM      2  O   UNL     1     -31.989  29.535   4.075  0.00  0.00    -0.286 OA
ATOM      3  C   UNL     1     -36.511  24.953   3.247  0.00  0.00    +0.147 C 
ATOM      4  C   UNL     1     -36.318  23.977   4.418  0.00  0.00    +0.056 C 
ATOM      5  C   UNL     1     -35.635  26.176   3.343  0.00  0.00    +0.042 A 
ATOM      6  C   UNL     1     -34.406  26.107   4.022  0.00  0.00    +0.034 A 
ATOM      7  C   UNL     1     -34.884  23.867   4.882  0.00  0.00    -0.041 C 
ATOM      8  C   UNL     1     -34.002  24.861   4.682  0.00  0.00    -0.006 C 
ATOM      9  C   UNL     1     -36.010  27.367   2.705  0.00  0.00    +0.135 A 
ATOM     10  C   UNL     1     -35.172  28.487   2.752  0.00  0.00    +0.078 A 
ATOM     11  C   UNL     1     -33.567  27.229   4.057  0.00  0.00    +0.137 A 
ATOM     12  C   UNL     1     -33.952  28.418   3.426  0.00  0.00    +0.079 A 
ATOM     13  C   UNL     1     -35.585  29.735   2.077  0.00  0.00    +0.202 C 
ATOM     14  C   UNL     1     -33.058  29.594   3.479  0.00  0.00    +0.199 C 
ATOM     15  C   UNL     1     -34.690  30.909   2.128  0.00  0.00    +0.076 C 
ATOM     16  C   UNL     1     -33.471  30.841   2.805  0.00  0.00    +0.045 C 
ATOM     17  C   UNL     1     -35.071  32.098   1.494  0.00  0.00    +0.137 C 
ATOM     18  C   UNL     1     -32.633  31.960   2.847  0.00  0.00    +0.003 C 
ATOM     19  C   UNL     1     -34.232  33.211   1.537  0.00  0.00    +0.037 C 
ATOM     20  C   UNL     1     -33.015  33.143   2.213  0.00  0.00    +0.003 C 
ENDROOT
BRANCH   9  21
ATOM     21  O   UNL     1     -37.200  27.391   2.034  0.00  0.00    -0.506 OA
ATOM     22  H   UNL     1     -37.217  27.581   1.117  0.00  0.00    +0.292 HD
ENDBRANCH   9  21
BRANCH  11  23
ATOM     23  O   UNL     1     -32.378  27.140   4.724  0.00  0.00    -0.505 OA
ATOM     24  H   UNL     1     -32.367  27.087   5.660  0.00  0.00    +0.292 HD
ENDBRANCH  11  23
BRANCH  17  25
ATOM     25  O   UNL     1     -36.246  32.235   0.815  0.00  0.00    -0.505 OA
ATOM     26  H   UNL     1     -37.038  32.418   1.281  0.00  0.00    +0.292 HD
ENDBRANCH  17  25
BRANCH   7  27
ATOM     27  C   UNL     1     -34.510  22.608   5.606  0.00  0.00    +0.022 C 
ATOM     28  C   UNL     1     -35.688  22.028   6.365  0.00  0.00    +0.005 C 
ENDBRANCH   7  27
BRANCH   3  29
ATOM     29  O   UNL     1     -36.195  24.295   2.020  0.00  0.00    -0.328 OA
BRANCH  29  33
ATOM     30  O   UNL     1     -36.549  21.955   2.190  0.00  0.00    -0.331 OA
ATOM     31  C   UNL     1     -36.263  22.740  -0.566  0.00  0.00    -0.031 C 
ATOM     32  C   UNL     1     -37.458  23.183   0.286  0.00  0.00    +0.042 C 
ATOM     33  C   UNL     1     -37.086  23.211   1.770  0.00  0.00    +0.233 C 
ATOM     34  C   UNL     1     -35.697  21.414  -0.036  0.00  0.00    +0.118 C 
ATOM     35  C   UNL     1     -35.383  21.547   1.462  0.00  0.00    +0.142 C 
ATOM     36  C   UNL     1     -34.906  20.234   2.072  0.00  0.00    +0.035 C 
BRANCH  31  37
ATOM     37  N   UNL     1     -36.658  22.622  -1.968  0.00  0.00    +0.384 N 
ATOM     38  H   UNL     1     -35.926  22.139  -2.488  0.00  0.00    -0.089 HD
ATOM     39  H   UNL     1     -36.798  23.552  -2.362  0.00  0.00    -0.089 HD
ATOM     40  H   UNL     1     -37.528  22.092  -2.032  0.00  0.00    -0.089 HD
ENDBRANCH  31  37
BRANCH  34  41
ATOM     41  O   UNL     1     -36.648  20.364  -0.214  0.00  0.00    -0.384 OA
ATOM     42  H   UNL     1     -36.222  19.616  -0.663  0.00  0.00    +0.210 HD
ENDBRANCH  34  41
ENDBRANCH  29  33
ENDBRANCH   3  29
TORSDOF 8
ENDMDL
MODEL 4
REMARK VINA RESULT:      -7.0      8.443     10.595
REMARK  Name = 21123832
REMARK  8 active torsions:
REMARK  status: ('A' for Active; 'I' for Inactive)
REMARK    1  A    between atoms: C_3  and  O_29
REMARK    2  A    between atoms: C_7  and  C_27
REMARK    3  A    between atoms: C_9  and  O_21
REMARK    4  A    between atoms: C_11  and  O_23
REMARK    5  A    between atoms: C_17  and  O_25
REMARK    6  A    between atoms: O_29  and  C_33
REMARK    7  A    between atoms: C_31  and  N_37
REMARK    8  A    between atoms: C_34  and  O_41
REMARK                            x       y       z     vdW  Elec       q    Type
REMARK                         _______ _______ _______ _____ _____    ______ ____
ROOT
ATOM      1  O   UNL     1     -34.705  29.871   1.668  0.00  0.00    -0.286 OA
ATOM      2  O   UNL     1     -31.412  29.015   5.790  0.00  0.00    -0.286 OA
ATOM      3  C   UNL     1     -36.036  25.177   3.335  0.00  0.00    +0.147 C 
ATOM      4  C   UNL     1     -36.450  24.252   4.490  0.00  0.00    +0.056 C 
ATOM      5  C   UNL     1     -35.060  26.247   3.753  0.00  0.00    +0.042 A 
ATOM      6  C   UNL     1     -34.192  26.022   4.835  0.00  0.00    +0.034 A 
ATOM      7  C   UNL     1     -35.323  23.940   5.447  0.00  0.00    -0.041 C 
ATOM      8  C   UNL     1     -34.273  24.767   5.590  0.00  0.00    -0.006 C 
ATOM      9  C   UNL     1     -34.969  27.444   3.028  0.00  0.00    +0.135 A 
ATOM     10  C   UNL     1     -34.028  28.417   3.385  0.00  0.00    +0.078 A 
ATOM     11  C   UNL     1     -33.245  26.994   5.182  0.00  0.00    +0.137 A 
ATOM     12  C   UNL     1     -33.166  28.191   4.460  0.00  0.00    +0.079 A 
ATOM     13  C   UNL     1     -33.949  29.673   2.612  0.00  0.00    +0.202 C 
ATOM     14  C   UNL     1     -32.166  29.210   4.844  0.00  0.00    +0.199 C 
ATOM     15  C   UNL     1     -32.947  30.690   2.995  0.00  0.00    +0.076 C 
ATOM     16  C   UNL     1     -32.087  30.466   4.071  0.00  0.00    +0.045 C 
ATOM     17  C   UNL     1     -32.864  31.885   2.271  0.00  0.00    +0.137 C 
ATOM     18  C   UNL     1     -31.144  31.437   4.424  0.00  0.00    +0.003 C 
ATOM     19  C   UNL     1     -31.921  32.850   2.625  0.00  0.00    +0.037 C 
ATOM     20  C   UNL     1     -31.063  32.627   3.701  0.00  0.00    +0.003 C 
ENDROOT
BRANCH   9  21
ATOM     21  O   UNL     1     -35.812  27.620   1.967  0.00  0.00    -0.506 OA
ATOM     22  H   UNL     1     -36.735  27.696   2.109  0.00  0.00    +0.292 HD
ENDBRANCH   9  21
BRANCH  11  23
ATOM     23  O   UNL     1     -32.412  26.755   6.238  0.00  0.00    -0.505 OA
ATOM     24  H   UNL     1     -32.763  26.460   7.055  0.00  0.00    +0.292 HD
ENDBRANCH  11  23
BRANCH  17  25
ATOM     25  O   UNL     1     -33.670  32.170   1.209  0.00  0.00    -0.505 OA
ATOM     26  H   UNL     1     -33.359  32.723   0.519  0.00  0.00    +0.292 HD
ENDBRANCH  17  25
BRANCH   7  27
ATOM     27  C   UNL     1     -35.458  22.681   6.251  0.00  0.00    +0.022 C 
ATOM     28  C   UNL     1     -35.087  21.457   5.439  0.00  0.00    +0.005 C 
ENDBRANCH   7  27
BRANCH   3  29
ATOM     29  O   UNL     1     -35.414  24.407   2.306  0.00  0.00    -0.328 OA
BRANCH  29  33
ATOM     30  O   UNL     1     -36.130  22.175   1.943  0.00  0.00    -0.331 OA
ATOM     31  C   UNL     1     -35.027  23.292  -0.471  0.00  0.00    -0.031 C 
ATOM     32  C   UNL     1     -36.327  23.818   0.148  0.00  0.00    +0.042 C 
ATOM     33  C   UNL     1     -36.354  23.557   1.656  0.00  0.00    +0.233 C 
ATOM     34  C   UNL     1     -34.814  21.821  -0.085  0.00  0.00    +0.118 C 
ATOM     35  C   UNL     1     -34.885  21.670   1.442  0.00  0.00    +0.142 C 
ATOM     36  C   UNL     1     -34.776  20.215   1.885  0.00  0.00    +0.035 C 
BRANCH  31  37
ATOM     37  N   UNL     1     -35.057  23.457  -1.923  0.00  0.00    +0.384 N 
ATOM     38  H   UNL     1     -35.654  24.249  -2.163  0.00  0.00    -0.089 HD
ATOM     39  H   UNL     1     -35.427  22.610  -2.355  0.00  0.00    -0.089 HD
ATOM     40  H   UNL     1     -34.111  23.627  -2.266  0.00  0.00    -0.089 HD
ENDBRANCH  31  37
BRANCH  34  41
ATOM     41  O   UNL     1     -35.826  21.003  -0.675  0.00  0.00    -0.384 OA
ATOM     42  H   UNL     1     -36.491  20.779  -0.006  0.00  0.00    +0.210 HD
ENDBRANCH  34  41
ENDBRANCH  29  33
ENDBRANCH   3  29
TORSDOF 8
ENDMDL
MODEL 5
REMARK VINA RESULT:      -6.9      7.088     12.451
REMARK  Name = 21123832
REMARK  8 active torsions:
REMARK  status: ('A' for Active; 'I' for Inactive)
REMARK    1  A    between atoms: C_3  and  O_29
REMARK    2  A    between atoms: C_7  and  C_27
REMARK    3  A    between atoms: C_9  and  O_21
REMARK    4  A    between atoms: C_11  and  O_23
REMARK    5  A    between atoms: C_17  and  O_25
REMARK    6  A    between atoms: O_29  and  C_33
REMARK    7  A    between atoms: C_31  and  N_37
REMARK    8  A    between atoms: C_34  and  O_41
REMARK                            x       y       z     vdW  Elec       q    Type
REMARK                         _______ _______ _______ _____ _____    ______ ____
ROOT
ATOM      1  O   UNL     1     -33.600  18.834   1.880  0.00  0.00    -0.286 OA
ATOM      2  O   UNL     1     -31.977  22.535  -1.618  0.00  0.00    -0.286 OA
ATOM      3  C   UNL     1     -37.583  22.099   1.625  0.00  0.00    +0.147 C 
ATOM      4  C   UNL     1     -38.602  22.879   0.779  0.00  0.00    +0.056 C 
ATOM      5  C   UNL     1     -36.238  21.965   0.958  0.00  0.00    +0.042 A 
ATOM      6  C   UNL     1     -35.809  22.939   0.040  0.00  0.00    +0.034 A 
ATOM      7  C   UNL     1     -37.996  24.036   0.019  0.00  0.00    -0.041 C 
ATOM      8  C   UNL     1     -36.693  24.057  -0.309  0.00  0.00    -0.006 C 
ATOM      9  C   UNL     1     -35.383  20.905   1.295  0.00  0.00    +0.135 A 
ATOM     10  C   UNL     1     -34.113  20.809   0.714  0.00  0.00    +0.078 A 
ATOM     11  C   UNL     1     -34.534  22.843  -0.531  0.00  0.00    +0.137 A 
ATOM     12  C   UNL     1     -33.689  21.778  -0.197  0.00  0.00    +0.079 A 
ATOM     13  C   UNL     1     -33.228  19.684   1.079  0.00  0.00    +0.202 C 
ATOM     14  C   UNL     1     -32.349  21.688  -0.815  0.00  0.00    +0.199 C 
ATOM     15  C   UNL     1     -31.888  19.596   0.463  0.00  0.00    +0.076 C 
ATOM     16  C   UNL     1     -31.464  20.563  -0.450  0.00  0.00    +0.045 C 
ATOM     17  C   UNL     1     -31.040  18.534   0.800  0.00  0.00    +0.137 C 
ATOM     18  C   UNL     1     -30.193  20.468  -1.028  0.00  0.00    +0.003 C 
ATOM     19  C   UNL     1     -29.774  18.443   0.223  0.00  0.00    +0.037 C 
ATOM     20  C   UNL     1     -29.351  19.408  -0.690  0.00  0.00    +0.003 C 
ENDROOT
BRANCH   9  21
ATOM     21  O   UNL     1     -35.822  19.989   2.209  0.00  0.00    -0.506 OA
ATOM     22  H   UNL     1     -35.221  19.376   2.583  0.00  0.00    +0.292 HD
ENDBRANCH   9  21
BRANCH  11  23
ATOM     23  O   UNL     1     -34.137  23.801  -1.422  0.00  0.00    -0.505 OA
ATOM     24  H   UNL     1     -33.241  23.850  -1.690  0.00  0.00    +0.292 HD
ENDBRANCH  11  23
BRANCH  17  25
ATOM     25  O   UNL     1     -31.388  17.556   1.684  0.00  0.00    -0.505 OA
ATOM     26  H   UNL     1     -32.014  16.903   1.438  0.00  0.00    +0.292 HD
ENDBRANCH  17  25
BRANCH   7  27
ATOM     27  C   UNL     1     -38.932  25.139  -0.377  0.00  0.00    +0.022 C 
ATOM     28  C   UNL     1     -39.261  26.041   0.795  0.00  0.00    +0.005 C 
ENDBRANCH   7  27
BRANCH   3  29
ATOM     29  O   UNL     1     -37.380  22.771   2.868  0.00  0.00    -0.328 OA
BRANCH  29  33
ATOM     30  O   UNL     1     -35.292  22.598   3.978  0.00  0.00    -0.331 OA
ATOM     31  C   UNL     1     -36.594  25.076   4.649  0.00  0.00    -0.031 C 
ATOM     32  C   UNL     1     -36.090  24.781   3.232  0.00  0.00    +0.042 C 
ATOM     33  C   UNL     1     -36.051  23.273   2.974  0.00  0.00    +0.233 C 
ATOM     34  C   UNL     1     -35.775  24.284   5.679  0.00  0.00    +0.118 C 
ATOM     35  C   UNL     1     -35.783  22.793   5.311  0.00  0.00    +0.142 C 
ATOM     36  C   UNL     1     -34.907  21.962   6.242  0.00  0.00    +0.035 C 
BRANCH  31  37
ATOM     37  N   UNL     1     -36.532  26.512   4.918  0.00  0.00    +0.384 N 
ATOM     38  H   UNL     1     -37.369  26.963   4.548  0.00  0.00    -0.089 HD
ATOM     39  H   UNL     1     -35.706  26.907   4.467  0.00  0.00    -0.089 HD
ATOM     40  H   UNL     1     -36.476  26.667   5.925  0.00  0.00    -0.089 HD
ENDBRANCH  31  37
BRANCH  34  41
ATOM     41  O   UNL     1     -34.423  24.746   5.697  0.00  0.00    -0.384 OA
ATOM     42  H   UNL     1     -34.100  24.760   6.611  0.00  0.00    +0.210 HD
ENDBRANCH  34  41
ENDBRANCH  29  33
ENDBRANCH   3  29
TORSDOF 8
ENDMDL
MODEL 6
REMARK VINA RESULT:      -6.8      5.673      8.790
REMARK  Name = 21123832
REMARK  8 active torsions:
REMARK  status: ('A' for Active; 'I' for Inactive)
REMARK    1  A    between atoms: C_3  and  O_29
REMARK    2  A    between atoms: C_7  and  C_27
REMARK    3  A    between atoms: C_9  and  O_21
REMARK    4  A    between atoms: C_11  and  O_23
REMARK    5  A    between atoms: C_17  and  O_25
REMARK    6  A    between atoms: O_29  and  C_33
REMARK    7  A    between atoms: C_31  and  N_37
REMARK    8  A    between atoms: C_34  and  O_41
REMARK                            x       y       z     vdW  Elec       q    Type
REMARK                         _______ _______ _______ _____ _____    ______ ____
ROOT
ATOM      1  O   UNL     1     -40.878  21.983   0.749  0.00  0.00    -0.286 OA
ATOM      2  O   UNL     1     -39.898  27.198   1.387  0.00  0.00    -0.286 OA
ATOM      3  C   UNL     1     -36.475  22.075   3.431  0.00  0.00    +0.147 C 
ATOM      4  C   UNL     1     -35.674  22.581   4.641  0.00  0.00    +0.056 C 
ATOM      5  C   UNL     1     -37.449  23.095   2.897  0.00  0.00    +0.042 A 
ATOM      6  C   UNL     1     -37.191  24.466   3.062  0.00  0.00    +0.034 A 
ATOM      7  C   UNL     1     -35.293  24.040   4.547  0.00  0.00    -0.041 C 
ATOM      8  C   UNL     1     -36.001  24.904   3.800  0.00  0.00    -0.006 C 
ATOM      9  C   UNL     1     -38.583  22.683   2.182  0.00  0.00    +0.135 A 
ATOM     10  C   UNL     1     -39.461  23.631   1.642  0.00  0.00    +0.078 A 
ATOM     11  C   UNL     1     -38.068  25.411   2.513  0.00  0.00    +0.137 A 
ATOM     12  C   UNL     1     -39.203  24.992   1.807  0.00  0.00    +0.079 A 
ATOM     13  C   UNL     1     -40.651  23.178   0.895  0.00  0.00    +0.202 C 
ATOM     14  C   UNL     1     -40.121  26.002   1.239  0.00  0.00    +0.199 C 
ATOM     15  C   UNL     1     -41.568  24.188   0.325  0.00  0.00    +0.076 C 
ATOM     16  C   UNL     1     -41.312  25.550   0.492  0.00  0.00    +0.045 C 
ATOM     17  C   UNL     1     -42.701  23.772  -0.385  0.00  0.00    +0.137 C 
ATOM     18  C   UNL     1     -42.188  26.496  -0.052  0.00  0.00    +0.003 C 
ATOM     19  C   UNL     1     -43.571  24.718  -0.925  0.00  0.00    +0.037 C 
ATOM     20  C   UNL     1     -43.316  26.078  -0.759  0.00  0.00    +0.003 C 
ENDROOT
BRANCH   9  21
ATOM     21  O   UNL     1     -38.791  21.342   2.019  0.00  0.00    -0.506 OA
ATOM     22  H   UNL     1     -38.086  20.739   2.155  0.00  0.00    +0.292 HD
ENDBRANCH   9  21
BRANCH  11  23
ATOM     23  O   UNL     1     -37.798  26.739   2.686  0.00  0.00    -0.505 OA
ATOM     24  H   UNL     1     -38.499  27.362   2.698  0.00  0.00    +0.292 HD
ENDBRANCH  11  23
BRANCH  17  25
ATOM     25  O   UNL     1     -43.011  22.459  -0.587  0.00  0.00    -0.505 OA
ATOM     26  H   UNL     1     -42.607  21.796  -0.062  0.00  0.00    +0.292 HD
ENDBRANCH  17  25
BRANCH   7  27
ATOM     27  C   UNL     1     -34.108  24.476   5.356  0.00  0.00    +0.022 C 
ATOM     28  C   UNL     1     -34.182  25.949   5.707  0.00  0.00    +0.005 C 
ENDBRANCH   7  27
BRANCH   3  29
ATOM     29  O   UNL     1     -35.579  21.743   2.371  0.00  0.00    -0.328 OA
BRANCH  29  33
ATOM     30  O   UNL     1     -34.075  19.967   1.915  0.00  0.00    -0.331 OA
ATOM     31  C   UNL     1     -36.031  20.202  -0.184  0.00  0.00    -0.031 C 
ATOM     32  C   UNL     1     -36.413  19.778   1.239  0.00  0.00    +0.042 C 
ATOM     33  C   UNL     1     -35.413  20.333   2.256  0.00  0.00    +0.233 C 
ATOM     34  C   UNL     1     -34.569  19.830  -0.474  0.00  0.00    +0.118 C 
ATOM     35  C   UNL     1     -33.660  20.415   0.617  0.00  0.00    +0.142 C 
ATOM     36  C   UNL     1     -32.204  20.001   0.440  0.00  0.00    +0.035 C 
BRANCH  31  37
ATOM     37  N   UNL     1     -36.934  19.585  -1.154  0.00  0.00    +0.384 N 
ATOM     38  H   UNL     1     -36.441  19.440  -2.034  0.00  0.00    -0.089 HD
ATOM     39  H   UNL     1     -37.736  20.197  -1.310  0.00  0.00    -0.089 HD
ATOM     40  H   UNL     1     -37.259  18.687  -0.793  0.00  0.00    -0.089 HD
ENDBRANCH  31  37
BRANCH  34  41
ATOM     41  O   UNL     1     -34.414  18.410  -0.490  0.00  0.00    -0.384 OA
ATOM     42  H   UNL     1     -33.499  18.189  -0.725  0.00  0.00    +0.210 HD
ENDBRANCH  34  41
ENDBRANCH  29  33
ENDBRANCH   3  29
TORSDOF 8
ENDMDL
MODEL 7
REMARK VINA RESULT:      -6.8      8.671     10.877
REMARK  Name = 21123832
REMARK  8 active torsions:
REMARK  status: ('A' for Active; 'I' for Inactive)
REMARK    1  A    between atoms: C_3  and  O_29
REMARK    2  A    between atoms: C_7  and  C_27
REMARK    3  A    between atoms: C_9  and  O_21
REMARK    4  A    between atoms: C_11  and  O_23
REMARK    5  A    between atoms: C_17  and  O_25
REMARK    6  A    between atoms: O_29  and  C_33
REMARK    7  A    between atoms: C_31  and  N_37
REMARK    8  A    between atoms: C_34  and  O_41
REMARK                            x       y       z     vdW  Elec       q    Type
REMARK                         _______ _______ _______ _____ _____    ______ ____
ROOT
ATOM      1  O   UNL     1     -35.193  20.085   3.218  0.00  0.00    -0.286 OA
ATOM      2  O   UNL     1     -36.564  24.952   1.487  0.00  0.00    -0.286 OA
ATOM      3  C   UNL     1     -36.042  19.391  -1.821  0.00  0.00    +0.147 C 
ATOM      4  C   UNL     1     -35.779  19.809  -3.276  0.00  0.00    +0.056 C 
ATOM      5  C   UNL     1     -36.053  20.555  -0.862  0.00  0.00    +0.042 A 
ATOM      6  C   UNL     1     -36.416  21.835  -1.316  0.00  0.00    +0.034 A 
ATOM      7  C   UNL     1     -36.431  21.118  -3.655  0.00  0.00    -0.041 C 
ATOM      8  C   UNL     1     -36.732  22.047  -2.733  0.00  0.00    -0.006 C 
ATOM      9  C   UNL     1     -35.762  20.357   0.495  0.00  0.00    +0.135 A 
ATOM     10  C   UNL     1     -35.822  21.428   1.395  0.00  0.00    +0.078 A 
ATOM     11  C   UNL     1     -36.483  22.901  -0.410  0.00  0.00    +0.137 A 
ATOM     12  C   UNL     1     -36.183  22.698   0.942  0.00  0.00    +0.079 A 
ATOM     13  C   UNL     1     -35.509  21.200   2.820  0.00  0.00    +0.202 C 
ATOM     14  C   UNL     1     -36.252  23.836   1.883  0.00  0.00    +0.199 C 
ATOM     15  C   UNL     1     -35.580  22.337   3.761  0.00  0.00    +0.076 C 
ATOM     16  C   UNL     1     -35.939  23.608   3.309  0.00  0.00    +0.045 C 
ATOM     17  C   UNL     1     -35.285  22.135   5.115  0.00  0.00    +0.137 C 
ATOM     18  C   UNL     1     -36.002  24.678   4.210  0.00  0.00    +0.003 C 
ATOM     19  C   UNL     1     -35.351  23.203   6.009  0.00  0.00    +0.037 C 
ATOM     20  C   UNL     1     -35.708  24.472   5.558  0.00  0.00    +0.003 C 
ENDROOT
BRANCH   9  21
ATOM     21  O   UNL     1     -35.436  19.095   0.907  0.00  0.00    -0.506 OA
ATOM     22  H   UNL     1     -36.035  18.605   1.434  0.00  0.00    +0.292 HD
ENDBRANCH   9  21
BRANCH  11  23
ATOM     23  O   UNL     1     -36.837  24.137  -0.873  0.00  0.00    -0.505 OA
ATOM     24  H   UNL     1     -37.542  24.225  -1.484  0.00  0.00    +0.292 HD
ENDBRANCH  11  23
BRANCH  17  25
ATOM     25  O   UNL     1     -34.930  20.922   5.625  0.00  0.00    -0.505 OA
ATOM     26  H   UNL     1     -34.156  20.842   6.148  0.00  0.00    +0.292 HD
ENDBRANCH  17  25
BRANCH   7  27
ATOM     27  C   UNL     1     -36.691  21.337  -5.116  0.00  0.00    +0.022 C 
ATOM     28  C   UNL     1     -36.705  20.030  -5.884  0.00  0.00    +0.005 C 
ENDBRANCH   7  27
BRANCH   3  29
ATOM     29  O   UNL     1     -37.314  18.750  -1.730  0.00  0.00    -0.328 OA
BRANCH  29  33
ATOM     30  O   UNL     1     -38.584  16.864  -2.405  0.00  0.00    -0.331 OA
ATOM     31  C   UNL     1     -36.863  16.189  -0.198  0.00  0.00    -0.031 C 
ATOM     32  C   UNL     1     -36.307  16.559  -1.579  0.00  0.00    +0.042 C 
ATOM     33  C   UNL     1     -37.287  17.460  -2.334  0.00  0.00    +0.233 C 
ATOM     34  C   UNL     1     -38.276  15.604  -0.334  0.00  0.00    +0.118 C 
ATOM     35  C   UNL     1     -39.165  16.575  -1.127  0.00  0.00    +0.142 C 
ATOM     36  C   UNL     1     -40.558  16.009  -1.380  0.00  0.00    +0.035 C 
BRANCH  31  37
ATOM     37  N   UNL     1     -35.965  15.250   0.472  0.00  0.00    +0.384 N 
ATOM     38  H   UNL     1     -35.079  15.209  -0.031  0.00  0.00    -0.089 HD
ATOM     39  H   UNL     1     -36.392  14.323   0.486  0.00  0.00    -0.089 HD
ATOM     40  H   UNL     1     -35.800  15.562   1.429  0.00  0.00    -0.089 HD
ENDBRANCH  31  37
BRANCH  34  41
ATOM     41  O   UNL     1     -38.230  14.355  -1.026  0.00  0.00    -0.384 OA
ATOM     42  H   UNL     1     -39.133  14.054  -1.209  0.00  0.00    +0.210 HD
ENDBRANCH  34  41
ENDBRANCH  29  33
ENDBRANCH   3  29
TORSDOF 8
ENDMDL
MODEL 8
REMARK VINA RESULT:      -6.7      2.815      5.546
REMARK  Name = 21123832
REMARK  8 active torsions:
REMARK  status: ('A' for Active; 'I' for Inactive)
REMARK    1  A    between atoms: C_3  and  O_29
REMARK    2  A    between atoms: C_7  and  C_27
REMARK    3  A    between atoms: C_9  and  O_21
REMARK    4  A    between atoms: C_11  and  O_23
REMARK    5  A    between atoms: C_17  and  O_25
REMARK    6  A    between atoms: O_29  and  C_33
REMARK    7  A    between atoms: C_31  and  N_37
REMARK    8  A    between atoms: C_34  and  O_41
REMARK                            x       y       z     vdW  Elec       q    Type
REMARK                         _______ _______ _______ _____ _____    ______ ____
ROOT
ATOM      1  O   UNL     1     -41.223  27.438   3.502  0.00  0.00    -0.286 OA
ATOM      2  O   UNL     1     -44.095  24.018   0.565  0.00  0.00    -0.286 OA
ATOM      3  C   UNL     1     -37.653  24.720   0.961  0.00  0.00    +0.147 C 
ATOM      4  C   UNL     1     -37.104  24.172  -0.366  0.00  0.00    +0.056 C 
ATOM      5  C   UNL     1     -39.160  24.773   1.003  0.00  0.00    +0.042 A 
ATOM      6  C   UNL     1     -39.915  23.873   0.233  0.00  0.00    +0.034 A 
ATOM      7  C   UNL     1     -37.935  23.052  -0.946  0.00  0.00    -0.041 C 
ATOM      8  C   UNL     1     -39.238  22.917  -0.651  0.00  0.00    -0.006 C 
ATOM      9  C   UNL     1     -39.812  25.676   1.854  0.00  0.00    +0.135 A 
ATOM     10  C   UNL     1     -41.210  25.691   1.930  0.00  0.00    +0.078 A 
ATOM     11  C   UNL     1     -41.313  23.885   0.320  0.00  0.00    +0.137 A 
ATOM     12  C   UNL     1     -41.959  24.796   1.165  0.00  0.00    +0.079 A 
ATOM     13  C   UNL     1     -41.881  26.652   2.829  0.00  0.00    +0.202 C 
ATOM     14  C   UNL     1     -43.435  24.800   1.239  0.00  0.00    +0.199 C 
ATOM     15  C   UNL     1     -43.356  26.655   2.906  0.00  0.00    +0.076 C 
ATOM     16  C   UNL     1     -44.106  25.761   2.139  0.00  0.00    +0.045 C 
ATOM     17  C   UNL     1     -44.004  27.561   3.753  0.00  0.00    +0.137 C 
ATOM     18  C   UNL     1     -45.503  25.774   2.219  0.00  0.00    +0.003 C 
ATOM     19  C   UNL     1     -45.396  27.570   3.832  0.00  0.00    +0.037 C 
ATOM     20  C   UNL     1     -46.145  26.679   3.065  0.00  0.00    +0.003 C 
ENDROOT
BRANCH   9  21
ATOM     21  O   UNL     1     -39.046  26.522   2.606  0.00  0.00    -0.506 OA
ATOM     22  H   UNL     1     -38.289  26.196   3.051  0.00  0.00    +0.292 HD
ENDBRANCH   9  21
BRANCH  11  23
ATOM     23  O   UNL     1     -42.029  23.001  -0.438  0.00  0.00    -0.505 OA
ATOM     24  H   UNL     1     -42.205  22.140  -0.113  0.00  0.00    +0.292 HD
ENDBRANCH  11  23
BRANCH  17  25
ATOM     25  O   UNL     1     -43.335  28.460   4.531  0.00  0.00    -0.505 OA
ATOM     26  H   UNL     1     -43.471  29.379   4.407  0.00  0.00    +0.292 HD
ENDBRANCH  17  25
BRANCH   7  27
ATOM     27  C   UNL     1     -37.235  22.123  -1.893  0.00  0.00    +0.022 C 
ATOM     28  C   UNL     1     -37.532  20.671  -1.574  0.00  0.00    +0.005 C 
ENDBRANCH   7  27
BRANCH   3  29
ATOM     29  O   UNL     1     -37.225  23.884   2.036  0.00  0.00    -0.328 OA
BRANCH  29  33
ATOM     30  O   UNL     1     -35.300  23.131   3.200  0.00  0.00    -0.331 OA
ATOM     31  C   UNL     1     -36.460  25.407   4.528  0.00  0.00    -0.031 C 
ATOM     32  C   UNL     1     -35.822  25.515   3.138  0.00  0.00    +0.042 C 
ATOM     33  C   UNL     1     -35.879  24.170   2.409  0.00  0.00    +0.233 C 
ATOM     34  C   UNL     1     -35.835  24.242   5.309  0.00  0.00    +0.118 C 
ATOM     35  C   UNL     1     -35.924  22.953   4.478  0.00  0.00    +0.142 C 
ATOM     36  C   UNL     1     -35.234  21.776   5.159  0.00  0.00    +0.035 C 
BRANCH  31  37
ATOM     37  N   UNL     1     -36.311  26.668   5.251  0.00  0.00    +0.384 N 
ATOM     38  H   UNL     1     -35.458  26.641   5.810  0.00  0.00    -0.089 HD
ATOM     39  H   UNL     1     -37.115  26.806   5.865  0.00  0.00    -0.089 HD
ATOM     40  H   UNL     1     -36.258  27.438   4.584  0.00  0.00    -0.089 HD
ENDBRANCH  31  37
BRANCH  34  41
ATOM     41  O   UNL     1     -34.461  24.515   5.588  0.00  0.00    -0.384 OA
ATOM     42  H   UNL     1     -33.903  24.042   4.952  0.00  0.00    +0.210 HD
ENDBRANCH  34  41
ENDBRANCH  29  33
ENDBRANCH   3  29
TORSDOF 8
ENDMDL
MODEL 9
REMARK VINA RESULT:      -6.5      3.659      8.808
REMARK  Name = 21123832
REMARK  8 active torsions:
REMARK  status: ('A' for Active; 'I' for Inactive)
REMARK    1  A    between atoms: C_3  and  O_29
REMARK    2  A    between atoms: C_7  and  C_27
REMARK    3  A    between atoms: C_9  and  O_21
REMARK    4  A    between atoms: C_11  and  O_23
REMARK    5  A    between atoms: C_17  and  O_25
REMARK    6  A    between atoms: O_29  and  C_33
REMARK    7  A    between atoms: C_31  and  N_37
REMARK    8  A    between atoms: C_34  and  O_41
REMARK                            x       y       z     vdW  Elec       q    Type
REMARK                         _______ _______ _______ _____ _____    ______ ____
ROOT
ATOM      1  O   UNL     1     -39.527  21.349   0.454  0.00  0.00    -0.286 OA
ATOM      2  O   UNL     1     -37.558  24.864   3.966  0.00  0.00    -0.286 OA
ATOM      3  C   UNL     1     -43.026  25.137   0.478  0.00  0.00    +0.147 C 
ATOM      4  C   UNL     1     -43.357  26.633   0.359  0.00  0.00    +0.056 C 
ATOM      5  C   UNL     1     -41.699  24.874   1.142  0.00  0.00    +0.042 A 
ATOM      6  C   UNL     1     -41.181  25.795   2.068  0.00  0.00    +0.034 A 
ATOM      7  C   UNL     1     -42.914  27.445   1.554  0.00  0.00    -0.041 C 
ATOM      8  C   UNL     1     -41.908  27.039   2.347  0.00  0.00    -0.006 C 
ATOM      9  C   UNL     1     -41.005  23.682   0.888  0.00  0.00    +0.135 A 
ATOM     10  C   UNL     1     -39.797  23.414   1.543  0.00  0.00    +0.078 A 
ATOM     11  C   UNL     1     -39.977  25.519   2.727  0.00  0.00    +0.137 A 
ATOM     12  C   UNL     1     -39.285  24.331   2.462  0.00  0.00    +0.079 A 
ATOM     13  C   UNL     1     -39.078  22.155   1.260  0.00  0.00    +0.202 C 
ATOM     14  C   UNL     1     -38.012  24.058   3.162  0.00  0.00    +0.199 C 
ATOM     15  C   UNL     1     -37.806  21.881   1.962  0.00  0.00    +0.076 C 
ATOM     16  C   UNL     1     -37.293  22.799   2.879  0.00  0.00    +0.045 C 
ATOM     17  C   UNL     1     -37.115  20.692   1.702  0.00  0.00    +0.137 C 
ATOM     18  C   UNL     1     -36.087  22.529   3.537  0.00  0.00    +0.003 C 
ATOM     19  C   UNL     1     -35.914  20.426   2.360  0.00  0.00    +0.037 C 
ATOM     20  C   UNL     1     -35.401  21.343   3.275  0.00  0.00    +0.003 C 
ENDROOT
BRANCH   9  21
ATOM     21  O   UNL     1     -41.548  22.796   0.001  0.00  0.00    -0.506 OA
ATOM     22  H   UNL     1     -41.103  22.604  -0.801  0.00  0.00    +0.292 HD
ENDBRANCH   9  21
BRANCH  11  23
ATOM     23  O   UNL     1     -39.492  26.430   3.623  0.00  0.00    -0.505 OA
ATOM     24  H   UNL     1     -38.851  27.058   3.352  0.00  0.00    +0.292 HD
ENDBRANCH  11  23
BRANCH  17  25
ATOM     25  O   UNL     1     -37.559  19.751   0.820  0.00  0.00    -0.505 OA
ATOM     26  H   UNL     1     -37.977  20.015   0.024  0.00  0.00    +0.292 HD
ENDBRANCH  17  25
BRANCH   7  27
ATOM     27  C   UNL     1     -43.633  28.741   1.784  0.00  0.00    +0.022 C 
ATOM     28  C   UNL     1     -44.286  28.783   3.152  0.00  0.00    +0.005 C 
ENDBRANCH   7  27
BRANCH   3  29
ATOM     29  O   UNL     1     -44.031  24.486   1.256  0.00  0.00    -0.328 OA
BRANCH  29  33
ATOM     30  O   UNL     1     -45.990  25.514   2.110  0.00  0.00    -0.331 OA
ATOM     31  C   UNL     1     -46.540  22.810   1.290  0.00  0.00    -0.031 C 
ATOM     32  C   UNL     1     -46.165  23.904   0.283  0.00  0.00    +0.042 C 
ATOM     33  C   UNL     1     -45.328  24.994   0.956  0.00  0.00    +0.233 C 
ATOM     34  C   UNL     1     -47.200  23.432   2.529  0.00  0.00    +0.118 C 
ATOM     35  C   UNL     1     -46.289  24.527   3.106  0.00  0.00    +0.142 C 
ATOM     36  C   UNL     1     -46.929  25.252   4.284  0.00  0.00    +0.035 C 
BRANCH  31  37
ATOM     37  N   UNL     1     -47.421  21.827   0.662  0.00  0.00    +0.384 N 
ATOM     38  H   UNL     1     -48.213  21.639   1.275  0.00  0.00    -0.089 HD
ATOM     39  H   UNL     1     -46.905  20.962   0.499  0.00  0.00    -0.089 HD
ATOM     40  H   UNL     1     -47.759  22.193  -0.229  0.00  0.00    -0.089 HD
ENDBRANCH  31  37
BRANCH  34  41
ATOM     41  O   UNL     1     -48.456  24.017   2.180  0.00  0.00    -0.384 OA
ATOM     42  H   UNL     1     -49.170  23.535   2.625  0.00  0.00    +0.210 HD
ENDBRANCH  34  41
ENDBRANCH  29  33
ENDBRANCH   3  29
TORSDOF 8
ENDMDL
