MODEL 1
REMARK VINA RESULT:      -6.1      0.000      0.000
REMARK  Name = 196330
REMARK  2 active torsions:
REMARK  status: ('A' for Active; 'I' for Inactive)
REMARK    1  A    between atoms: CA_10  and  C_18
REMARK    2  A    between atoms: C_18  and  O_19
REMARK                            x       y       z     vdW  Elec       q    Type
REMARK                         _______ _______ _______ _____ _____    ______ ____
ROOT
ATOM      1  O   UNL     1     -38.039  21.732   2.091  0.00  0.00    -0.283 OA
ATOM      2  O   UNL     1     -35.603  21.638   3.224  0.00  0.00    -0.282 OA
ATOM      3  N   UNL     1     -38.860  25.945   3.679  0.00  0.00    -0.307 N 
ATOM      4  N   UNL     1     -34.564  23.683   4.682  0.00  0.00    -0.240 NA
ATOM      5  C   UNL     1     -37.919  24.949   3.664  0.00  0.00    +0.053 C 
ATOM      6  C   UNL     1     -38.435  23.902   2.924  0.00  0.00    +0.057 C 
ATOM      7  C   UNL     1     -36.608  24.950   4.294  0.00  0.00    +0.034 C 
ATOM      8  C   UNL     1     -35.799  23.816   4.151  0.00  0.00    +0.125 C 
ATOM      9  C   UNL     1     -39.724  24.276   2.480  0.00  0.00    +0.026 C 
ATOM     10  CA  UNL     1     -39.961  25.545   2.962  0.00  0.00    +0.125 C 
ATOM     11  C   UNL     1     -37.657  22.700   2.734  0.00  0.00    +0.237 C 
ATOM     12  C   UNL     1     -36.278  22.644   3.371  0.00  0.00    +0.252 C 
ATOM     13  C   UNL     1     -36.097  26.011   5.037  0.00  0.00    +0.004 C 
ATOM     14  C   UNL     1     -34.826  25.908   5.599  0.00  0.00    +0.021 C 
ATOM     15  C   UNL     1     -34.110  24.737   5.394  0.00  0.00    +0.099 C 
ATOM     16  H   UNL     1     -38.763  26.813   4.134  0.00  0.00    +0.152 HD
ENDROOT
BRANCH  10  18
ATOM     17  OXT UNL     1     -41.946  26.299   1.850  0.00  0.00    -0.244 OA
ATOM     18  C   UNL     1     -41.126  26.355   2.783  0.00  0.00    +0.352 C 
BRANCH  18  19
ATOM     19  O   UNL     1     -41.299  27.272   3.788  0.00  0.00    -0.476 OA
ATOM     20  H   UNL     1     -40.764  27.232   4.557  0.00  0.00    +0.295 HD
ENDBRANCH  18  19
ENDBRANCH  10  18
TORSDOF 2
ENDMDL
MODEL 2
REMARK VINA RESULT:      -6.0      3.502      5.795
REMARK  Name = 196330
REMARK  2 active torsions:
REMARK  status: ('A' for Active; 'I' for Inactive)
REMARK    1  A    between atoms: CA_10  and  C_18
REMARK    2  A    between atoms: C_18  and  O_19
REMARK                            x       y       z     vdW  Elec       q    Type
REMARK                         _______ _______ _______ _____ _____    ______ ____
ROOT
ATOM      1  O   UNL     1     -35.969  23.355   5.600  0.00  0.00    -0.283 OA
ATOM      2  O   UNL     1     -37.723  23.334   3.562  0.00  0.00    -0.282 OA
ATOM      3  N   UNL     1     -34.232  27.402   4.356  0.00  0.00    -0.307 N 
ATOM      4  N   UNL     1     -37.902  25.341   1.738  0.00  0.00    -0.240 NA
ATOM      5  C   UNL     1     -35.173  26.467   4.013  0.00  0.00    +0.053 C 
ATOM      6  C   UNL     1     -35.093  25.440   4.935  0.00  0.00    +0.057 C 
ATOM      7  C   UNL     1     -36.103  26.506   2.896  0.00  0.00    +0.034 C 
ATOM      8  C   UNL     1     -36.988  25.433   2.728  0.00  0.00    +0.125 C 
ATOM      9  C   UNL     1     -34.075  25.764   5.860  0.00  0.00    +0.026 C 
ATOM     10  CA  UNL     1     -33.559  26.983   5.478  0.00  0.00    +0.125 C 
ATOM     11  C   UNL     1     -35.974  24.301   4.825  0.00  0.00    +0.237 C 
ATOM     12  C   UNL     1     -36.969  24.287   3.675  0.00  0.00    +0.252 C 
ATOM     13  C   UNL     1     -36.177  27.546   1.974  0.00  0.00    +0.004 C 
ATOM     14  C   UNL     1     -37.108  27.483   0.939  0.00  0.00    +0.021 C 
ATOM     15  C   UNL     1     -37.936  26.373   0.867  0.00  0.00    +0.099 C 
ATOM     16  H   UNL     1     -34.063  28.244   3.874  0.00  0.00    +0.152 HD
ENDROOT
BRANCH  10  18
ATOM     17  OXT UNL     1     -32.239  28.934   5.926  0.00  0.00    -0.244 OA
ATOM     18  C   UNL     1     -32.510  27.732   6.098  0.00  0.00    +0.352 C 
BRANCH  18  19
ATOM     19  O   UNL     1     -31.758  26.982   6.966  0.00  0.00    -0.476 OA
ATOM     20  H   UNL     1     -31.562  27.312   7.822  0.00  0.00    +0.295 HD
ENDBRANCH  18  19
ENDBRANCH  10  18
TORSDOF 2
ENDMDL
MODEL 3
REMARK VINA RESULT:      -6.0      2.457      5.815
REMARK  Name = 196330
REMARK  2 active torsions:
REMARK  status: ('A' for Active; 'I' for Inactive)
REMARK    1  A    between atoms: CA_10  and  C_18
REMARK    2  A    between atoms: C_18  and  O_19
REMARK                            x       y       z     vdW  Elec       q    Type
REMARK                         _______ _______ _______ _____ _____    ______ ____
ROOT
ATOM      1  O   UNL     1     -34.691  26.903   3.025  0.00  0.00    -0.283 OA
ATOM      2  O   UNL     1     -36.795  27.975   1.739  0.00  0.00    -0.282 OA
ATOM      3  N   UNL     1     -37.014  23.119   4.135  0.00  0.00    -0.307 N 
ATOM      4  N   UNL     1     -39.198  26.723   1.524  0.00  0.00    -0.240 NA
ATOM      5  C   UNL     1     -37.130  24.318   3.482  0.00  0.00    +0.053 C 
ATOM      6  C   UNL     1     -35.913  24.966   3.583  0.00  0.00    +0.057 C 
ATOM      7  C   UNL     1     -38.297  24.852   2.797  0.00  0.00    +0.034 C 
ATOM      8  C   UNL     1     -38.196  26.111   2.192  0.00  0.00    +0.125 C 
ATOM      9  C   UNL     1     -35.037  24.134   4.318  0.00  0.00    +0.026 C 
ATOM     10  CA  UNL     1     -35.745  22.998   4.646  0.00  0.00    +0.125 C 
ATOM     11  C   UNL     1     -35.735  26.267   2.983  0.00  0.00    +0.237 C 
ATOM     12  C   UNL     1     -36.922  26.875   2.253  0.00  0.00    +0.252 C 
ATOM     13  C   UNL     1     -39.519  24.191   2.700  0.00  0.00    +0.004 C 
ATOM     14  C   UNL     1     -40.574  24.794   2.018  0.00  0.00    +0.021 C 
ATOM     15  C   UNL     1     -40.364  26.045   1.456  0.00  0.00    +0.099 C 
ATOM     16  H   UNL     1     -37.729  22.448   4.224  0.00  0.00    +0.152 HD
ENDROOT
BRANCH  10  18
ATOM     17  OXT UNL     1     -34.914  21.833   6.570  0.00  0.00    -0.244 OA
ATOM     18  C   UNL     1     -35.296  21.860   5.386  0.00  0.00    +0.352 C 
BRANCH  18  19
ATOM     19  O   UNL     1     -35.313  20.702   4.650  0.00  0.00    -0.476 OA
ATOM     20  H   UNL     1     -35.775  19.951   4.969  0.00  0.00    +0.295 HD
ENDBRANCH  18  19
ENDBRANCH  10  18
TORSDOF 2
ENDMDL
MODEL 4
REMARK VINA RESULT:      -6.0      2.645      4.967
REMARK  Name = 196330
REMARK  2 active torsions:
REMARK  status: ('A' for Active; 'I' for Inactive)
REMARK    1  A    between atoms: CA_10  and  C_18
REMARK    2  A    between atoms: C_18  and  O_19
REMARK                            x       y       z     vdW  Elec       q    Type
REMARK                         _______ _______ _______ _____ _____    ______ ____
ROOT
ATOM      1  O   UNL     1     -34.829  20.603   3.371  0.00  0.00    -0.283 OA
ATOM      2  O   UNL     1     -36.638  19.640   1.632  0.00  0.00    -0.282 OA
ATOM      3  N   UNL     1     -37.106  24.536   3.906  0.00  0.00    -0.307 N 
ATOM      4  N   UNL     1     -38.849  21.026   0.871  0.00  0.00    -0.240 NA
ATOM      5  C   UNL     1     -37.142  23.336   3.247  0.00  0.00    +0.053 C 
ATOM      6  C   UNL     1     -36.023  22.619   3.626  0.00  0.00    +0.057 C 
ATOM      7  C   UNL     1     -38.152  22.861   2.313  0.00  0.00    +0.034 C 
ATOM      8  C   UNL     1     -37.991  21.589   1.749  0.00  0.00    +0.125 C 
ATOM      9  C   UNL     1     -35.289  23.410   4.540  0.00  0.00    +0.026 C 
ATOM     10  CA  UNL     1     -35.982  24.591   4.695  0.00  0.00    +0.125 C 
ATOM     11  C   UNL     1     -35.792  21.301   3.085  0.00  0.00    +0.237 C 
ATOM     12  C   UNL     1     -36.813  20.752   2.102  0.00  0.00    +0.252 C 
ATOM     13  C   UNL     1     -39.277  23.589   1.939  0.00  0.00    +0.004 C 
ATOM     14  C   UNL     1     -40.183  23.039   1.035  0.00  0.00    +0.021 C 
ATOM     15  C   UNL     1     -39.926  21.770   0.537  0.00  0.00    +0.099 C 
ATOM     16  H   UNL     1     -37.780  25.249   3.828  0.00  0.00    +0.152 HD
ENDROOT
BRANCH  10  18
ATOM     17  OXT UNL     1     -34.556  25.940   6.070  0.00  0.00    -0.244 OA
ATOM     18  C   UNL     1     -35.646  25.712   5.515  0.00  0.00    +0.352 C 
BRANCH  18  19
ATOM     19  O   UNL     1     -36.684  26.596   5.666  0.00  0.00    -0.476 OA
ATOM     20  H   UNL     1     -37.508  26.426   5.251  0.00  0.00    +0.295 HD
ENDBRANCH  18  19
ENDBRANCH  10  18
TORSDOF 2
ENDMDL
MODEL 5
REMARK VINA RESULT:      -5.9      3.185      5.796
REMARK  Name = 196330
REMARK  2 active torsions:
REMARK  status: ('A' for Active; 'I' for Inactive)
REMARK    1  A    between atoms: CA_10  and  C_18
REMARK    2  A    between atoms: C_18  and  O_19
REMARK                            x       y       z     vdW  Elec       q    Type
REMARK                         _______ _______ _______ _____ _____    ______ ____
ROOT
ATOM      1  O   UNL     1     -33.697  27.109   4.881  0.00  0.00    -0.283 OA
ATOM      2  O   UNL     1     -34.918  28.667   3.062  0.00  0.00    -0.282 OA
ATOM      3  N   UNL     1     -36.408  23.536   3.969  0.00  0.00    -0.307 N 
ATOM      4  N   UNL     1     -36.989  27.810   1.524  0.00  0.00    -0.240 NA
ATOM      5  C   UNL     1     -36.162  24.837   3.616  0.00  0.00    +0.053 C 
ATOM      6  C   UNL     1     -35.109  25.286   4.391  0.00  0.00    +0.057 C 
ATOM      7  C   UNL     1     -36.854  25.637   2.617  0.00  0.00    +0.034 C 
ATOM      8  C   UNL     1     -36.436  26.958   2.416  0.00  0.00    +0.125 C 
ATOM      9  C   UNL     1     -34.708  24.226   5.236  0.00  0.00    +0.026 C 
ATOM     10  CA  UNL     1     -35.528  23.156   4.953  0.00  0.00    +0.125 C 
ATOM     11  C   UNL     1     -34.624  26.638   4.237  0.00  0.00    +0.237 C 
ATOM     12  C   UNL     1     -35.311  27.521   3.208  0.00  0.00    +0.252 C 
ATOM     13  C   UNL     1     -37.913  25.175   1.840  0.00  0.00    +0.004 C 
ATOM     14  C   UNL     1     -38.506  26.027   0.911  0.00  0.00    +0.021 C 
ATOM     15  C   UNL     1     -38.013  27.318   0.793  0.00  0.00    +0.099 C 
ATOM     16  H   UNL     1     -37.106  22.963   3.578  0.00  0.00    +0.152 HD
ENDROOT
BRANCH  10  18
ATOM     17  OXT UNL     1     -34.925  20.842   5.128  0.00  0.00    -0.244 OA
ATOM     18  C   UNL     1     -35.518  21.854   5.544  0.00  0.00    +0.352 C 
BRANCH  18  19
ATOM     19  O   UNL     1     -36.262  21.782   6.694  0.00  0.00    -0.476 OA
ATOM     20  H   UNL     1     -36.458  20.948   7.075  0.00  0.00    +0.295 HD
ENDBRANCH  18  19
ENDBRANCH  10  18
TORSDOF 2
ENDMDL
MODEL 6
REMARK VINA RESULT:      -5.8      3.873      5.577
REMARK  Name = 196330
REMARK  2 active torsions:
REMARK  status: ('A' for Active; 'I' for Inactive)
REMARK    1  A    between atoms: CA_10  and  C_18
REMARK    2  A    between atoms: C_18  and  O_19
REMARK                            x       y       z     vdW  Elec       q    Type
REMARK                         _______ _______ _______ _____ _____    ______ ____
ROOT
ATOM      1  O   UNL     1     -34.870  25.998   1.362  0.00  0.00    -0.283 OA
ATOM      2  O   UNL     1     -33.567  28.273   1.959  0.00  0.00    -0.282 OA
ATOM      3  N   UNL     1     -34.414  24.358   5.610  0.00  0.00    -0.307 N 
ATOM      4  N   UNL     1     -32.571  28.807   4.431  0.00  0.00    -0.240 NA
ATOM      5  C   UNL     1     -34.117  25.438   4.819  0.00  0.00    +0.053 C 
ATOM      6  C   UNL     1     -34.619  25.179   3.558  0.00  0.00    +0.057 C 
ATOM      7  C   UNL     1     -33.408  26.651   5.195  0.00  0.00    +0.034 C 
ATOM      8  C   UNL     1     -33.211  27.636   4.219  0.00  0.00    +0.125 C 
ATOM      9  C   UNL     1     -35.236  23.908   3.587  0.00  0.00    +0.026 C 
ATOM     10  CA  UNL     1     -35.094  23.423   4.869  0.00  0.00    +0.125 C 
ATOM     11  C   UNL     1     -34.454  26.150   2.502  0.00  0.00    +0.237 C 
ATOM     12  C   UNL     1     -33.719  27.438   2.836  0.00  0.00    +0.252 C 
ATOM     13  C   UNL     1     -32.907  26.902   6.469  0.00  0.00    +0.004 C 
ATOM     14  C   UNL     1     -32.242  28.100   6.722  0.00  0.00    +0.021 C 
ATOM     15  C   UNL     1     -32.102  29.008   5.682  0.00  0.00    +0.099 C 
ATOM     16  H   UNL     1     -34.176  24.267   6.561  0.00  0.00    +0.152 HD
ENDROOT
BRANCH  10  18
ATOM     17  OXT UNL     1     -36.026  21.965   6.529  0.00  0.00    -0.244 OA
ATOM     18  C   UNL     1     -35.552  22.176   5.398  0.00  0.00    +0.352 C 
BRANCH  18  19
ATOM     19  O   UNL     1     -35.426  21.139   4.508  0.00  0.00    -0.476 OA
ATOM     20  H   UNL     1     -34.783  21.182   3.827  0.00  0.00    +0.295 HD
ENDBRANCH  18  19
ENDBRANCH  10  18
TORSDOF 2
ENDMDL
MODEL 7
REMARK VINA RESULT:      -5.8      2.345      5.182
REMARK  Name = 196330
REMARK  2 active torsions:
REMARK  status: ('A' for Active; 'I' for Inactive)
REMARK    1  A    between atoms: CA_10  and  C_18
REMARK    2  A    between atoms: C_18  and  O_19
REMARK                            x       y       z     vdW  Elec       q    Type
REMARK                         _______ _______ _______ _____ _____    ______ ____
ROOT
ATOM      1  O   UNL     1     -37.801  21.575   2.262  0.00  0.00    -0.283 OA
ATOM      2  O   UNL     1     -40.187  21.751   1.036  0.00  0.00    -0.282 OA
ATOM      3  N   UNL     1     -37.970  25.916   3.702  0.00  0.00    -0.307 N 
ATOM      4  N   UNL     1     -41.689  24.016   1.032  0.00  0.00    -0.240 NA
ATOM      5  C   UNL     1     -38.669  24.974   2.994  0.00  0.00    +0.053 C 
ATOM      6  C   UNL     1     -37.915  23.815   2.989  0.00  0.00    +0.057 C 
ATOM      7  C   UNL     1     -39.964  25.121   2.350  0.00  0.00    +0.034 C 
ATOM      8  C   UNL     1     -40.500  24.019   1.671  0.00  0.00    +0.125 C 
ATOM      9  C   UNL     1     -36.728  24.064   3.714  0.00  0.00    +0.026 C 
ATOM     10  CA  UNL     1     -36.789  25.372   4.144  0.00  0.00    +0.125 C 
ATOM     11  C   UNL     1     -38.404  22.638   2.310  0.00  0.00    +0.237 C 
ATOM     12  C   UNL     1     -39.754  22.733   1.617  0.00  0.00    +0.252 C 
ATOM     13  C   UNL     1     -40.716  26.292   2.361  0.00  0.00    +0.004 C 
ATOM     14  C   UNL     1     -41.948  26.325   1.711  0.00  0.00    +0.021 C 
ATOM     15  C   UNL     1     -42.384  25.175   1.070  0.00  0.00    +0.099 C 
ATOM     16  H   UNL     1     -38.268  26.839   3.869  0.00  0.00    +0.152 HD
ENDROOT
BRANCH  10  18
ATOM     17  OXT UNL     1     -35.224  25.699   5.931  0.00  0.00    -0.244 OA
ATOM     18  C   UNL     1     -35.826  26.094   4.917  0.00  0.00    +0.352 C 
BRANCH  18  19
ATOM     19  O   UNL     1     -35.586  27.354   4.430  0.00  0.00    -0.476 OA
ATOM     20  H   UNL     1     -35.950  27.616   3.606  0.00  0.00    +0.295 HD
ENDBRANCH  18  19
ENDBRANCH  10  18
TORSDOF 2
ENDMDL
MODEL 8
REMARK VINA RESULT:      -5.7      2.912      4.904
REMARK  Name = 196330
REMARK  2 active torsions:
REMARK  status: ('A' for Active; 'I' for Inactive)
REMARK    1  A    between atoms: CA_10  and  C_18
REMARK    2  A    between atoms: C_18  and  O_19
REMARK                            x       y       z     vdW  Elec       q    Type
REMARK                         _______ _______ _______ _____ _____    ______ ____
ROOT
ATOM      1  O   UNL     1     -39.981  23.046   2.243  0.00  0.00    -0.283 OA
ATOM      2  O   UNL     1     -39.449  20.828   0.820  0.00  0.00    -0.282 OA
ATOM      3  N   UNL     1     -35.646  23.448   3.655  0.00  0.00    -0.307 N 
ATOM      4  N   UNL     1     -36.974  19.715   0.675  0.00  0.00    -0.240 NA
ATOM      5  C   UNL     1     -36.477  22.671   2.891  0.00  0.00    +0.053 C 
ATOM      6  C   UNL     1     -37.741  23.227   2.956  0.00  0.00    +0.057 C 
ATOM      7  C   UNL     1     -36.136  21.476   2.135  0.00  0.00    +0.034 C 
ATOM      8  C   UNL     1     -37.150  20.830   1.417  0.00  0.00    +0.125 C 
ATOM      9  C   UNL     1     -37.671  24.371   3.782  0.00  0.00    +0.026 C 
ATOM     10  CA  UNL     1     -36.363  24.484   4.201  0.00  0.00    +0.125 C 
ATOM     11  C   UNL     1     -38.836  22.615   2.240  0.00  0.00    +0.237 C 
ATOM     12  C   UNL     1     -38.539  21.362   1.433  0.00  0.00    +0.252 C 
ATOM     13  C   UNL     1     -34.859  20.925   2.075  0.00  0.00    +0.004 C 
ATOM     14  C   UNL     1     -34.641  19.775   1.320  0.00  0.00    +0.021 C 
ATOM     15  C   UNL     1     -35.718  19.216   0.647  0.00  0.00    +0.099 C 
ATOM     16  H   UNL     1     -34.684  23.289   3.792  0.00  0.00    +0.152 HD
ENDROOT
BRANCH  10  18
ATOM     17  OXT UNL     1     -34.672  25.455   5.596  0.00  0.00    -0.244 OA
ATOM     18  C   UNL     1     -35.791  25.480   5.053  0.00  0.00    +0.352 C 
BRANCH  18  19
ATOM     19  O   UNL     1     -36.620  26.555   5.251  0.00  0.00    -0.476 OA
ATOM     20  H   UNL     1     -36.271  27.425   5.239  0.00  0.00    +0.295 HD
ENDBRANCH  18  19
ENDBRANCH  10  18
TORSDOF 2
ENDMDL
MODEL 9
REMARK VINA RESULT:      -5.6      3.024      5.501
REMARK  Name = 196330
REMARK  2 active torsions:
REMARK  status: ('A' for Active; 'I' for Inactive)
REMARK    1  A    between atoms: CA_10  and  C_18
REMARK    2  A    between atoms: C_18  and  O_19
REMARK                            x       y       z     vdW  Elec       q    Type
REMARK                         _______ _______ _______ _____ _____    ______ ____
ROOT
ATOM      1  O   UNL     1     -37.893  23.973   0.768  0.00  0.00    -0.283 OA
ATOM      2  O   UNL     1     -37.300  25.189   3.091  0.00  0.00    -0.282 OA
ATOM      3  N   UNL     1     -35.991  20.027   2.091  0.00  0.00    -0.307 N 
ATOM      4  N   UNL     1     -36.005  23.943   5.130  0.00  0.00    -0.240 NA
ATOM      5  C   UNL     1     -36.245  21.308   2.505  0.00  0.00    +0.053 C 
ATOM      6  C   UNL     1     -36.905  21.954   1.476  0.00  0.00    +0.057 C 
ATOM      7  C   UNL     1     -35.903  21.918   3.780  0.00  0.00    +0.034 C 
ATOM      8  C   UNL     1     -36.260  23.255   3.996  0.00  0.00    +0.125 C 
ATOM      9  C   UNL     1     -37.053  21.036   0.411  0.00  0.00    +0.026 C 
ATOM     10  CA  UNL     1     -36.479  19.852   0.819  0.00  0.00    +0.125 C 
ATOM     11  C   UNL     1     -37.305  23.333   1.628  0.00  0.00    +0.237 C 
ATOM     12  C   UNL     1     -36.973  24.023   2.941  0.00  0.00    +0.252 C 
ATOM     13  C   UNL     1     -35.239  21.259   4.811  0.00  0.00    +0.004 C 
ATOM     14  C   UNL     1     -34.960  21.938   5.995  0.00  0.00    +0.021 C 
ATOM     15  C   UNL     1     -35.360  23.263   6.102  0.00  0.00    +0.099 C 
ATOM     16  H   UNL     1     -35.531  19.338   2.622  0.00  0.00    +0.152 HD
ENDROOT
BRANCH  10  18
ATOM     17  OXT UNL     1     -35.680  18.398  -0.912  0.00  0.00    -0.244 OA
ATOM     18  C   UNL     1     -36.376  18.624   0.094  0.00  0.00    +0.352 C 
BRANCH  18  19
ATOM     19  O   UNL     1     -37.156  17.625   0.620  0.00  0.00    -0.476 OA
ATOM     20  H   UNL     1     -37.334  17.606   1.541  0.00  0.00    +0.295 HD
ENDBRANCH  18  19
ENDBRANCH  10  18
TORSDOF 2
ENDMDL
