MODEL 1
REMARK VINA RESULT:      -7.6      0.000      0.000
REMARK  Name = 5487358
REMARK  5 active torsions:
REMARK  status: ('A' for Active; 'I' for Inactive)
REMARK    1  A    between atoms: C_10  and  S_23
REMARK    2  A    between atoms: C_18  and  O_21
REMARK    3  A    between atoms: S_23  and  S_24
REMARK    4  A    between atoms: S_24  and  C_26
REMARK    5  A    between atoms: C_30  and  N_33
REMARK                            x       y       z     vdW  Elec       q    Type
REMARK                         _______ _______ _______ _____ _____    ______ ____
ROOT
ATOM      1  O   UNL     1     -36.116  21.188   2.995  0.00  0.00    -0.475 OA
ATOM      2  N   UNL     1     -34.849  25.930   1.470  0.00  0.00    +0.387 N 
ATOM      3  C   UNL     1     -36.081  23.387   2.065  0.00  0.00    +0.055 C 
ATOM      4  C   UNL     1     -36.847  24.585   1.527  0.00  0.00    -0.011 C 
ATOM      5  C   UNL     1     -36.930  22.126   2.249  0.00  0.00    +0.180 C 
ATOM      6  C   UNL     1     -36.176  25.839   2.147  0.00  0.00    -0.053 C 
ATOM      7  C   UNL     1     -34.723  23.388   1.335  0.00  0.00    -0.015 C 
ATOM      8  C   UNL     1     -35.766  23.398   3.518  0.00  0.00    +0.013 C 
ATOM      9  C   UNL     1     -38.355  24.344   1.592  0.00  0.00    -0.001 C 
ATOM     10  C   UNL     1     -37.807  21.785   1.061  0.00  0.00    +0.098 C 
ATOM     11  C   UNL     1     -36.104  25.824   3.718  0.00  0.00    +0.005 C 
ATOM     12  C   UNL     1     -38.711  23.043   0.777  0.00  0.00    +0.015 C 
ATOM     13  C   UNL     1     -33.988  24.736   1.578  0.00  0.00    -0.077 C 
ATOM     14  C   UNL     1     -35.695  24.509   4.321  0.00  0.00    -0.025 C 
ATOM     15  C   UNL     1     -35.666  22.083   3.975  0.00  0.00    +0.168 C 
ATOM     16  C   UNL     1     -34.114  27.151   1.779  0.00  0.00    -0.101 C 
ATOM     17  C   UNL     1     -35.366  24.272   5.653  0.00  0.00    -0.001 C 
ATOM     18  C   UNL     1     -35.324  21.827   5.278  0.00  0.00    +0.167 C 
ATOM     19  C   UNL     1     -35.156  22.945   6.116  0.00  0.00    +0.039 C 
ATOM     20  H   UNL     1     -35.113  25.972   0.486  0.00  0.00    -0.080 HD
ENDROOT
BRANCH  18  21
ATOM     21  O   UNL     1     -35.216  20.567   5.760  0.00  0.00    -0.503 OA
ATOM     22  H   UNL     1     -35.101  19.849   5.170  0.00  0.00    +0.292 HD
ENDBRANCH  18  21
BRANCH  10  23
ATOM     23  S   UNL     1     -36.868  21.250  -0.403  0.00  0.00    -0.073 S 
BRANCH  23  24
ATOM     24  S   UNL     1     -37.197  19.221  -0.381  0.00  0.00    -0.036 S 
BRANCH  24  26
ATOM     25  N   UNL     1     -35.304  17.331  -0.425  0.00  0.00    -0.235 NA
ATOM     26  C   UNL     1     -35.571  18.589  -0.010  0.00  0.00    +0.117 C 
ATOM     27  C   UNL     1     -34.669  19.390   0.672  0.00  0.00    +0.028 C 
ATOM     28  C   UNL     1     -33.410  18.865   0.945  0.00  0.00    +0.028 C 
ATOM     29  C   UNL     1     -34.070  16.855  -0.142  0.00  0.00    +0.123 C 
ATOM     30  C   UNL     1     -33.097  17.573   0.534  0.00  0.00    +0.162 C 
BRANCH  30  33
ATOM     31  O   UNL     1     -30.994  17.669   1.473  0.00  0.00    -0.126 OA
ATOM     32  O   UNL     1     -31.555  15.869   0.348  0.00  0.00    -0.126 OA
ATOM     33  N   UNL     1     -31.823  17.012   0.797  0.00  0.00    +0.059 N 
ENDBRANCH  30  33
ENDBRANCH  24  26
ENDBRANCH  23  24
ENDBRANCH  10  23
TORSDOF 5
ENDMDL
MODEL 2
REMARK VINA RESULT:      -7.1      2.339      2.765
REMARK  Name = 5487358
REMARK  5 active torsions:
REMARK  status: ('A' for Active; 'I' for Inactive)
REMARK    1  A    between atoms: C_10  and  S_23
REMARK    2  A    between atoms: C_18  and  O_21
REMARK    3  A    between atoms: S_23  and  S_24
REMARK    4  A    between atoms: S_24  and  C_26
REMARK    5  A    between atoms: C_30  and  N_33
REMARK                            x       y       z     vdW  Elec       q    Type
REMARK                         _______ _______ _______ _____ _____    ______ ____
ROOT
ATOM      1  O   UNL     1     -36.577  21.517   2.978  0.00  0.00    -0.475 OA
ATOM      2  N   UNL     1     -35.909  26.502   1.923  0.00  0.00    +0.387 N 
ATOM      3  C   UNL     1     -36.857  23.816   2.399  0.00  0.00    +0.055 C 
ATOM      4  C   UNL     1     -37.778  25.013   2.228  0.00  0.00    -0.011 C 
ATOM      5  C   UNL     1     -37.583  22.481   2.581  0.00  0.00    +0.180 C 
ATOM      6  C   UNL     1     -37.037  26.221   2.859  0.00  0.00    -0.053 C 
ATOM      7  C   UNL     1     -35.707  24.018   1.391  0.00  0.00    -0.015 C 
ATOM      8  C   UNL     1     -36.212  23.658   3.730  0.00  0.00    +0.013 C 
ATOM      9  C   UNL     1     -39.218  24.650   2.593  0.00  0.00    -0.001 C 
ATOM     10  C   UNL     1     -38.696  22.234   1.582  0.00  0.00    +0.098 C 
ATOM     11  C   UNL     1     -36.601  26.003   4.355  0.00  0.00    +0.005 C 
ATOM     12  C   UNL     1     -39.696  23.446   1.697  0.00  0.00    +0.015 C 
ATOM     13  C   UNL     1     -34.995  25.375   1.658  0.00  0.00    -0.077 C 
ATOM     14  C   UNL     1     -36.005  24.654   4.650  0.00  0.00    -0.025 C 
ATOM     15  C   UNL     1     -35.951  22.305   3.953  0.00  0.00    +0.168 C 
ATOM     16  C   UNL     1     -35.178  27.724   2.235  0.00  0.00    -0.101 C 
ATOM     17  C   UNL     1     -35.365  24.268   5.825  0.00  0.00    -0.001 C 
ATOM     18  C   UNL     1     -35.304  21.905   5.094  0.00  0.00    +0.167 C 
ATOM     19  C   UNL     1     -34.995  22.912   6.029  0.00  0.00    +0.039 C 
ATOM     20  H   UNL     1     -36.397  26.655   1.040  0.00  0.00    -0.080 HD
ENDROOT
BRANCH  18  21
ATOM     21  O   UNL     1     -35.032  20.604   5.349  0.00  0.00    -0.503 OA
ATOM     22  H   UNL     1     -35.699  20.046   5.695  0.00  0.00    +0.292 HD
ENDBRANCH  18  21
BRANCH  10  23
ATOM     23  S   UNL     1     -38.102  21.973  -0.117  0.00  0.00    -0.073 S 
BRANCH  23  24
ATOM     24  S   UNL     1     -39.563  20.743  -0.876  0.00  0.00    -0.036 S 
BRANCH  24  26
ATOM     25  N   UNL     1     -39.532  18.082  -1.160  0.00  0.00    -0.235 NA
ATOM     26  C   UNL     1     -38.786  19.141  -0.772  0.00  0.00    +0.117 C 
ATOM     27  C   UNL     1     -37.484  19.045  -0.308  0.00  0.00    +0.028 C 
ATOM     28  C   UNL     1     -36.910  17.780  -0.239  0.00  0.00    +0.028 C 
ATOM     29  C   UNL     1     -38.940  16.869  -1.079  0.00  0.00    +0.123 C 
ATOM     30  C   UNL     1     -37.645  16.666  -0.630  0.00  0.00    +0.162 C 
BRANCH  30  33
ATOM     31  O   UNL     1     -36.019  15.187   0.066  0.00  0.00    -0.126 OA
ATOM     32  O   UNL     1     -37.674  14.421  -1.157  0.00  0.00    -0.126 OA
ATOM     33  N   UNL     1     -37.087  15.365  -0.571  0.00  0.00    +0.059 N 
ENDBRANCH  30  33
ENDBRANCH  24  26
ENDBRANCH  23  24
ENDBRANCH  10  23
TORSDOF 5
ENDMDL
MODEL 3
REMARK VINA RESULT:      -7.1      4.044      6.941
REMARK  Name = 5487358
REMARK  5 active torsions:
REMARK  status: ('A' for Active; 'I' for Inactive)
REMARK    1  A    between atoms: C_10  and  S_23
REMARK    2  A    between atoms: C_18  and  O_21
REMARK    3  A    between atoms: S_23  and  S_24
REMARK    4  A    between atoms: S_24  and  C_26
REMARK    5  A    between atoms: C_30  and  N_33
REMARK                            x       y       z     vdW  Elec       q    Type
REMARK                         _______ _______ _______ _____ _____    ______ ____
ROOT
ATOM      1  O   UNL     1     -36.044  22.660   1.718  0.00  0.00    -0.475 OA
ATOM      2  N   UNL     1     -34.143  26.640   4.355  0.00  0.00    +0.387 N 
ATOM      3  C   UNL     1     -35.690  24.752   2.812  0.00  0.00    +0.055 C 
ATOM      4  C   UNL     1     -36.271  26.025   3.408  0.00  0.00    -0.011 C 
ATOM      5  C   UNL     1     -36.683  23.934   1.983  0.00  0.00    +0.180 C 
ATOM      6  C   UNL     1     -35.528  26.250   4.751  0.00  0.00    -0.053 C 
ATOM      7  C   UNL     1     -34.280  25.123   2.312  0.00  0.00    -0.015 C 
ATOM      8  C   UNL     1     -35.508  23.606   3.742  0.00  0.00    +0.013 C 
ATOM      9  C   UNL     1     -37.796  26.031   3.302  0.00  0.00    -0.001 C 
ATOM     10  C   UNL     1     -37.480  24.747   0.982  0.00  0.00    +0.098 C 
ATOM     11  C   UNL     1     -35.600  25.031   5.743  0.00  0.00    +0.005 C 
ATOM     12  C   UNL     1     -38.214  25.881   1.790  0.00  0.00    +0.015 C 
ATOM     13  C   UNL     1     -33.428  25.686   3.485  0.00  0.00    -0.077 C 
ATOM     14  C   UNL     1     -35.391  23.684   5.107  0.00  0.00    -0.025 C 
ATOM     15  C   UNL     1     -35.592  22.414   3.021  0.00  0.00    +0.168 C 
ATOM     16  C   UNL     1     -33.313  27.074   5.472  0.00  0.00    -0.101 C 
ATOM     17  C   UNL     1     -35.211  22.472   5.769  0.00  0.00    -0.001 C 
ATOM     18  C   UNL     1     -35.398  21.210   3.649  0.00  0.00    +0.167 C 
ATOM     19  C   UNL     1     -35.187  21.253   5.040  0.00  0.00    +0.039 C 
ATOM     20  H   UNL     1     -34.311  27.455   3.764  0.00  0.00    -0.080 HD
ENDROOT
BRANCH  18  21
ATOM     21  O   UNL     1     -35.470  20.033   2.986  0.00  0.00    -0.503 OA
ATOM     22  H   UNL     1     -35.927  19.982   2.170  0.00  0.00    +0.292 HD
ENDBRANCH  18  21
BRANCH  10  23
ATOM     23  S   UNL     1     -36.476  25.397  -0.388  0.00  0.00    -0.073 S 
BRANCH  23  24
ATOM     24  S   UNL     1     -37.137  27.341  -0.492  0.00  0.00    -0.036 S 
BRANCH  24  26
ATOM     25  N   UNL     1     -36.462  29.011   1.487  0.00  0.00    -0.235 NA
ATOM     26  C   UNL     1     -35.955  28.187   0.542  0.00  0.00    +0.117 C 
ATOM     27  C   UNL     1     -34.601  27.976   0.341  0.00  0.00    +0.028 C 
ATOM     28  C   UNL     1     -33.708  28.652   1.164  0.00  0.00    +0.028 C 
ATOM     29  C   UNL     1     -35.562  29.650   2.269  0.00  0.00    +0.123 C 
ATOM     30  C   UNL     1     -34.189  29.508   2.149  0.00  0.00    +0.162 C 
BRANCH  30  33
ATOM     31  O   UNL     1     -32.128  30.428   2.619  0.00  0.00    -0.126 OA
ATOM     32  O   UNL     1     -33.717  30.600   4.125  0.00  0.00    -0.126 OA
ATOM     33  N   UNL     1     -33.304  30.211   3.004  0.00  0.00    +0.059 N 
ENDBRANCH  30  33
ENDBRANCH  24  26
ENDBRANCH  23  24
ENDBRANCH  10  23
TORSDOF 5
ENDMDL
MODEL 4
REMARK VINA RESULT:      -7.0      4.954      8.626
REMARK  Name = 5487358
REMARK  5 active torsions:
REMARK  status: ('A' for Active; 'I' for Inactive)
REMARK    1  A    between atoms: C_10  and  S_23
REMARK    2  A    between atoms: C_18  and  O_21
REMARK    3  A    between atoms: S_23  and  S_24
REMARK    4  A    between atoms: S_24  and  C_26
REMARK    5  A    between atoms: C_30  and  N_33
REMARK                            x       y       z     vdW  Elec       q    Type
REMARK                         _______ _______ _______ _____ _____    ______ ____
ROOT
ATOM      1  O   UNL     1     -37.257  25.768   4.014  0.00  0.00    -0.475 OA
ATOM      2  N   UNL     1     -35.384  22.029   1.028  0.00  0.00    +0.387 N 
ATOM      3  C   UNL     1     -36.160  23.836   3.143  0.00  0.00    +0.055 C 
ATOM      4  C   UNL     1     -35.521  22.478   3.390  0.00  0.00    -0.011 C 
ATOM      5  C   UNL     1     -36.431  24.646   4.412  0.00  0.00    +0.180 C 
ATOM      6  C   UNL     1     -36.049  21.542   2.272  0.00  0.00    -0.053 C 
ATOM      7  C   UNL     1     -35.448  24.420   1.906  0.00  0.00    -0.015 C 
ATOM      8  C   UNL     1     -37.611  23.837   2.820  0.00  0.00    +0.013 C 
ATOM      9  C   UNL     1     -35.587  22.106   4.872  0.00  0.00    -0.001 C 
ATOM     10  C   UNL     1     -35.262  24.708   5.376  0.00  0.00    +0.098 C 
ATOM     11  C   UNL     1     -37.618  21.464   2.181  0.00  0.00    +0.005 C 
ATOM     12  C   UNL     1     -34.871  23.223   5.723  0.00  0.00    +0.015 C 
ATOM     13  C   UNL     1     -35.594  23.452   0.699  0.00  0.00    -0.077 C 
ATOM     14  C   UNL     1     -38.326  22.785   2.306  0.00  0.00    -0.025 C 
ATOM     15  C   UNL     1     -38.170  25.049   3.232  0.00  0.00    +0.168 C 
ATOM     16  C   UNL     1     -35.605  21.172  -0.130  0.00  0.00    -0.101 C 
ATOM     17  C   UNL     1     -39.677  23.029   2.069  0.00  0.00    -0.001 C 
ATOM     18  C   UNL     1     -39.493  25.318   2.992  0.00  0.00    +0.167 C 
ATOM     19  C   UNL     1     -40.243  24.293   2.384  0.00  0.00    +0.039 C 
ATOM     20  H   UNL     1     -34.396  21.962   1.274  0.00  0.00    -0.080 HD
ENDROOT
BRANCH  18  21
ATOM     21  O   UNL     1     -40.072  26.479   3.374  0.00  0.00    -0.503 OA
ATOM     22  H   UNL     1     -40.926  26.472   3.759  0.00  0.00    +0.292 HD
ENDBRANCH  18  21
BRANCH  10  23
ATOM     23  S   UNL     1     -33.856  25.676   4.749  0.00  0.00    -0.073 S 
BRANCH  23  24
ATOM     24  S   UNL     1     -33.219  26.625   6.457  0.00  0.00    -0.036 S 
BRANCH  24  26
ATOM     25  N   UNL     1     -32.842  28.425   4.514  0.00  0.00    -0.235 NA
ATOM     26  C   UNL     1     -32.563  28.151   5.808  0.00  0.00    +0.117 C 
ATOM     27  C   UNL     1     -31.811  28.974   6.632  0.00  0.00    +0.028 C 
ATOM     28  C   UNL     1     -31.315  30.156   6.092  0.00  0.00    +0.028 C 
ATOM     29  C   UNL     1     -32.342  29.583   4.025  0.00  0.00    +0.123 C 
ATOM     30  C   UNL     1     -31.580  30.473   4.764  0.00  0.00    +0.162 C 
BRANCH  30  33
ATOM     31  O   UNL     1     -31.812  32.299   3.376  0.00  0.00    -0.126 OA
ATOM     32  O   UNL     1     -29.940  32.073   4.502  0.00  0.00    -0.126 OA
ATOM     33  N   UNL     1     -31.088  31.671   4.187  0.00  0.00    +0.059 N 
ENDBRANCH  30  33
ENDBRANCH  24  26
ENDBRANCH  23  24
ENDBRANCH  10  23
TORSDOF 5
ENDMDL
MODEL 5
REMARK VINA RESULT:      -7.0      1.790      2.243
REMARK  Name = 5487358
REMARK  5 active torsions:
REMARK  status: ('A' for Active; 'I' for Inactive)
REMARK    1  A    between atoms: C_10  and  S_23
REMARK    2  A    between atoms: C_18  and  O_21
REMARK    3  A    between atoms: S_23  and  S_24
REMARK    4  A    between atoms: S_24  and  C_26
REMARK    5  A    between atoms: C_30  and  N_33
REMARK                            x       y       z     vdW  Elec       q    Type
REMARK                         _______ _______ _______ _____ _____    ______ ____
ROOT
ATOM      1  O   UNL     1     -35.913  22.602   2.120  0.00  0.00    -0.475 OA
ATOM      2  N   UNL     1     -33.692  27.119   3.157  0.00  0.00    +0.387 N 
ATOM      3  C   UNL     1     -35.383  24.917   2.362  0.00  0.00    +0.055 C 
ATOM      4  C   UNL     1     -35.852  26.363   2.406  0.00  0.00    -0.011 C 
ATOM      5  C   UNL     1     -36.434  23.927   1.853  0.00  0.00    +0.180 C 
ATOM      6  C   UNL     1     -35.113  27.020   3.600  0.00  0.00    -0.053 C 
ATOM      7  C   UNL     1     -33.936  24.956   1.831  0.00  0.00    -0.015 C 
ATOM      8  C   UNL     1     -35.324  24.199   3.663  0.00  0.00    +0.013 C 
ATOM      9  C   UNL     1     -37.369  26.450   2.228  0.00  0.00    -0.001 C 
ATOM     10  C   UNL     1     -37.136  24.361   0.582  0.00  0.00    +0.098 C 
ATOM     11  C   UNL     1     -35.315  26.279   4.973  0.00  0.00    +0.005 C 
ATOM     12  C   UNL     1     -37.774  25.772   0.865  0.00  0.00    +0.015 C 
ATOM     13  C   UNL     1     -33.055  25.852   2.747  0.00  0.00    -0.077 C 
ATOM     14  C   UNL     1     -35.222  24.779   4.903  0.00  0.00    -0.025 C 
ATOM     15  C   UNL     1     -35.506  22.833   3.440  0.00  0.00    +0.168 C 
ATOM     16  C   UNL     1     -32.843  27.876   4.068  0.00  0.00    -0.101 C 
ATOM     17  C   UNL     1     -35.166  23.898   5.980  0.00  0.00    -0.001 C 
ATOM     18  C   UNL     1     -35.436  21.946   4.484  0.00  0.00    +0.167 C 
ATOM     19  C   UNL     1     -35.244  22.497   5.766  0.00  0.00    +0.039 C 
ATOM     20  H   UNL     1     -33.774  27.659   2.295  0.00  0.00    -0.080 HD
ENDROOT
BRANCH  18  21
ATOM     21  O   UNL     1     -35.607  20.615   4.311  0.00  0.00    -0.503 OA
ATOM     22  H   UNL     1     -34.876  20.076   4.083  0.00  0.00    +0.292 HD
ENDBRANCH  18  21
BRANCH  10  23
ATOM     23  S   UNL     1     -36.054  24.361  -0.880  0.00  0.00    -0.073 S 
BRANCH  23  24
ATOM     24  S   UNL     1     -36.447  22.508  -1.679  0.00  0.00    -0.036 S 
BRANCH  24  26
ATOM     25  N   UNL     1     -35.532  20.247  -0.577  0.00  0.00    -0.235 NA
ATOM     26  C   UNL     1     -35.179  21.505  -0.924  0.00  0.00    +0.117 C 
ATOM     27  C   UNL     1     -33.917  22.040  -0.725  0.00  0.00    +0.028 C 
ATOM     28  C   UNL     1     -32.953  21.231  -0.133  0.00  0.00    +0.028 C 
ATOM     29  C   UNL     1     -34.569  19.490  -0.005  0.00  0.00    +0.123 C 
ATOM     30  C   UNL     1     -33.277  19.930   0.238  0.00  0.00    +0.162 C 
BRANCH  30  33
ATOM     31  O   UNL     1     -31.105  19.223   0.545  0.00  0.00    -0.126 OA
ATOM     32  O   UNL     1     -32.702  18.210   1.662  0.00  0.00    -0.126 OA
ATOM     33  N   UNL     1     -32.317  19.082   0.842  0.00  0.00    +0.059 N 
ENDBRANCH  30  33
ENDBRANCH  24  26
ENDBRANCH  23  24
ENDBRANCH  10  23
TORSDOF 5
ENDMDL
MODEL 6
REMARK VINA RESULT:      -6.9      2.853      4.272
REMARK  Name = 5487358
REMARK  5 active torsions:
REMARK  status: ('A' for Active; 'I' for Inactive)
REMARK    1  A    between atoms: C_10  and  S_23
REMARK    2  A    between atoms: C_18  and  O_21
REMARK    3  A    between atoms: S_23  and  S_24
REMARK    4  A    between atoms: S_24  and  C_26
REMARK    5  A    between atoms: C_30  and  N_33
REMARK                            x       y       z     vdW  Elec       q    Type
REMARK                         _______ _______ _______ _____ _____    ______ ____
ROOT
ATOM      1  O   UNL     1     -37.427  20.876   1.507  0.00  0.00    -0.475 OA
ATOM      2  N   UNL     1     -34.840  24.075   4.586  0.00  0.00    +0.387 N 
ATOM      3  C   UNL     1     -35.883  22.431   2.453  0.00  0.00    +0.055 C 
ATOM      4  C   UNL     1     -34.813  23.492   2.249  0.00  0.00    -0.011 C 
ATOM      5  C   UNL     1     -36.238  21.642   1.191  0.00  0.00    +0.180 C 
ATOM      6  C   UNL     1     -35.147  24.639   3.239  0.00  0.00    -0.053 C 
ATOM      7  C   UNL     1     -35.562  21.760   3.804  0.00  0.00    -0.015 C 
ATOM      8  C   UNL     1     -37.285  22.915   2.557  0.00  0.00    +0.013 C 
ATOM      9  C   UNL     1     -34.565  23.738   0.760  0.00  0.00    -0.001 C 
ATOM     10  C   UNL     1     -35.040  21.133   0.414  0.00  0.00    +0.098 C 
ATOM     11  C   UNL     1     -36.604  25.215   3.093  0.00  0.00    +0.005 C 
ATOM     12  C   UNL     1     -34.148  22.384   0.070  0.00  0.00    +0.015 C 
ATOM     13  C   UNL     1     -35.540  22.825   4.937  0.00  0.00    -0.077 C 
ATOM     14  C   UNL     1     -37.680  24.179   2.918  0.00  0.00    -0.025 C 
ATOM     15  C   UNL     1     -38.149  21.911   2.116  0.00  0.00    +0.168 C 
ATOM     16  C   UNL     1     -34.916  25.054   5.663  0.00  0.00    -0.101 C 
ATOM     17  C   UNL     1     -39.055  24.393   2.961  0.00  0.00    -0.001 C 
ATOM     18  C   UNL     1     -39.507  22.094   2.168  0.00  0.00    +0.167 C 
ATOM     19  C   UNL     1     -39.956  23.350   2.616  0.00  0.00    +0.039 C 
ATOM     20  H   UNL     1     -33.861  23.806   4.487  0.00  0.00    -0.080 HD
ENDROOT
BRANCH  18  21
ATOM     21  O   UNL     1     -40.378  21.146   1.750  0.00  0.00    -0.503 OA
ATOM     22  H   UNL     1     -41.158  20.979   2.240  0.00  0.00    +0.292 HD
ENDBRANCH  18  21
BRANCH  10  23
ATOM     23  S   UNL     1     -34.115  19.829   1.281  0.00  0.00    -0.073 S 
BRANCH  23  24
ATOM     24  S   UNL     1     -33.742  18.507  -0.249  0.00  0.00    -0.036 S 
BRANCH  24  26
ATOM     25  N   UNL     1     -36.410  18.337  -0.358  0.00  0.00    -0.235 NA
ATOM     26  C   UNL     1     -35.276  17.602  -0.336  0.00  0.00    +0.117 C 
ATOM     27  C   UNL     1     -35.248  16.217  -0.373  0.00  0.00    +0.028 C 
ATOM     28  C   UNL     1     -36.463  15.543  -0.439  0.00  0.00    +0.028 C 
ATOM     29  C   UNL     1     -37.571  17.647  -0.424  0.00  0.00    +0.123 C 
ATOM     30  C   UNL     1     -37.652  16.264  -0.465  0.00  0.00    +0.162 C 
BRANCH  30  33
ATOM     31  O   UNL     1     -39.940  16.283  -0.750  0.00  0.00    -0.126 OA
ATOM     32  O   UNL     1     -38.949  14.360  -0.375  0.00  0.00    -0.126 OA
ATOM     33  N   UNL     1     -38.905  15.606  -0.533  0.00  0.00    +0.059 N 
ENDBRANCH  30  33
ENDBRANCH  24  26
ENDBRANCH  23  24
ENDBRANCH  10  23
TORSDOF 5
ENDMDL
MODEL 7
REMARK VINA RESULT:      -6.8      5.334      8.704
REMARK  Name = 5487358
REMARK  5 active torsions:
REMARK  status: ('A' for Active; 'I' for Inactive)
REMARK    1  A    between atoms: C_10  and  S_23
REMARK    2  A    between atoms: C_18  and  O_21
REMARK    3  A    between atoms: S_23  and  S_24
REMARK    4  A    between atoms: S_24  and  C_26
REMARK    5  A    between atoms: C_30  and  N_33
REMARK                            x       y       z     vdW  Elec       q    Type
REMARK                         _______ _______ _______ _____ _____    ______ ____
ROOT
ATOM      1  O   UNL     1     -36.067  27.039   2.296  0.00  0.00    -0.475 OA
ATOM      2  N   UNL     1     -35.023  22.009   2.173  0.00  0.00    +0.387 N 
ATOM      3  C   UNL     1     -35.459  24.790   2.816  0.00  0.00    +0.055 C 
ATOM      4  C   UNL     1     -35.229  23.712   3.863  0.00  0.00    -0.011 C 
ATOM      5  C   UNL     1     -35.607  26.203   3.386  0.00  0.00    +0.180 C 
ATOM      6  C   UNL     1     -35.894  22.425   3.311  0.00  0.00    -0.053 C 
ATOM      7  C   UNL     1     -34.518  24.450   1.643  0.00  0.00    -0.015 C 
ATOM      8  C   UNL     1     -36.826  24.871   2.236  0.00  0.00    +0.013 C 
ATOM      9  C   UNL     1     -35.513  24.246   5.268  0.00  0.00    -0.001 C 
ATOM     10  C   UNL     1     -34.547  26.581   4.402  0.00  0.00    +0.098 C 
ATOM     11  C   UNL     1     -37.414  22.590   2.939  0.00  0.00    +0.005 C 
ATOM     12  C   UNL     1     -34.597  25.498   5.545  0.00  0.00    +0.015 C 
ATOM     13  C   UNL     1     -34.818  23.018   1.116  0.00  0.00    -0.077 C 
ATOM     14  C   UNL     1     -37.751  23.858   2.203  0.00  0.00    -0.025 C 
ATOM     15  C   UNL     1     -37.072  26.183   1.827  0.00  0.00    +0.168 C 
ATOM     16  C   UNL     1     -35.369  20.708   1.613  0.00  0.00    -0.101 C 
ATOM     17  C   UNL     1     -38.963  24.166   1.590  0.00  0.00    -0.001 C 
ATOM     18  C   UNL     1     -38.251  26.503   1.203  0.00  0.00    +0.167 C 
ATOM     19  C   UNL     1     -39.195  25.468   1.072  0.00  0.00    +0.039 C 
ATOM     20  H   UNL     1     -34.113  21.915   2.623  0.00  0.00    -0.080 HD
ENDROOT
BRANCH  18  21
ATOM     21  O   UNL     1     -38.528  27.762   0.792  0.00  0.00    -0.503 OA
ATOM     22  H   UNL     1     -38.451  27.986  -0.114  0.00  0.00    +0.292 HD
ENDBRANCH  18  21
BRANCH  10  23
ATOM     23  S   UNL     1     -32.887  26.767   3.683  0.00  0.00    -0.073 S 
BRANCH  23  24
ATOM     24  S   UNL     1     -32.585  28.791   3.871  0.00  0.00    -0.036 S 
BRANCH  24  26
ATOM     25  N   UNL     1     -30.165  28.148   4.815  0.00  0.00    -0.235 NA
ATOM     26  C   UNL     1     -31.283  28.858   5.088  0.00  0.00    +0.117 C 
ATOM     27  C   UNL     1     -31.463  29.612   6.237  0.00  0.00    +0.028 C 
ATOM     28  C   UNL     1     -30.427  29.640   7.165  0.00  0.00    +0.028 C 
ATOM     29  C   UNL     1     -29.180  28.201   5.740  0.00  0.00    +0.123 C 
ATOM     30  C   UNL     1     -29.260  28.924   6.919  0.00  0.00    +0.162 C 
BRANCH  30  33
ATOM     31  O   UNL     1     -28.137  29.844   8.710  0.00  0.00    -0.126 OA
ATOM     32  O   UNL     1     -27.316  28.032   7.780  0.00  0.00    -0.126 OA
ATOM     33  N   UNL     1     -28.188  28.934   7.846  0.00  0.00    +0.059 N 
ENDBRANCH  30  33
ENDBRANCH  24  26
ENDBRANCH  23  24
ENDBRANCH  10  23
TORSDOF 5
ENDMDL
MODEL 8
REMARK VINA RESULT:      -6.7      3.031      3.820
REMARK  Name = 5487358
REMARK  5 active torsions:
REMARK  status: ('A' for Active; 'I' for Inactive)
REMARK    1  A    between atoms: C_10  and  S_23
REMARK    2  A    between atoms: C_18  and  O_21
REMARK    3  A    between atoms: S_23  and  S_24
REMARK    4  A    between atoms: S_24  and  C_26
REMARK    5  A    between atoms: C_30  and  N_33
REMARK                            x       y       z     vdW  Elec       q    Type
REMARK                         _______ _______ _______ _____ _____    ______ ____
ROOT
ATOM      1  O   UNL     1     -35.978  21.063   2.984  0.00  0.00    -0.475 OA
ATOM      2  N   UNL     1     -35.646  25.945   1.413  0.00  0.00    +0.387 N 
ATOM      3  C   UNL     1     -36.379  23.228   2.062  0.00  0.00    +0.055 C 
ATOM      4  C   UNL     1     -37.371  24.270   1.568  0.00  0.00    -0.011 C 
ATOM      5  C   UNL     1     -36.982  21.839   2.285  0.00  0.00    +0.180 C 
ATOM      6  C   UNL     1     -36.900  25.626   2.157  0.00  0.00    -0.053 C 
ATOM      7  C   UNL     1     -35.082  23.464   1.262  0.00  0.00    -0.015 C 
ATOM      8  C   UNL     1     -35.997  23.303   3.497  0.00  0.00    +0.013 C 
ATOM      9  C   UNL     1     -38.808  23.767   1.710  0.00  0.00    -0.001 C 
ATOM     10  C   UNL     1     -37.845  21.342   1.142  0.00  0.00    +0.098 C 
ATOM     11  C   UNL     1     -36.746  25.633   3.723  0.00  0.00    +0.005 C 
ATOM     12  C   UNL     1     -38.970  22.419   0.910  0.00  0.00    +0.015 C 
ATOM     13  C   UNL     1     -34.584  24.922   1.472  0.00  0.00    -0.077 C 
ATOM     14  C   UNL     1     -36.081  24.413   4.299  0.00  0.00    -0.025 C 
ATOM     15  C   UNL     1     -35.643  22.028   3.943  0.00  0.00    +0.168 C 
ATOM     16  C   UNL     1     -35.123  27.278   1.688  0.00  0.00    -0.101 C 
ATOM     17  C   UNL     1     -35.647  24.245   5.612  0.00  0.00    -0.001 C 
ATOM     18  C   UNL     1     -35.195  21.844   5.226  0.00  0.00    +0.167 C 
ATOM     19  C   UNL     1     -35.184  22.979   6.058  0.00  0.00    +0.039 C 
ATOM     20  H   UNL     1     -35.964  25.934   0.444  0.00  0.00    -0.080 HD
ENDROOT
BRANCH  18  21
ATOM     21  O   UNL     1     -34.842  20.625   5.697  0.00  0.00    -0.503 OA
ATOM     22  H   UNL     1     -34.906  20.441   6.613  0.00  0.00    +0.292 HD
ENDBRANCH  18  21
BRANCH  10  23
ATOM     23  S   UNL     1     -36.904  20.973  -0.370  0.00  0.00    -0.073 S 
BRANCH  23  24
ATOM     24  S   UNL     1     -36.128  19.122   0.073  0.00  0.00    -0.036 S 
BRANCH  24  26
ATOM     25  N   UNL     1     -38.466  18.594  -1.115  0.00  0.00    -0.235 NA
ATOM     26  C   UNL     1     -37.468  18.040  -0.391  0.00  0.00    +0.117 C 
ATOM     27  C   UNL     1     -37.437  16.711   0.000  0.00  0.00    +0.028 C 
ATOM     28  C   UNL     1     -38.499  15.897  -0.378  0.00  0.00    +0.028 C 
ATOM     29  C   UNL     1     -39.481  17.771  -1.465  0.00  0.00    +0.123 C 
ATOM     30  C   UNL     1     -39.545  16.429  -1.125  0.00  0.00    +0.162 C 
BRANCH  30  33
ATOM     31  O   UNL     1     -41.405  15.153  -0.648  0.00  0.00    -0.126 OA
ATOM     32  O   UNL     1     -40.818  15.401  -2.750  0.00  0.00    -0.126 OA
ATOM     33  N   UNL     1     -40.640  15.624  -1.526  0.00  0.00    +0.059 N 
ENDBRANCH  30  33
ENDBRANCH  24  26
ENDBRANCH  23  24
ENDBRANCH  10  23
TORSDOF 5
ENDMDL
MODEL 9
REMARK VINA RESULT:      -6.7      2.531      3.838
REMARK  Name = 5487358
REMARK  5 active torsions:
REMARK  status: ('A' for Active; 'I' for Inactive)
REMARK    1  A    between atoms: C_10  and  S_23
REMARK    2  A    between atoms: C_18  and  O_21
REMARK    3  A    between atoms: S_23  and  S_24
REMARK    4  A    between atoms: S_24  and  C_26
REMARK    5  A    between atoms: C_30  and  N_33
REMARK                            x       y       z     vdW  Elec       q    Type
REMARK                         _______ _______ _______ _____ _____    ______ ____
ROOT
ATOM      1  O   UNL     1     -37.440  20.985   1.802  0.00  0.00    -0.475 OA
ATOM      2  N   UNL     1     -34.935  24.446   4.658  0.00  0.00    +0.387 N 
ATOM      3  C   UNL     1     -35.912  22.607   2.656  0.00  0.00    +0.055 C 
ATOM      4  C   UNL     1     -34.812  23.625   2.396  0.00  0.00    -0.011 C 
ATOM      5  C   UNL     1     -36.224  21.697   1.466  0.00  0.00    +0.180 C 
ATOM      6  C   UNL     1     -35.170  24.872   3.247  0.00  0.00    -0.053 C 
ATOM      7  C   UNL     1     -35.666  22.074   4.082  0.00  0.00    -0.015 C 
ATOM      8  C   UNL     1     -37.307  23.119   2.644  0.00  0.00    +0.013 C 
ATOM      9  C   UNL     1     -34.492  23.713   0.904  0.00  0.00    -0.001 C 
ATOM     10  C   UNL     1     -35.002  21.094   0.803  0.00  0.00    +0.098 C 
ATOM     11  C   UNL     1     -36.606  25.451   2.974  0.00  0.00    +0.005 C 
ATOM     12  C   UNL     1     -34.070  22.289   0.376  0.00  0.00    +0.015 C 
ATOM     13  C   UNL     1     -35.675  23.249   5.101  0.00  0.00    -0.077 C 
ATOM     14  C   UNL     1     -37.693  24.419   2.854  0.00  0.00    -0.025 C 
ATOM     15  C   UNL     1     -38.169  22.088   2.266  0.00  0.00    +0.168 C 
ATOM     16  C   UNL     1     -35.042  25.531   5.625  0.00  0.00    -0.101 C 
ATOM     17  C   UNL     1     -39.065  24.657   2.810  0.00  0.00    -0.001 C 
ATOM     18  C   UNL     1     -39.524  22.295   2.235  0.00  0.00    +0.167 C 
ATOM     19  C   UNL     1     -39.969  23.598   2.531  0.00  0.00    +0.039 C 
ATOM     20  H   UNL     1     -33.958  24.153   4.633  0.00  0.00    -0.080 HD
ENDROOT
BRANCH  18  21
ATOM     21  O   UNL     1     -40.394  21.322   1.875  0.00  0.00    -0.503 OA
ATOM     22  H   UNL     1     -40.512  20.574   2.425  0.00  0.00    +0.292 HD
ENDBRANCH  18  21
BRANCH  10  23
ATOM     23  S   UNL     1     -34.143  19.871   1.842  0.00  0.00    -0.073 S 
BRANCH  23  24
ATOM     24  S   UNL     1     -33.689  18.413   0.466  0.00  0.00    -0.036 S 
BRANCH  24  26
ATOM     25  N   UNL     1     -31.241  17.559   1.125  0.00  0.00    -0.235 NA
ATOM     26  C   UNL     1     -31.908  18.496   0.416  0.00  0.00    +0.117 C 
ATOM     27  C   UNL     1     -31.294  19.492  -0.326  0.00  0.00    +0.028 C 
ATOM     28  C   UNL     1     -29.904  19.528  -0.342  0.00  0.00    +0.028 C 
ATOM     29  C   UNL     1     -29.891  17.625   1.085  0.00  0.00    +0.123 C 
ATOM     30  C   UNL     1     -29.181  18.580   0.375  0.00  0.00    +0.162 C 
BRANCH  30  33
ATOM     31  O   UNL     1     -27.153  18.854  -0.688  0.00  0.00    -0.126 OA
ATOM     32  O   UNL     1     -27.153  18.336   1.446  0.00  0.00    -0.126 OA
ATOM     33  N   UNL     1     -27.764  18.590   0.377  0.00  0.00    +0.059 N 
ENDBRANCH  30  33
ENDBRANCH  24  26
ENDBRANCH  23  24
ENDBRANCH  10  23
TORSDOF 5
ENDMDL
