MODEL 1
REMARK VINA RESULT:      -6.5      0.000      0.000
REMARK  Name = 5343
REMARK  3 active torsions:
REMARK  status: ('A' for Active; 'I' for Inactive)
REMARK    1  A    between atoms: S_1  and  N_4
REMARK    2  A    between atoms: S_1  and  C_14
REMARK    3  A    between atoms: C_19  and  N_20
REMARK                            x       y       z     vdW  Elec       q    Type
REMARK                         _______ _______ _______ _____ _____    ______ ____
ROOT
ATOM      1  S   UNL     1     -34.636  21.494   0.475  0.00  0.00    +0.075 S 
ATOM      2  O   UNL     1     -35.297  21.308  -0.812  0.00  0.00    -0.150 OA
ATOM      3  O   UNL     1     -34.054  22.794   0.784  0.00  0.00    -0.150 OA
ENDROOT
BRANCH   1   4
ATOM      4  N   UNL     1     -35.747  21.050   1.714  0.00  0.00    -0.191 N 
ATOM      5  N   UNL     1     -36.509  23.126   2.532  0.00  0.00    -0.331 NA
ATOM      6  N   UNL     1     -36.291  23.713   4.859  0.00  0.00    -0.352 NA
ATOM      7  C   UNL     1     -35.923  21.952   2.820  0.00  0.00    +0.194 C 
ATOM      8  C   UNL     1     -35.497  21.580   4.074  0.00  0.00    +0.132 C 
ATOM      9  C   UNL     1     -35.710  22.513   5.068  0.00  0.00    +0.108 C 
ATOM     10  C   UNL     1     -36.659  23.951   3.587  0.00  0.00    +0.115 C 
ATOM     11  C   UNL     1     -35.285  22.208   6.466  0.00  0.00    +0.063 C 
ATOM     12  C   UNL     1     -37.305  25.268   3.315  0.00  0.00    +0.143 C 
ATOM     13  H   UNL     1     -36.247  20.203   1.667  0.00  0.00    +0.176 HD
ENDBRANCH   1   4
BRANCH   1  14
ATOM     14  C   UNL     1     -33.393  20.277   0.614  0.00  0.00    +0.125 C 
ATOM     15  C   UNL     1     -33.632  19.115   1.349  0.00  0.00    +0.021 C 
ATOM     16  C   UNL     1     -32.159  20.465  -0.010  0.00  0.00    +0.021 C 
ATOM     17  C   UNL     1     -32.639  18.144   1.460  0.00  0.00    +0.015 C 
ATOM     18  C   UNL     1     -31.166  19.493   0.101  0.00  0.00    +0.015 C 
ATOM     19  C   UNL     1     -31.405  18.331   0.836  0.00  0.00    +0.042 C 
BRANCH  19  20
ATOM     20  N   UNL     1     -30.400  17.348   0.948  0.00  0.00    -0.357 N 
ATOM     21  H   UNL     1     -29.453  17.600   0.853  0.00  0.00    +0.142 HD
ATOM     22  H   UNL     1     -30.646  16.410   1.120  0.00  0.00    +0.142 HD
ENDBRANCH  19  20
ENDBRANCH   1  14
TORSDOF 3
ENDMDL
MODEL 2
REMARK VINA RESULT:      -6.4      0.224      1.131
REMARK  Name = 5343
REMARK  3 active torsions:
REMARK  status: ('A' for Active; 'I' for Inactive)
REMARK    1  A    between atoms: S_1  and  N_4
REMARK    2  A    between atoms: S_1  and  C_14
REMARK    3  A    between atoms: C_19  and  N_20
REMARK                            x       y       z     vdW  Elec       q    Type
REMARK                         _______ _______ _______ _____ _____    ______ ____
ROOT
ATOM      1  S   UNL     1     -34.596  21.279   0.481  0.00  0.00    +0.075 S 
ATOM      2  O   UNL     1     -35.277  21.043  -0.787  0.00  0.00    -0.150 OA
ATOM      3  O   UNL     1     -34.067  22.609   0.757  0.00  0.00    -0.150 OA
ENDROOT
BRANCH   1   4
ATOM      4  N   UNL     1     -35.656  20.805   1.753  0.00  0.00    -0.191 N 
ATOM      5  N   UNL     1     -36.578  22.849   2.483  0.00  0.00    -0.331 NA
ATOM      6  N   UNL     1     -36.390  23.560   4.778  0.00  0.00    -0.352 NA
ATOM      7  C   UNL     1     -35.896  21.741   2.819  0.00  0.00    +0.194 C 
ATOM      8  C   UNL     1     -35.431  21.465   4.083  0.00  0.00    +0.132 C 
ATOM      9  C   UNL     1     -35.711  22.423   5.035  0.00  0.00    +0.108 C 
ATOM     10  C   UNL     1     -36.787  23.707   3.500  0.00  0.00    +0.115 C 
ATOM     11  C   UNL     1     -35.251  22.219   6.440  0.00  0.00    +0.063 C 
ATOM     12  C   UNL     1     -37.540  24.954   3.176  0.00  0.00    +0.143 C 
ATOM     13  H   UNL     1     -36.086  19.919   1.751  0.00  0.00    +0.176 HD
ENDBRANCH   1   4
BRANCH   1  14
ATOM     14  C   UNL     1     -33.295  20.122   0.610  0.00  0.00    +0.125 C 
ATOM     15  C   UNL     1     -32.081  20.361  -0.036  0.00  0.00    +0.021 C 
ATOM     16  C   UNL     1     -33.468  18.958   1.359  0.00  0.00    +0.021 C 
ATOM     17  C   UNL     1     -31.043  19.436   0.067  0.00  0.00    +0.015 C 
ATOM     18  C   UNL     1     -32.429  18.034   1.463  0.00  0.00    +0.015 C 
ATOM     19  C   UNL     1     -31.216  18.273   0.816  0.00  0.00    +0.042 C 
BRANCH  19  20
ATOM     20  N   UNL     1     -30.165  17.337   0.921  0.00  0.00    -0.357 N 
ATOM     21  H   UNL     1     -30.368  16.381   1.039  0.00  0.00    +0.142 HD
ATOM     22  H   UNL     1     -29.229  17.640   0.877  0.00  0.00    +0.142 HD
ENDBRANCH  19  20
ENDBRANCH   1  14
TORSDOF 3
ENDMDL
MODEL 3
REMARK VINA RESULT:      -6.1      1.666      2.025
REMARK  Name = 5343
REMARK  3 active torsions:
REMARK  status: ('A' for Active; 'I' for Inactive)
REMARK    1  A    between atoms: S_1  and  N_4
REMARK    2  A    between atoms: S_1  and  C_14
REMARK    3  A    between atoms: C_19  and  N_20
REMARK                            x       y       z     vdW  Elec       q    Type
REMARK                         _______ _______ _______ _____ _____    ______ ____
ROOT
ATOM      1  S   UNL     1     -36.300  20.727   0.969  0.00  0.00    +0.075 S 
ATOM      2  O   UNL     1     -37.550  20.228   0.407  0.00  0.00    -0.150 OA
ATOM      3  O   UNL     1     -35.742  21.969   0.449  0.00  0.00    -0.150 OA
ENDROOT
BRANCH   1   4
ATOM      4  N   UNL     1     -36.495  20.852   2.676  0.00  0.00    -0.191 N 
ATOM      5  N   UNL     1     -37.780  22.813   2.934  0.00  0.00    -0.331 NA
ATOM      6  N   UNL     1     -37.002  24.652   4.283  0.00  0.00    -0.352 NA
ATOM      7  C   UNL     1     -36.645  22.165   3.245  0.00  0.00    +0.194 C 
ATOM      8  C   UNL     1     -35.653  22.673   4.052  0.00  0.00    +0.132 C 
ATOM      9  C   UNL     1     -35.889  23.938   4.549  0.00  0.00    +0.108 C 
ATOM     10  C   UNL     1     -37.892  24.039   3.480  0.00  0.00    +0.115 C 
ATOM     11  C   UNL     1     -34.876  24.580   5.435  0.00  0.00    +0.063 C 
ATOM     12  C   UNL     1     -39.136  24.799   3.162  0.00  0.00    +0.143 C 
ATOM     13  H   UNL     1     -36.504  20.049   3.246  0.00  0.00    +0.176 HD
ENDBRANCH   1   4
BRANCH   1  14
ATOM     14  C   UNL     1     -35.103  19.465   0.808  0.00  0.00    +0.125 C 
ATOM     15  C   UNL     1     -33.934  19.511   1.568  0.00  0.00    +0.021 C 
ATOM     16  C   UNL     1     -35.317  18.412  -0.081  0.00  0.00    +0.021 C 
ATOM     17  C   UNL     1     -32.979  18.504   1.439  0.00  0.00    +0.015 C 
ATOM     18  C   UNL     1     -34.361  17.404  -0.210  0.00  0.00    +0.015 C 
ATOM     19  C   UNL     1     -33.192  17.450   0.550  0.00  0.00    +0.042 C 
BRANCH  19  20
ATOM     20  N   UNL     1     -32.226  16.429   0.420  0.00  0.00    -0.357 N 
ATOM     21  H   UNL     1     -31.268  16.655   0.436  0.00  0.00    +0.142 HD
ATOM     22  H   UNL     1     -32.510  15.493   0.314  0.00  0.00    +0.142 HD
ENDBRANCH  19  20
ENDBRANCH   1  14
TORSDOF 3
ENDMDL
MODEL 4
REMARK VINA RESULT:      -6.0      1.250      2.541
REMARK  Name = 5343
REMARK  3 active torsions:
REMARK  status: ('A' for Active; 'I' for Inactive)
REMARK    1  A    between atoms: S_1  and  N_4
REMARK    2  A    between atoms: S_1  and  C_14
REMARK    3  A    between atoms: C_19  and  N_20
REMARK                            x       y       z     vdW  Elec       q    Type
REMARK                         _______ _______ _______ _____ _____    ______ ____
ROOT
ATOM      1  S   UNL     1     -35.168  20.576   1.171  0.00  0.00    +0.075 S 
ATOM      2  O   UNL     1     -35.712  19.979   2.386  0.00  0.00    -0.150 OA
ATOM      3  O   UNL     1     -35.937  20.481  -0.064  0.00  0.00    -0.150 OA
ENDROOT
BRANCH   1   4
ATOM      4  N   UNL     1     -34.811  22.228   1.502  0.00  0.00    -0.191 N 
ATOM      5  N   UNL     1     -35.121  22.394   3.835  0.00  0.00    -0.331 NA
ATOM      6  N   UNL     1     -36.668  23.980   4.782  0.00  0.00    -0.352 NA
ATOM      7  C   UNL     1     -35.469  22.851   2.619  0.00  0.00    +0.194 C 
ATOM      8  C   UNL     1     -36.388  23.850   2.396  0.00  0.00    +0.132 C 
ATOM      9  C   UNL     1     -36.964  24.384   3.530  0.00  0.00    +0.108 C 
ATOM     10  C   UNL     1     -35.753  22.996   4.860  0.00  0.00    +0.115 C 
ATOM     11  C   UNL     1     -37.974  25.474   3.397  0.00  0.00    +0.063 C 
ATOM     12  C   UNL     1     -35.401  22.520   6.230  0.00  0.00    +0.143 C 
ATOM     13  H   UNL     1     -34.175  22.731   0.944  0.00  0.00    +0.176 HD
ENDBRANCH   1   4
BRANCH   1  14
ATOM     14  C   UNL     1     -33.588  19.884   0.901  0.00  0.00    +0.125 C 
ATOM     15  C   UNL     1     -32.643  20.578   0.144  0.00  0.00    +0.021 C 
ATOM     16  C   UNL     1     -33.270  18.639   1.442  0.00  0.00    +0.021 C 
ATOM     17  C   UNL     1     -31.381  20.025  -0.072  0.00  0.00    +0.015 C 
ATOM     18  C   UNL     1     -32.008  18.087   1.227  0.00  0.00    +0.015 C 
ATOM     19  C   UNL     1     -31.063  18.780   0.469  0.00  0.00    +0.042 C 
BRANCH  19  20
ATOM     20  N   UNL     1     -29.786  18.221   0.252  0.00  0.00    -0.357 N 
ATOM     21  H   UNL     1     -29.008  18.810   0.115  0.00  0.00    +0.142 HD
ATOM     22  H   UNL     1     -29.672  17.243   0.238  0.00  0.00    +0.142 HD
ENDBRANCH  19  20
ENDBRANCH   1  14
TORSDOF 3
ENDMDL
MODEL 5
REMARK VINA RESULT:      -6.0      5.182      8.233
REMARK  Name = 5343
REMARK  3 active torsions:
REMARK  status: ('A' for Active; 'I' for Inactive)
REMARK    1  A    between atoms: S_1  and  N_4
REMARK    2  A    between atoms: S_1  and  C_14
REMARK    3  A    between atoms: C_19  and  N_20
REMARK                            x       y       z     vdW  Elec       q    Type
REMARK                         _______ _______ _______ _____ _____    ______ ____
ROOT
ATOM      1  S   UNL     1     -33.306  26.973   4.649  0.00  0.00    +0.075 S 
ATOM      2  O   UNL     1     -32.638  26.980   5.946  0.00  0.00    -0.150 OA
ATOM      3  O   UNL     1     -32.843  26.045   3.625  0.00  0.00    -0.150 OA
ENDROOT
BRANCH   1   4
ATOM      4  N   UNL     1     -34.992  26.740   4.919  0.00  0.00    -0.191 N 
ATOM      5  N   UNL     1     -35.130  24.482   5.585  0.00  0.00    -0.331 NA
ATOM      6  N   UNL     1     -36.515  22.908   4.397  0.00  0.00    -0.352 NA
ATOM      7  C   UNL     1     -35.534  25.423   4.715  0.00  0.00    +0.194 C 
ATOM      8  C   UNL     1     -36.409  25.202   3.678  0.00  0.00    +0.132 C 
ATOM      9  C   UNL     1     -36.873  23.908   3.565  0.00  0.00    +0.108 C 
ATOM     10  C   UNL     1     -35.653  23.260   5.369  0.00  0.00    +0.115 C 
ATOM     11  C   UNL     1     -37.828  23.562   2.473  0.00  0.00    +0.063 C 
ATOM     12  C   UNL     1     -35.232  22.180   6.309  0.00  0.00    +0.143 C 
ATOM     13  H   UNL     1     -35.568  27.486   5.204  0.00  0.00    +0.176 HD
ENDBRANCH   1   4
BRANCH   1  14
ATOM     14  C   UNL     1     -33.237  28.595   4.007  0.00  0.00    +0.125 C 
ATOM     15  C   UNL     1     -34.115  28.983   2.995  0.00  0.00    +0.021 C 
ATOM     16  C   UNL     1     -32.303  29.503   4.506  0.00  0.00    +0.021 C 
ATOM     17  C   UNL     1     -34.059  30.278   2.482  0.00  0.00    +0.015 C 
ATOM     18  C   UNL     1     -32.248  30.799   3.994  0.00  0.00    +0.015 C 
ATOM     19  C   UNL     1     -33.126  31.187   2.981  0.00  0.00    +0.042 C 
BRANCH  19  20
ATOM     20  N   UNL     1     -33.070  32.498   2.464  0.00  0.00    -0.357 N 
ATOM     21  H   UNL     1     -33.108  32.644   1.491  0.00  0.00    +0.142 HD
ATOM     22  H   UNL     1     -32.993  33.266   3.075  0.00  0.00    +0.142 HD
ENDBRANCH  19  20
ENDBRANCH   1  14
TORSDOF 3
ENDMDL
MODEL 6
REMARK VINA RESULT:      -5.9      6.290      7.993
REMARK  Name = 5343
REMARK  3 active torsions:
REMARK  status: ('A' for Active; 'I' for Inactive)
REMARK    1  A    between atoms: S_1  and  N_4
REMARK    2  A    between atoms: S_1  and  C_14
REMARK    3  A    between atoms: C_19  and  N_20
REMARK                            x       y       z     vdW  Elec       q    Type
REMARK                         _______ _______ _______ _____ _____    ______ ____
ROOT
ATOM      1  S   UNL     1     -33.251  27.146   3.772  0.00  0.00    +0.075 S 
ATOM      2  O   UNL     1     -34.171  27.999   3.027  0.00  0.00    -0.150 OA
ATOM      3  O   UNL     1     -31.968  26.803   3.171  0.00  0.00    -0.150 OA
ENDROOT
BRANCH   1   4
ATOM      4  N   UNL     1     -32.992  27.862   5.317  0.00  0.00    -0.191 N 
ATOM      5  N   UNL     1     -31.982  29.929   4.796  0.00  0.00    -0.331 NA
ATOM      6  N   UNL     1     -29.831  30.534   5.696  0.00  0.00    -0.352 NA
ATOM      7  C   UNL     1     -31.884  28.768   5.465  0.00  0.00    +0.194 C 
ATOM      8  C   UNL     1     -30.818  28.413   6.258  0.00  0.00    +0.132 C 
ATOM      9  C   UNL     1     -29.806  29.347   6.337  0.00  0.00    +0.108 C 
ATOM     10  C   UNL     1     -30.931  30.756   4.953  0.00  0.00    +0.115 C 
ATOM     11  C   UNL     1     -28.603  29.060   7.171  0.00  0.00    +0.063 C 
ATOM     12  C   UNL     1     -30.994  32.058   4.228  0.00  0.00    +0.143 C 
ATOM     13  H   UNL     1     -33.584  27.658   6.077  0.00  0.00    +0.176 HD
ENDBRANCH   1   4
BRANCH   1  14
ATOM     14  C   UNL     1     -34.097  25.670   4.166  0.00  0.00    +0.125 C 
ATOM     15  C   UNL     1     -34.525  25.438   5.474  0.00  0.00    +0.021 C 
ATOM     16  C   UNL     1     -34.344  24.722   3.173  0.00  0.00    +0.021 C 
ATOM     17  C   UNL     1     -35.199  24.260   5.787  0.00  0.00    +0.015 C 
ATOM     18  C   UNL     1     -35.020  23.543   3.487  0.00  0.00    +0.015 C 
ATOM     19  C   UNL     1     -35.448  23.312   4.795  0.00  0.00    +0.042 C 
BRANCH  19  20
ATOM     20  N   UNL     1     -36.132  22.119   5.112  0.00  0.00    -0.357 N 
ATOM     21  H   UNL     1     -35.748  21.492   5.768  0.00  0.00    +0.142 HD
ATOM     22  H   UNL     1     -36.991  21.914   4.678  0.00  0.00    +0.142 HD
ENDBRANCH  19  20
ENDBRANCH   1  14
TORSDOF 3
ENDMDL
MODEL 7
REMARK VINA RESULT:      -5.9      1.493      1.786
REMARK  Name = 5343
REMARK  3 active torsions:
REMARK  status: ('A' for Active; 'I' for Inactive)
REMARK    1  A    between atoms: S_1  and  N_4
REMARK    2  A    between atoms: S_1  and  C_14
REMARK    3  A    between atoms: C_19  and  N_20
REMARK                            x       y       z     vdW  Elec       q    Type
REMARK                         _______ _______ _______ _____ _____    ______ ____
ROOT
ATOM      1  S   UNL     1     -35.353  20.039   0.448  0.00  0.00    +0.075 S 
ATOM      2  O   UNL     1     -36.414  19.644  -0.470  0.00  0.00    -0.150 OA
ATOM      3  O   UNL     1     -34.710  21.335   0.265  0.00  0.00    -0.150 OA
ENDROOT
BRANCH   1   4
ATOM      4  N   UNL     1     -35.966  19.922   2.054  0.00  0.00    -0.191 N 
ATOM      5  N   UNL     1     -37.280  21.868   2.278  0.00  0.00    -0.331 NA
ATOM      6  N   UNL     1     -36.866  23.463   4.036  0.00  0.00    -0.352 NA
ATOM      7  C   UNL     1     -36.255  21.142   2.758  0.00  0.00    +0.194 C 
ATOM      8  C   UNL     1     -35.496  21.492   3.850  0.00  0.00    +0.132 C 
ATOM      9  C   UNL     1     -35.852  22.679   4.457  0.00  0.00    +0.108 C 
ATOM     10  C   UNL     1     -37.527  23.004   2.957  0.00  0.00    +0.115 C 
ATOM     11  C   UNL     1     -35.092  23.151   5.651  0.00  0.00    +0.063 C 
ATOM     12  C   UNL     1     -38.655  23.845   2.459  0.00  0.00    +0.143 C 
ATOM     13  H   UNL     1     -36.114  19.045   2.478  0.00  0.00    +0.176 HD
ENDBRANCH   1   4
BRANCH   1  14
ATOM     14  C   UNL     1     -34.127  18.796   0.410  0.00  0.00    +0.125 C 
ATOM     15  C   UNL     1     -32.923  18.981   1.091  0.00  0.00    +0.021 C 
ATOM     16  C   UNL     1     -34.351  17.618  -0.302  0.00  0.00    +0.021 C 
ATOM     17  C   UNL     1     -31.945  17.989   1.060  0.00  0.00    +0.015 C 
ATOM     18  C   UNL     1     -33.373  16.625  -0.332  0.00  0.00    +0.015 C 
ATOM     19  C   UNL     1     -32.169  16.810   0.349  0.00  0.00    +0.042 C 
BRANCH  19  20
ATOM     20  N   UNL     1     -31.180  15.805   0.318  0.00  0.00    -0.357 N 
ATOM     21  H   UNL     1     -31.205  15.111  -0.381  0.00  0.00    +0.142 HD
ATOM     22  H   UNL     1     -30.464  15.797   0.995  0.00  0.00    +0.142 HD
ENDBRANCH  19  20
ENDBRANCH   1  14
TORSDOF 3
ENDMDL
MODEL 8
REMARK VINA RESULT:      -5.9      4.901      7.049
REMARK  Name = 5343
REMARK  3 active torsions:
REMARK  status: ('A' for Active; 'I' for Inactive)
REMARK    1  A    between atoms: S_1  and  N_4
REMARK    2  A    between atoms: S_1  and  C_14
REMARK    3  A    between atoms: C_19  and  N_20
REMARK                            x       y       z     vdW  Elec       q    Type
REMARK                         _______ _______ _______ _____ _____    ______ ____
ROOT
ATOM      1  S   UNL     1     -34.506  25.984   4.921  0.00  0.00    +0.075 S 
ATOM      2  O   UNL     1     -33.325  25.847   5.765  0.00  0.00    -0.150 OA
ATOM      3  O   UNL     1     -35.700  26.609   5.477  0.00  0.00    -0.150 OA
ENDROOT
BRANCH   1   4
ATOM      4  N   UNL     1     -34.041  26.808   3.482  0.00  0.00    -0.191 N 
ATOM      5  N   UNL     1     -33.021  28.776   4.288  0.00  0.00    -0.331 NA
ATOM      6  N   UNL     1     -33.808  30.956   3.628  0.00  0.00    -0.352 NA
ATOM      7  C   UNL     1     -33.983  28.245   3.514  0.00  0.00    +0.194 C 
ATOM      8  C   UNL     1     -34.883  28.978   2.776  0.00  0.00    +0.132 C 
ATOM      9  C   UNL     1     -34.746  30.348   2.873  0.00  0.00    +0.108 C 
ATOM     10  C   UNL     1     -32.991  30.123   4.299  0.00  0.00    +0.115 C 
ATOM     11  C   UNL     1     -35.673  31.235   2.111  0.00  0.00    +0.063 C 
ATOM     12  C   UNL     1     -31.940  30.759   5.146  0.00  0.00    +0.143 C 
ATOM     13  H   UNL     1     -33.820  26.311   2.661  0.00  0.00    +0.176 HD
ENDBRANCH   1   4
BRANCH   1  14
ATOM     14  C   UNL     1     -34.929  24.394   4.337  0.00  0.00    +0.125 C 
ATOM     15  C   UNL     1     -35.074  24.169   2.967  0.00  0.00    +0.021 C 
ATOM     16  C   UNL     1     -35.121  23.348   5.240  0.00  0.00    +0.021 C 
ATOM     17  C   UNL     1     -35.411  22.899   2.501  0.00  0.00    +0.015 C 
ATOM     18  C   UNL     1     -35.458  22.077   4.773  0.00  0.00    +0.015 C 
ATOM     19  C   UNL     1     -35.603  21.852   3.404  0.00  0.00    +0.042 C 
BRANCH  19  20
ATOM     20  N   UNL     1     -35.943  20.567   2.933  0.00  0.00    -0.357 N 
ATOM     21  H   UNL     1     -36.856  20.220   3.065  0.00  0.00    +0.142 HD
ATOM     22  H   UNL     1     -35.269  20.017   2.472  0.00  0.00    +0.142 HD
ENDBRANCH  19  20
ENDBRANCH   1  14
TORSDOF 3
ENDMDL
MODEL 9
REMARK VINA RESULT:      -5.9      5.064      7.203
REMARK  Name = 5343
REMARK  3 active torsions:
REMARK  status: ('A' for Active; 'I' for Inactive)
REMARK    1  A    between atoms: S_1  and  N_4
REMARK    2  A    between atoms: S_1  and  C_14
REMARK    3  A    between atoms: C_19  and  N_20
REMARK                            x       y       z     vdW  Elec       q    Type
REMARK                         _______ _______ _______ _____ _____    ______ ____
ROOT
ATOM      1  S   UNL     1     -33.836  27.177   3.449  0.00  0.00    +0.075 S 
ATOM      2  O   UNL     1     -33.551  27.737   2.133  0.00  0.00    -0.150 OA
ATOM      3  O   UNL     1     -35.152  27.398   4.037  0.00  0.00    -0.150 OA
ENDROOT
BRANCH   1   4
ATOM      4  N   UNL     1     -33.505  25.488   3.393  0.00  0.00    -0.191 N 
ATOM      5  N   UNL     1     -35.619  24.533   2.968  0.00  0.00    -0.331 NA
ATOM      6  N   UNL     1     -36.572  22.888   4.448  0.00  0.00    -0.352 NA
ATOM      7  C   UNL     1     -34.551  24.580   3.782  0.00  0.00    +0.194 C 
ATOM      8  C   UNL     1     -34.411  23.832   4.927  0.00  0.00    +0.132 C 
ATOM      9  C   UNL     1     -35.467  22.993   5.215  0.00  0.00    +0.108 C 
ATOM     10  C   UNL     1     -36.582  23.676   3.357  0.00  0.00    +0.115 C 
ATOM     11  C   UNL     1     -35.414  22.137   6.436  0.00  0.00    +0.063 C 
ATOM     12  C   UNL     1     -37.789  23.590   2.484  0.00  0.00    +0.143 C 
ATOM     13  H   UNL     1     -32.626  25.152   3.104  0.00  0.00    +0.176 HD
ENDBRANCH   1   4
BRANCH   1  14
ATOM     14  C   UNL     1     -32.622  27.774   4.554  0.00  0.00    +0.125 C 
ATOM     15  C   UNL     1     -32.755  27.549   5.925  0.00  0.00    +0.021 C 
ATOM     16  C   UNL     1     -31.520  28.475   4.066  0.00  0.00    +0.021 C 
ATOM     17  C   UNL     1     -31.786  28.025   6.806  0.00  0.00    +0.015 C 
ATOM     18  C   UNL     1     -30.550  28.951   4.948  0.00  0.00    +0.015 C 
ATOM     19  C   UNL     1     -30.683  28.726   6.319  0.00  0.00    +0.042 C 
BRANCH  19  20
ATOM     20  N   UNL     1     -29.702  29.207   7.211  0.00  0.00    -0.357 N 
ATOM     21  H   UNL     1     -28.914  28.654   7.420  0.00  0.00    +0.142 HD
ATOM     22  H   UNL     1     -29.804  30.095   7.623  0.00  0.00    +0.142 HD
ENDBRANCH  19  20
ENDBRANCH   1  14
TORSDOF 3
ENDMDL
