MODEL 1
REMARK VINA RESULT:      -5.8      0.000      0.000
REMARK  Name = 193326
REMARK  5 active torsions:
REMARK  status: ('A' for Active; 'I' for Inactive)
REMARK    1  A    between atoms: N_2  and  C_23
REMARK    2  A    between atoms: C_9  and  C_14
REMARK    3  A    between atoms: C_14  and  N_15
REMARK    4  A    between atoms: N_15  and  C_18
REMARK    5  A    between atoms: C_23  and  C_24
REMARK                            x       y       z     vdW  Elec       q    Type
REMARK                         _______ _______ _______ _____ _____    ______ ____
ROOT
ATOM      1 CL   UNL     1     -32.318  25.614   1.606  0.00  0.00    -0.044 Cl
ATOM      2  N   UNL     1     -32.704  28.136   3.258  0.00  0.00    -0.279 N 
ATOM      3  N   UNL     1     -34.604  27.298   4.404  0.00  0.00    -0.366 NA
ATOM      4  N   UNL     1     -34.395  24.901   2.963  0.00  0.00    -0.378 NA
ATOM      5  C   UNL     1     -33.628  27.106   3.488  0.00  0.00    +0.226 C 
ATOM      6  C   UNL     1     -32.583  28.726   1.924  0.00  0.00    +0.115 C 
ATOM      7  C   UNL     1     -33.532  25.920   2.781  0.00  0.00    +0.233 C 
ATOM      8  C   UNL     1     -35.466  26.278   4.586  0.00  0.00    +0.213 C 
ATOM      9  C   UNL     1     -35.363  25.101   3.878  0.00  0.00    +0.231 C 
ATOM     10  N   UNL     1     -36.506  26.429   5.532  0.00  0.00    -0.331 N 
ATOM     11  H   UNL     1     -36.589  27.266   6.043  0.00  0.00    +0.145 HD
ATOM     12  H   UNL     1     -37.146  25.695   5.679  0.00  0.00    +0.145 HD
ENDROOT
BRANCH   9  14
ATOM     13  O   UNL     1     -37.137  23.724   3.190  0.00  0.00    -0.265 OA
ATOM     14  C   UNL     1     -36.283  23.989   4.059  0.00  0.00    +0.305 C 
BRANCH  14  15
ATOM     15  N   UNL     1     -36.130  23.225   5.213  0.00  0.00    -0.141 NA
BRANCH  15  18
ATOM     16  N   UNL     1     -34.727  21.505   6.144  0.00  0.00    -0.372 N 
ATOM     17  N   UNL     1     -35.575  21.295   4.037  0.00  0.00    -0.372 N 
ATOM     18  C   UNL     1     -35.507  22.078   5.165  0.00  0.00    +0.185 C 
ATOM     19  H   UNL     1     -34.598  21.967   7.004  0.00  0.00    +0.159 HD
ATOM     20  H   UNL     1     -34.297  20.633   5.985  0.00  0.00    +0.159 HD
ATOM     21  H   UNL     1     -36.102  21.593   3.262  0.00  0.00    +0.159 HD
ATOM     22  H   UNL     1     -35.094  20.436   4.004  0.00  0.00    +0.159 HD
ENDBRANCH  15  18
ENDBRANCH  14  15
ENDBRANCH   9  14
BRANCH   2  23
ATOM     23  C   UNL     1     -31.867  28.646   4.318  0.00  0.00    +0.093 C 
BRANCH  23  24
ATOM     24  C   UNL     1     -32.125  30.132   4.541  0.00  0.00    +0.021 C 
ATOM     25  C   UNL     1     -31.959  30.549   5.997  0.00  0.00    +0.002 C 
ENDBRANCH  23  24
ENDBRANCH   2  23
TORSDOF 5
ENDMDL
MODEL 2
REMARK VINA RESULT:      -5.5      1.718      2.071
REMARK  Name = 193326
REMARK  5 active torsions:
REMARK  status: ('A' for Active; 'I' for Inactive)
REMARK    1  A    between atoms: N_2  and  C_23
REMARK    2  A    between atoms: C_9  and  C_14
REMARK    3  A    between atoms: C_14  and  N_15
REMARK    4  A    between atoms: N_15  and  C_18
REMARK    5  A    between atoms: C_23  and  C_24
REMARK                            x       y       z     vdW  Elec       q    Type
REMARK                         _______ _______ _______ _____ _____    ______ ____
ROOT
ATOM      1 CL   UNL     1     -32.518  27.289   6.859  0.00  0.00    -0.044 Cl
ATOM      2  N   UNL     1     -32.268  28.325   4.013  0.00  0.00    -0.279 N 
ATOM      3  N   UNL     1     -34.023  26.964   3.182  0.00  0.00    -0.366 NA
ATOM      4  N   UNL     1     -34.388  25.898   5.752  0.00  0.00    -0.378 NA
ATOM      5  C   UNL     1     -33.262  27.360   4.228  0.00  0.00    +0.226 C 
ATOM      6  C   UNL     1     -30.867  28.006   4.288  0.00  0.00    +0.115 C 
ATOM      7  C   UNL     1     -33.449  26.829   5.492  0.00  0.00    +0.233 C 
ATOM      8  C   UNL     1     -34.963  26.033   3.442  0.00  0.00    +0.213 C 
ATOM      9  C   UNL     1     -35.142  25.510   4.704  0.00  0.00    +0.231 C 
ATOM     10  N   UNL     1     -35.785  25.584   2.384  0.00  0.00    -0.331 N 
ATOM     11  H   UNL     1     -35.665  25.951   1.478  0.00  0.00    +0.145 HD
ATOM     12  H   UNL     1     -36.477  24.904   2.553  0.00  0.00    +0.145 HD
ENDROOT
BRANCH   9  14
ATOM     13  O   UNL     1     -37.292  24.585   4.515  0.00  0.00    -0.265 OA
ATOM     14  C   UNL     1     -36.150  24.505   5.006  0.00  0.00    +0.305 C 
BRANCH  14  15
ATOM     15  N   UNL     1     -35.760  23.447   5.823  0.00  0.00    -0.141 NA
BRANCH  15  18
ATOM     16  N   UNL     1     -34.859  21.216   5.887  0.00  0.00    -0.372 N 
ATOM     17  N   UNL     1     -35.969  21.965   4.040  0.00  0.00    -0.372 N 
ATOM     18  C   UNL     1     -35.532  22.268   5.308  0.00  0.00    +0.185 C 
ATOM     19  H   UNL     1     -34.494  21.305   6.797  0.00  0.00    +0.159 HD
ATOM     20  H   UNL     1     -34.741  20.373   5.390  0.00  0.00    +0.159 HD
ATOM     21  H   UNL     1     -36.465  22.634   3.518  0.00  0.00    +0.159 HD
ATOM     22  H   UNL     1     -35.784  21.077   3.655  0.00  0.00    +0.159 HD
ENDBRANCH  15  18
ENDBRANCH  14  15
ENDBRANCH   9  14
BRANCH   2  23
ATOM     23  C   UNL     1     -32.592  29.639   3.510  0.00  0.00    +0.093 C 
BRANCH  23  24
ATOM     24  C   UNL     1     -31.817  30.713   4.265  0.00  0.00    +0.021 C 
ATOM     25  C   UNL     1     -32.182  30.776   5.743  0.00  0.00    +0.002 C 
ENDBRANCH  23  24
ENDBRANCH   2  23
TORSDOF 5
ENDMDL
MODEL 3
REMARK VINA RESULT:      -5.4      3.980      5.689
REMARK  Name = 193326
REMARK  5 active torsions:
REMARK  status: ('A' for Active; 'I' for Inactive)
REMARK    1  A    between atoms: N_2  and  C_23
REMARK    2  A    between atoms: C_9  and  C_14
REMARK    3  A    between atoms: C_14  and  N_15
REMARK    4  A    between atoms: N_15  and  C_18
REMARK    5  A    between atoms: C_23  and  C_24
REMARK                            x       y       z     vdW  Elec       q    Type
REMARK                         _______ _______ _______ _____ _____    ______ ____
ROOT
ATOM      1 CL   UNL     1     -33.930  24.923   1.746  0.00  0.00    -0.044 Cl
ATOM      2  N   UNL     1     -36.262  24.379   3.617  0.00  0.00    -0.279 N 
ATOM      3  N   UNL     1     -36.494  22.116   2.946  0.00  0.00    -0.366 NA
ATOM      4  N   UNL     1     -34.354  22.445   1.162  0.00  0.00    -0.378 NA
ATOM      5  C   UNL     1     -35.847  23.298   2.828  0.00  0.00    +0.226 C 
ATOM      6  C   UNL     1     -36.732  25.611   2.982  0.00  0.00    +0.115 C 
ATOM      7  C   UNL     1     -34.792  23.452   1.945  0.00  0.00    +0.233 C 
ATOM      8  C   UNL     1     -36.055  21.110   2.164  0.00  0.00    +0.213 C 
ATOM      9  C   UNL     1     -35.004  21.272   1.288  0.00  0.00    +0.231 C 
ATOM     10  N   UNL     1     -36.698  19.854   2.249  0.00  0.00    -0.331 N 
ATOM     11  H   UNL     1     -37.451  19.728   2.872  0.00  0.00    +0.145 HD
ATOM     12  H   UNL     1     -36.393  19.106   1.686  0.00  0.00    +0.145 HD
ENDROOT
BRANCH   9  14
ATOM     13  O   UNL     1     -35.185  19.811  -0.542  0.00  0.00    -0.265 OA
ATOM     14  C   UNL     1     -34.516  20.199   0.435  0.00  0.00    +0.305 C 
BRANCH  14  15
ATOM     15  N   UNL     1     -33.264  19.672   0.740  0.00  0.00    -0.141 NA
BRANCH  15  18
ATOM     16  N   UNL     1     -32.058  17.767   1.583  0.00  0.00    -0.372 N 
ATOM     17  N   UNL     1     -34.131  17.513   0.667  0.00  0.00    -0.372 N 
ATOM     18  C   UNL     1     -33.132  18.398   0.998  0.00  0.00    +0.185 C 
ATOM     19  H   UNL     1     -31.273  18.291   1.868  0.00  0.00    +0.159 HD
ATOM     20  H   UNL     1     -32.071  16.791   1.717  0.00  0.00    +0.159 HD
ATOM     21  H   UNL     1     -34.955  17.839   0.241  0.00  0.00    +0.159 HD
ATOM     22  H   UNL     1     -34.020  16.553   0.855  0.00  0.00    +0.159 HD
ENDBRANCH  15  18
ENDBRANCH  14  15
ENDBRANCH   9  14
BRANCH   2  23
ATOM     23  C   UNL     1     -36.253  24.305   5.059  0.00  0.00    +0.093 C 
BRANCH  23  24
ATOM     24  C   UNL     1     -34.966  23.654   5.557  0.00  0.00    +0.021 C 
ATOM     25  C   UNL     1     -35.215  22.352   6.307  0.00  0.00    +0.002 C 
ENDBRANCH  23  24
ENDBRANCH   2  23
TORSDOF 5
ENDMDL
MODEL 4
REMARK VINA RESULT:      -5.4      0.922      1.458
REMARK  Name = 193326
REMARK  5 active torsions:
REMARK  status: ('A' for Active; 'I' for Inactive)
REMARK    1  A    between atoms: N_2  and  C_23
REMARK    2  A    between atoms: C_9  and  C_14
REMARK    3  A    between atoms: C_14  and  N_15
REMARK    4  A    between atoms: N_15  and  C_18
REMARK    5  A    between atoms: C_23  and  C_24
REMARK                            x       y       z     vdW  Elec       q    Type
REMARK                         _______ _______ _______ _____ _____    ______ ____
ROOT
ATOM      1 CL   UNL     1     -32.767  25.520   1.285  0.00  0.00    -0.044 Cl
ATOM      2  N   UNL     1     -33.241  28.213   2.611  0.00  0.00    -0.279 N 
ATOM      3  N   UNL     1     -34.937  27.396   4.053  0.00  0.00    -0.366 NA
ATOM      4  N   UNL     1     -34.631  24.841   2.936  0.00  0.00    -0.378 NA
ATOM      5  C   UNL     1     -34.036  27.155   3.073  0.00  0.00    +0.226 C 
ATOM      6  C   UNL     1     -33.300  28.612   1.204  0.00  0.00    +0.115 C 
ATOM      7  C   UNL     1     -33.891  25.891   2.528  0.00  0.00    +0.233 C 
ATOM      8  C   UNL     1     -35.677  26.346   4.460  0.00  0.00    +0.213 C 
ATOM      9  C   UNL     1     -35.526  25.091   3.912  0.00  0.00    +0.231 C 
ATOM     10  N   UNL     1     -36.634  26.545   5.481  0.00  0.00    -0.331 N 
ATOM     11  H   UNL     1     -36.750  27.438   5.880  0.00  0.00    +0.145 HD
ATOM     12  H   UNL     1     -37.184  25.790   5.792  0.00  0.00    +0.145 HD
ENDROOT
BRANCH   9  14
ATOM     13  O   UNL     1     -37.361  23.637   3.737  0.00  0.00    -0.265 OA
ATOM     14  C   UNL     1     -36.314  23.944   4.337  0.00  0.00    +0.305 C 
BRANCH  14  15
ATOM     15  N   UNL     1     -35.817  23.199   5.404  0.00  0.00    -0.141 NA
BRANCH  15  18
ATOM     16  N   UNL     1     -35.505  21.217   4.075  0.00  0.00    -0.372 N 
ATOM     17  N   UNL     1     -34.698  21.323   6.206  0.00  0.00    -0.372 N 
ATOM     18  C   UNL     1     -35.374  21.986   5.209  0.00  0.00    +0.185 C 
ATOM     19  H   UNL     1     -35.971  21.579   3.286  0.00  0.00    +0.159 HD
ATOM     20  H   UNL     1     -35.133  20.305   4.052  0.00  0.00    +0.159 HD
ATOM     21  H   UNL     1     -34.538  21.764   7.070  0.00  0.00    +0.159 HD
ATOM     22  H   UNL     1     -34.375  20.404   6.055  0.00  0.00    +0.159 HD
ENDBRANCH  15  18
ENDBRANCH  14  15
ENDBRANCH   9  14
BRANCH   2  23
ATOM     23  C   UNL     1     -32.363  28.938   3.498  0.00  0.00    +0.093 C 
BRANCH  23  24
ATOM     24  C   UNL     1     -31.231  28.042   3.990  0.00  0.00    +0.021 C 
ATOM     25  C   UNL     1     -30.131  27.858   2.953  0.00  0.00    +0.002 C 
ENDBRANCH  23  24
ENDBRANCH   2  23
TORSDOF 5
ENDMDL
MODEL 5
REMARK VINA RESULT:      -5.3      2.930      6.281
REMARK  Name = 193326
REMARK  5 active torsions:
REMARK  status: ('A' for Active; 'I' for Inactive)
REMARK    1  A    between atoms: N_2  and  C_23
REMARK    2  A    between atoms: C_9  and  C_14
REMARK    3  A    between atoms: C_14  and  N_15
REMARK    4  A    between atoms: N_15  and  C_18
REMARK    5  A    between atoms: C_23  and  C_24
REMARK                            x       y       z     vdW  Elec       q    Type
REMARK                         _______ _______ _______ _____ _____    ______ ____
ROOT
ATOM      1 CL   UNL     1     -36.284  25.801   5.685  0.00  0.00    -0.044 Cl
ATOM      2  N   UNL     1     -35.587  24.322   3.123  0.00  0.00    -0.279 N 
ATOM      3  N   UNL     1     -33.648  25.621   2.699  0.00  0.00    -0.366 NA
ATOM      4  N   UNL     1     -34.145  27.091   5.036  0.00  0.00    -0.378 NA
ATOM      5  C   UNL     1     -34.714  25.356   3.490  0.00  0.00    +0.226 C 
ATOM      6  C   UNL     1     -36.999  24.611   2.870  0.00  0.00    +0.115 C 
ATOM      7  C   UNL     1     -34.951  26.086   4.641  0.00  0.00    +0.233 C 
ATOM      8  C   UNL     1     -32.842  26.625   3.096  0.00  0.00    +0.213 C 
ATOM      9  C   UNL     1     -33.086  27.347   4.244  0.00  0.00    +0.231 C 
ATOM     10  N   UNL     1     -31.714  26.942   2.305  0.00  0.00    -0.331 N 
ATOM     11  H   UNL     1     -31.531  26.433   1.482  0.00  0.00    +0.145 HD
ATOM     12  H   UNL     1     -31.113  27.673   2.577  0.00  0.00    +0.145 HD
ENDROOT
BRANCH   9  14
ATOM     13  O   UNL     1     -32.624  29.615   4.641  0.00  0.00    -0.265 OA
ATOM     14  C   UNL     1     -32.228  28.434   4.689  0.00  0.00    +0.305 C 
BRANCH  14  15
ATOM     15  N   UNL     1     -30.981  28.085   5.201  0.00  0.00    -0.141 NA
BRANCH  15  18
ATOM     16  N   UNL     1     -31.389  29.166   7.312  0.00  0.00    -0.372 N 
ATOM     17  N   UNL     1     -29.357  28.231   6.863  0.00  0.00    -0.372 N 
ATOM     18  C   UNL     1     -30.626  28.479   6.395  0.00  0.00    +0.185 C 
ATOM     19  H   UNL     1     -32.320  29.406   7.098  0.00  0.00    +0.159 HD
ATOM     20  H   UNL     1     -31.003  29.419   8.183  0.00  0.00    +0.159 HD
ATOM     21  H   UNL     1     -28.712  27.746   6.301  0.00  0.00    +0.159 HD
ATOM     22  H   UNL     1     -29.094  28.541   7.760  0.00  0.00    +0.159 HD
ENDBRANCH  15  18
ENDBRANCH  14  15
ENDBRANCH   9  14
BRANCH   2  23
ATOM     23  C   UNL     1     -35.123  22.963   2.975  0.00  0.00    +0.093 C 
BRANCH  23  24
ATOM     24  C   UNL     1     -35.744  22.061   4.037  0.00  0.00    +0.021 C 
ATOM     25  C   UNL     1     -35.147  22.280   5.420  0.00  0.00    +0.002 C 
ENDBRANCH  23  24
ENDBRANCH   2  23
TORSDOF 5
ENDMDL
MODEL 6
REMARK VINA RESULT:      -5.3      3.065      6.649
REMARK  Name = 193326
REMARK  5 active torsions:
REMARK  status: ('A' for Active; 'I' for Inactive)
REMARK    1  A    between atoms: N_2  and  C_23
REMARK    2  A    between atoms: C_9  and  C_14
REMARK    3  A    between atoms: C_14  and  N_15
REMARK    4  A    between atoms: N_15  and  C_18
REMARK    5  A    between atoms: C_23  and  C_24
REMARK                            x       y       z     vdW  Elec       q    Type
REMARK                         _______ _______ _______ _____ _____    ______ ____
ROOT
ATOM      1 CL   UNL     1     -34.475  22.994   0.246  0.00  0.00    -0.044 Cl
ATOM      2  N   UNL     1     -35.312  20.278   1.322  0.00  0.00    -0.279 N 
ATOM      3  N   UNL     1     -35.608  21.059   3.542  0.00  0.00    -0.366 NA
ATOM      4  N   UNL     1     -34.856  23.633   2.717  0.00  0.00    -0.378 NA
ATOM      5  C   UNL     1     -35.277  21.322   2.257  0.00  0.00    +0.226 C 
ATOM      6  C   UNL     1     -34.094  19.899   0.603  0.00  0.00    +0.115 C 
ATOM      7  C   UNL     1     -34.907  22.595   1.858  0.00  0.00    +0.233 C 
ATOM      8  C   UNL     1     -35.558  22.097   4.400  0.00  0.00    +0.213 C 
ATOM      9  C   UNL     1     -35.188  23.361   3.995  0.00  0.00    +0.231 C 
ATOM     10  N   UNL     1     -35.894  21.875   5.754  0.00  0.00    -0.331 N 
ATOM     11  H   UNL     1     -36.159  20.975   6.055  0.00  0.00    +0.145 HD
ATOM     12  H   UNL     1     -35.863  22.620   6.397  0.00  0.00    +0.145 HD
ENDROOT
BRANCH   9  14
ATOM     13  O   UNL     1     -36.138  24.856   5.536  0.00  0.00    -0.265 OA
ATOM     14  C   UNL     1     -35.127  24.495   4.904  0.00  0.00    +0.305 C 
BRANCH  14  15
ATOM     15  N   UNL     1     -33.888  25.113   5.058  0.00  0.00    -0.141 NA
BRANCH  15  18
ATOM     16  N   UNL     1     -33.132  27.058   6.257  0.00  0.00    -0.372 N 
ATOM     17  N   UNL     1     -34.488  27.275   4.436  0.00  0.00    -0.372 N 
ATOM     18  C   UNL     1     -33.818  26.402   5.261  0.00  0.00    +0.185 C 
ATOM     19  H   UNL     1     -32.609  26.545   6.916  0.00  0.00    +0.159 HD
ATOM     20  H   UNL     1     -33.163  28.041   6.313  0.00  0.00    +0.159 HD
ATOM     21  H   UNL     1     -35.018  26.931   3.683  0.00  0.00    +0.159 HD
ATOM     22  H   UNL     1     -34.439  28.244   4.601  0.00  0.00    +0.159 HD
ENDBRANCH  15  18
ENDBRANCH  14  15
ENDBRANCH   9  14
BRANCH   2  23
ATOM     23  C   UNL     1     -36.528  19.547   1.055  0.00  0.00    +0.093 C 
BRANCH  23  24
ATOM     24  C   UNL     1     -37.365  20.261  -0.002  0.00  0.00    +0.021 C 
ATOM     25  C   UNL     1     -38.586  20.958   0.583  0.00  0.00    +0.002 C 
ENDBRANCH  23  24
ENDBRANCH   2  23
TORSDOF 5
ENDMDL
MODEL 7
REMARK VINA RESULT:      -5.2      2.782      6.311
REMARK  Name = 193326
REMARK  5 active torsions:
REMARK  status: ('A' for Active; 'I' for Inactive)
REMARK    1  A    between atoms: N_2  and  C_23
REMARK    2  A    between atoms: C_9  and  C_14
REMARK    3  A    between atoms: C_14  and  N_15
REMARK    4  A    between atoms: N_15  and  C_18
REMARK    5  A    between atoms: C_23  and  C_24
REMARK                            x       y       z     vdW  Elec       q    Type
REMARK                         _______ _______ _______ _____ _____    ______ ____
ROOT
ATOM      1 CL   UNL     1     -34.323  23.218   1.170  0.00  0.00    -0.044 Cl
ATOM      2  N   UNL     1     -36.887  22.617   2.688  0.00  0.00    -0.279 N 
ATOM      3  N   UNL     1     -36.640  24.451   4.170  0.00  0.00    -0.366 NA
ATOM      4  N   UNL     1     -34.248  25.148   2.881  0.00  0.00    -0.378 NA
ATOM      5  C   UNL     1     -36.163  23.734   3.127  0.00  0.00    +0.226 C 
ATOM      6  C   UNL     1     -36.267  21.291   2.705  0.00  0.00    +0.115 C 
ATOM      7  C   UNL     1     -34.982  24.085   2.496  0.00  0.00    +0.233 C 
ATOM      8  C   UNL     1     -35.905  25.515   4.554  0.00  0.00    +0.213 C 
ATOM      9  C   UNL     1     -34.731  25.857   3.920  0.00  0.00    +0.231 C 
ATOM     10  N   UNL     1     -36.360  26.297   5.640  0.00  0.00    -0.331 N 
ATOM     11  H   UNL     1     -37.198  26.061   6.100  0.00  0.00    +0.145 HD
ATOM     12  H   UNL     1     -35.838  27.078   5.935  0.00  0.00    +0.145 HD
ENDROOT
BRANCH   9  14
ATOM     13  O   UNL     1     -34.201  28.144   3.910  0.00  0.00    -0.265 OA
ATOM     14  C   UNL     1     -33.924  27.000   4.318  0.00  0.00    +0.305 C 
BRANCH  14  15
ATOM     15  N   UNL     1     -32.872  26.754   5.197  0.00  0.00    -0.141 NA
BRANCH  15  18
ATOM     16  N   UNL     1     -32.212  28.951   5.924  0.00  0.00    -0.372 N 
ATOM     17  N   UNL     1     -32.542  27.279   7.440  0.00  0.00    -0.372 N 
ATOM     18  C   UNL     1     -32.560  27.633   6.112  0.00  0.00    +0.185 C 
ATOM     19  H   UNL     1     -32.187  29.330   5.015  0.00  0.00    +0.159 HD
ATOM     20  H   UNL     1     -31.986  29.517   6.699  0.00  0.00    +0.159 HD
ATOM     21  H   UNL     1     -32.772  26.362   7.709  0.00  0.00    +0.159 HD
ATOM     22  H   UNL     1     -32.296  27.945   8.123  0.00  0.00    +0.159 HD
ENDBRANCH  15  18
ENDBRANCH  14  15
ENDBRANCH   9  14
BRANCH   2  23
ATOM     23  C   UNL     1     -38.248  22.737   2.224  0.00  0.00    +0.093 C 
BRANCH  23  24
ATOM     24  C   UNL     1     -38.359  22.321   0.761  0.00  0.00    +0.021 C 
ATOM     25  C   UNL     1     -39.289  21.132   0.554  0.00  0.00    +0.002 C 
ENDBRANCH  23  24
ENDBRANCH   2  23
TORSDOF 5
ENDMDL
MODEL 8
REMARK VINA RESULT:      -5.2      3.276      4.962
REMARK  Name = 193326
REMARK  5 active torsions:
REMARK  status: ('A' for Active; 'I' for Inactive)
REMARK    1  A    between atoms: N_2  and  C_23
REMARK    2  A    between atoms: C_9  and  C_14
REMARK    3  A    between atoms: C_14  and  N_15
REMARK    4  A    between atoms: N_15  and  C_18
REMARK    5  A    between atoms: C_23  and  C_24
REMARK                            x       y       z     vdW  Elec       q    Type
REMARK                         _______ _______ _______ _____ _____    ______ ____
ROOT
ATOM      1 CL   UNL     1     -34.428  24.292   1.544  0.00  0.00    -0.044 Cl
ATOM      2  N   UNL     1     -35.097  25.155   4.381  0.00  0.00    -0.279 N 
ATOM      3  N   UNL     1     -37.438  24.918   4.083  0.00  0.00    -0.366 NA
ATOM      4  N   UNL     1     -37.000  24.103   1.435  0.00  0.00    -0.378 NA
ATOM      5  C   UNL     1     -36.190  24.829   3.566  0.00  0.00    +0.226 C 
ATOM      6  C   UNL     1     -34.194  26.241   3.994  0.00  0.00    +0.115 C 
ATOM      7  C   UNL     1     -35.983  24.425   2.259  0.00  0.00    +0.233 C 
ATOM      8  C   UNL     1     -38.453  24.595   3.258  0.00  0.00    +0.213 C 
ATOM      9  C   UNL     1     -38.238  24.194   1.958  0.00  0.00    +0.231 C 
ATOM     10  N   UNL     1     -39.777  24.672   3.749  0.00  0.00    -0.331 N 
ATOM     11  H   UNL     1     -39.942  24.958   4.677  0.00  0.00    +0.145 HD
ATOM     12  H   UNL     1     -40.533  24.441   3.162  0.00  0.00    +0.145 HD
ENDROOT
BRANCH   9  14
ATOM     13  O   UNL     1     -40.312  24.585   0.928  0.00  0.00    -0.265 OA
ATOM     14  C   UNL     1     -39.320  23.841   1.052  0.00  0.00    +0.305 C 
BRANCH  14  15
ATOM     15  N   UNL     1     -39.167  22.670   0.313  0.00  0.00    -0.141 NA
BRANCH  15  18
ATOM     16  N   UNL     1     -38.725  20.315   0.538  0.00  0.00    -0.372 N 
ATOM     17  N   UNL     1     -40.162  21.365   1.965  0.00  0.00    -0.372 N 
ATOM     18  C   UNL     1     -39.319  21.506   0.887  0.00  0.00    +0.185 C 
ATOM     19  H   UNL     1     -38.096  20.281  -0.221  0.00  0.00    +0.159 HD
ATOM     20  H   UNL     1     -38.928  19.495   1.045  0.00  0.00    +0.159 HD
ATOM     21  H   UNL     1     -40.649  22.145   2.314  0.00  0.00    +0.159 HD
ATOM     22  H   UNL     1     -40.278  20.482   2.385  0.00  0.00    +0.159 HD
ENDBRANCH  15  18
ENDBRANCH  14  15
ENDBRANCH   9  14
BRANCH   2  23
ATOM     23  C   UNL     1     -34.839  24.449   5.613  0.00  0.00    +0.093 C 
BRANCH  23  24
ATOM     24  C   UNL     1     -34.770  22.945   5.369  0.00  0.00    +0.021 C 
ATOM     25  C   UNL     1     -35.433  22.136   6.476  0.00  0.00    +0.002 C 
ENDBRANCH  23  24
ENDBRANCH   2  23
TORSDOF 5
ENDMDL
MODEL 9
REMARK VINA RESULT:      -5.2      1.428      1.876
REMARK  Name = 193326
REMARK  5 active torsions:
REMARK  status: ('A' for Active; 'I' for Inactive)
REMARK    1  A    between atoms: N_2  and  C_23
REMARK    2  A    between atoms: C_9  and  C_14
REMARK    3  A    between atoms: C_14  and  N_15
REMARK    4  A    between atoms: N_15  and  C_18
REMARK    5  A    between atoms: C_23  and  C_24
REMARK                            x       y       z     vdW  Elec       q    Type
REMARK                         _______ _______ _______ _____ _____    ______ ____
ROOT
ATOM      1 CL   UNL     1     -31.947  25.846   1.870  0.00  0.00    -0.044 Cl
ATOM      2  N   UNL     1     -32.782  28.418   3.258  0.00  0.00    -0.279 N 
ATOM      3  N   UNL     1     -34.625  27.421   4.369  0.00  0.00    -0.366 NA
ATOM      4  N   UNL     1     -33.996  24.964   3.169  0.00  0.00    -0.378 NA
ATOM      5  C   UNL     1     -33.572  27.292   3.530  0.00  0.00    +0.226 C 
ATOM      6  C   UNL     1     -32.651  28.905   1.884  0.00  0.00    +0.115 C 
ATOM      7  C   UNL     1     -33.268  26.076   2.943  0.00  0.00    +0.233 C 
ATOM      8  C   UNL     1     -35.352  26.309   4.595  0.00  0.00    +0.213 C 
ATOM      9  C   UNL     1     -35.043  25.102   4.007  0.00  0.00    +0.231 C 
ATOM     10  N   UNL     1     -36.464  26.390   5.464  0.00  0.00    -0.331 N 
ATOM     11  H   UNL     1     -36.694  27.248   5.890  0.00  0.00    +0.145 HD
ATOM     12  H   UNL     1     -37.008  25.589   5.642  0.00  0.00    +0.145 HD
ENDROOT
BRANCH   9  14
ATOM     13  O   UNL     1     -36.101  23.533   5.396  0.00  0.00    -0.265 OA
ATOM     14  C   UNL     1     -35.814  23.891   4.238  0.00  0.00    +0.305 C 
BRANCH  14  15
ATOM     15  N   UNL     1     -36.240  23.190   3.112  0.00  0.00    -0.141 NA
BRANCH  15  18
ATOM     16  N   UNL     1     -38.082  21.792   2.445  0.00  0.00    -0.372 N 
ATOM     17  N   UNL     1     -38.454  23.900   3.230  0.00  0.00    -0.372 N 
ATOM     18  C   UNL     1     -37.511  22.945   2.933  0.00  0.00    +0.185 C 
ATOM     19  H   UNL     1     -37.512  21.028   2.193  0.00  0.00    +0.159 HD
ATOM     20  H   UNL     1     -39.060  21.729   2.345  0.00  0.00    +0.159 HD
ATOM     21  H   UNL     1     -38.175  24.773   3.588  0.00  0.00    +0.159 HD
ATOM     22  H   UNL     1     -39.409  23.711   3.083  0.00  0.00    +0.159 HD
ENDBRANCH  15  18
ENDBRANCH  14  15
ENDBRANCH   9  14
BRANCH   2  23
ATOM     23  C   UNL     1     -32.096  29.128   4.311  0.00  0.00    +0.093 C 
BRANCH  23  24
ATOM     24  C   UNL     1     -32.547  30.584   4.362  0.00  0.00    +0.021 C 
ATOM     25  C   UNL     1     -31.381  31.564   4.350  0.00  0.00    +0.002 C 
ENDBRANCH  23  24
ENDBRANCH   2  23
TORSDOF 5
ENDMDL
