MODEL 1
REMARK VINA RESULT:      -7.6      0.000      0.000
REMARK  Name = 54689507
REMARK  4 active torsions:
REMARK  status: ('A' for Active; 'I' for Inactive)
REMARK    1  A    between atoms: C_9  and  O_24
REMARK    2  A    between atoms: C_11  and  O_26
REMARK    3  A    between atoms: C_18  and  O_30
REMARK    4  A    between atoms: C_19  and  O_28
REMARK                            x       y       z     vdW  Elec       q    Type
REMARK                         _______ _______ _______ _____ _____    ______ ____
ROOT
ATOM      1  O   UNL     1     -36.241  24.205   1.525  0.00  0.00    -0.350 OA
ATOM      2  O   UNL     1     -36.738  24.473   5.043  0.00  0.00    -0.450 OA
ATOM      3  O   UNL     1     -39.276  23.743   0.517  0.00  0.00    -0.293 OA
ATOM      4  O   UNL     1     -35.991  22.501   5.974  0.00  0.00    -0.245 OA
ATOM      5  C   UNL     1     -36.579  25.042   3.751  0.00  0.00    +0.167 C 
ATOM      6  C   UNL     1     -36.797  23.875   2.797  0.00  0.00    +0.162 C 
ATOM      7  C   UNL     1     -37.704  25.961   3.225  0.00  0.00    +0.096 C 
ATOM      8  C   UNL     1     -38.333  23.657   2.733  0.00  0.00    +0.120 C 
ATOM      9  C   UNL     1     -38.915  25.010   3.187  0.00  0.00    +0.131 C 
ATOM     10  C   UNL     1     -36.040  25.624   1.348  0.00  0.00    +0.142 C 
ATOM     11  C   UNL     1     -37.302  26.402   1.789  0.00  0.00    +0.143 C 
ATOM     12  C   UNL     1     -35.194  25.715   3.667  0.00  0.00    +0.046 C 
ATOM     13  C   UNL     1     -34.837  26.032   2.213  0.00  0.00    +0.033 C 
ATOM     14  C   UNL     1     -36.179  22.760   3.555  0.00  0.00    +0.111 C 
ATOM     15  C   UNL     1     -38.743  23.058   1.391  0.00  0.00    +0.179 C 
ATOM     16  C   UNL     1     -36.250  23.183   4.999  0.00  0.00    +0.342 C 
ATOM     17  C   UNL     1     -33.555  25.311   1.790  0.00  0.00    +0.003 C 
ATOM     18  C   UNL     1     -35.766  21.552   3.137  0.00  0.00    +0.115 C 
ATOM     19  C   UNL     1     -38.390  21.568   1.143  0.00  0.00    +0.140 C 
ATOM     20  C   UNL     1     -35.846  20.971   1.731  0.00  0.00    +0.059 C 
ATOM     21  C   UNL     1     -36.916  21.426   0.697  0.00  0.00    +0.042 C 
ATOM     22  C   UNL     1     -39.327  21.035   0.046  0.00  0.00    +0.037 C 
ATOM     23  C   UNL     1     -34.458  21.058   1.077  0.00  0.00    +0.008 C 
ENDROOT
BRANCH   9  24
ATOM     24  O   UNL     1     -40.029  25.497   2.472  0.00  0.00    -0.353 OA
ATOM     25  C   UNL     1     -40.943  26.190   3.317  0.00  0.00    +0.174 C 
ENDBRANCH   9  24
BRANCH  11  26
ATOM     26  O   UNL     1     -37.058  27.805   1.785  0.00  0.00    -0.382 OA
ATOM     27  H   UNL     1     -36.208  27.984   1.354  0.00  0.00    +0.210 HD
ENDBRANCH  11  26
BRANCH  19  28
ATOM     28  O   UNL     1     -38.660  20.811   2.311  0.00  0.00    -0.380 OA
ATOM     29  H   UNL     1     -38.291  19.920   2.210  0.00  0.00    +0.211 HD
ENDBRANCH  19  28
BRANCH  18  30
ATOM     30  O   UNL     1     -35.239  20.622   4.025  0.00  0.00    -0.510 OA
ATOM     31  H   UNL     1     -35.780  19.935   4.361  0.00  0.00    +0.292 HD
ENDBRANCH  18  30
TORSDOF 4
ENDMDL
MODEL 2
REMARK VINA RESULT:      -7.2      1.635      5.599
REMARK  Name = 54689507
REMARK  4 active torsions:
REMARK  status: ('A' for Active; 'I' for Inactive)
REMARK    1  A    between atoms: C_9  and  O_24
REMARK    2  A    between atoms: C_11  and  O_26
REMARK    3  A    between atoms: C_18  and  O_30
REMARK    4  A    between atoms: C_19  and  O_28
REMARK                            x       y       z     vdW  Elec       q    Type
REMARK                         _______ _______ _______ _____ _____    ______ ____
ROOT
ATOM      1  O   UNL     1     -35.333  24.254   1.833  0.00  0.00    -0.350 OA
ATOM      2  O   UNL     1     -38.483  24.363   3.497  0.00  0.00    -0.450 OA
ATOM      3  O   UNL     1     -33.328  24.877   4.288  0.00  0.00    -0.293 OA
ATOM      4  O   UNL     1     -39.492  26.343   2.885  0.00  0.00    -0.245 OA
ATOM      5  C   UNL     1     -37.359  23.663   2.983  0.00  0.00    +0.167 C 
ATOM      6  C   UNL     1     -36.318  24.749   2.738  0.00  0.00    +0.162 C 
ATOM      7  C   UNL     1     -36.537  22.798   3.965  0.00  0.00    +0.096 C 
ATOM      8  C   UNL     1     -35.724  25.091   4.132  0.00  0.00    +0.120 C 
ATOM      9  C   UNL     1     -36.033  23.841   4.980  0.00  0.00    +0.131 C 
ATOM     10  C   UNL     1     -35.321  22.812   1.746  0.00  0.00    +0.142 C 
ATOM     11  C   UNL     1     -35.352  22.190   3.162  0.00  0.00    +0.143 C 
ATOM     12  C   UNL     1     -37.790  22.869   1.734  0.00  0.00    +0.046 C 
ATOM     13  C   UNL     1     -36.567  22.386   0.952  0.00  0.00    +0.033 C 
ATOM     14  C   UNL     1     -37.173  25.873   2.286  0.00  0.00    +0.111 C 
ATOM     15  C   UNL     1     -34.288  25.593   4.002  0.00  0.00    +0.179 C 
ATOM     16  C   UNL     1     -38.530  25.597   2.880  0.00  0.00    +0.342 C 
ATOM     17  C   UNL     1     -36.561  22.951  -0.469  0.00  0.00    +0.003 C 
ATOM     18  C   UNL     1     -36.848  26.996   1.624  0.00  0.00    +0.115 C 
ATOM     19  C   UNL     1     -34.086  27.017   3.422  0.00  0.00    +0.140 C 
ATOM     20  C   UNL     1     -35.466  27.446   1.167  0.00  0.00    +0.059 C 
ATOM     21  C   UNL     1     -34.159  26.989   1.877  0.00  0.00    +0.042 C 
ATOM     22  C   UNL     1     -32.706  27.522   3.875  0.00  0.00    +0.037 C 
ATOM     23  C   UNL     1     -35.330  27.179  -0.340  0.00  0.00    +0.008 C 
ENDROOT
BRANCH   9  24
ATOM     24  O   UNL     1     -35.012  23.387   5.840  0.00  0.00    -0.353 OA
ATOM     25  C   UNL     1     -35.381  22.188   6.518  0.00  0.00    +0.174 C 
ENDBRANCH   9  24
BRANCH  11  26
ATOM     26  O   UNL     1     -35.516  20.777   3.090  0.00  0.00    -0.382 OA
ATOM     27  H   UNL     1     -34.646  20.353   3.043  0.00  0.00    +0.210 HD
ENDBRANCH  11  26
BRANCH  19  28
ATOM     28  O   UNL     1     -35.044  27.901   3.977  0.00  0.00    -0.380 OA
ATOM     29  H   UNL     1     -35.312  28.550   3.307  0.00  0.00    +0.211 HD
ENDBRANCH  19  28
BRANCH  18  30
ATOM     30  O   UNL     1     -37.805  27.958   1.321  0.00  0.00    -0.510 OA
ATOM     31  H   UNL     1     -38.708  27.716   1.253  0.00  0.00    +0.292 HD
ENDBRANCH  18  30
TORSDOF 4
ENDMDL
MODEL 3
REMARK VINA RESULT:      -6.6      1.911      3.701
REMARK  Name = 54689507
REMARK  4 active torsions:
REMARK  status: ('A' for Active; 'I' for Inactive)
REMARK    1  A    between atoms: C_9  and  O_24
REMARK    2  A    between atoms: C_11  and  O_26
REMARK    3  A    between atoms: C_18  and  O_30
REMARK    4  A    between atoms: C_19  and  O_28
REMARK                            x       y       z     vdW  Elec       q    Type
REMARK                         _______ _______ _______ _____ _____    ______ ____
ROOT
ATOM      1  O   UNL     1     -34.754  23.955   3.254  0.00  0.00    -0.350 OA
ATOM      2  O   UNL     1     -37.913  25.558   3.634  0.00  0.00    -0.450 OA
ATOM      3  O   UNL     1     -33.758  25.231   0.458  0.00  0.00    -0.293 OA
ATOM      4  O   UNL     1     -39.524  23.980   3.160  0.00  0.00    -0.245 OA
ATOM      5  C   UNL     1     -36.519  25.458   3.886  0.00  0.00    +0.167 C 
ATOM      6  C   UNL     1     -36.018  24.469   2.840  0.00  0.00    +0.162 C 
ATOM      7  C   UNL     1     -35.626  26.656   3.492  0.00  0.00    +0.096 C 
ATOM      8  C   UNL     1     -35.926  25.267   1.510  0.00  0.00    +0.120 C 
ATOM      9  C   UNL     1     -35.837  26.736   1.968  0.00  0.00    +0.131 C 
ATOM     10  C   UNL     1     -34.108  24.779   4.249  0.00  0.00    +0.142 C 
ATOM     11  C   UNL     1     -34.159  26.266   3.827  0.00  0.00    +0.143 C 
ATOM     12  C   UNL     1     -36.303  25.032   5.352  0.00  0.00    +0.046 C 
ATOM     13  C   UNL     1     -34.859  24.577   5.575  0.00  0.00    +0.033 C 
ATOM     14  C   UNL     1     -37.159  23.526   2.762  0.00  0.00    +0.111 C 
ATOM     15  C   UNL     1     -34.852  24.682   0.598  0.00  0.00    +0.179 C 
ATOM     16  C   UNL     1     -38.356  24.322   3.213  0.00  0.00    +0.342 C 
ATOM     17  C   UNL     1     -34.805  23.124   6.049  0.00  0.00    +0.003 C 
ATOM     18  C   UNL     1     -37.219  22.278   2.269  0.00  0.00    +0.115 C 
ATOM     19  C   UNL     1     -35.165  23.326  -0.085  0.00  0.00    +0.140 C 
ATOM     20  C   UNL     1     -36.102  21.477   1.611  0.00  0.00    +0.059 C 
ATOM     21  C   UNL     1     -34.902  22.153   0.888  0.00  0.00    +0.042 C 
ATOM     22  C   UNL     1     -34.259  23.197  -1.322  0.00  0.00    +0.037 C 
ATOM     23  C   UNL     1     -35.560  20.457   2.624  0.00  0.00    +0.008 C 
ENDROOT
BRANCH   9  24
ATOM     24  O   UNL     1     -34.920  27.562   1.285  0.00  0.00    -0.353 OA
ATOM     25  C   UNL     1     -35.227  28.944   1.445  0.00  0.00    +0.174 C 
ENDBRANCH   9  24
BRANCH  11  26
ATOM     26  O   UNL     1     -33.683  27.105   4.875  0.00  0.00    -0.382 OA
ATOM     27  H   UNL     1     -33.117  26.589   5.470  0.00  0.00    +0.210 HD
ENDBRANCH  11  26
BRANCH  19  28
ATOM     28  O   UNL     1     -36.501  23.325  -0.559  0.00  0.00    -0.380 OA
ATOM     29  H   UNL     1     -37.104  23.127   0.175  0.00  0.00    +0.211 HD
ENDBRANCH  19  28
BRANCH  18  30
ATOM     30  O   UNL     1     -38.411  21.563   2.257  0.00  0.00    -0.510 OA
ATOM     31  H   UNL     1     -38.777  21.274   1.444  0.00  0.00    +0.292 HD
ENDBRANCH  18  30
TORSDOF 4
ENDMDL
MODEL 4
REMARK VINA RESULT:      -6.6      1.632      5.485
REMARK  Name = 54689507
REMARK  4 active torsions:
REMARK  status: ('A' for Active; 'I' for Inactive)
REMARK    1  A    between atoms: C_9  and  O_24
REMARK    2  A    between atoms: C_11  and  O_26
REMARK    3  A    between atoms: C_18  and  O_30
REMARK    4  A    between atoms: C_19  and  O_28
REMARK                            x       y       z     vdW  Elec       q    Type
REMARK                         _______ _______ _______ _____ _____    ______ ____
ROOT
ATOM      1  O   UNL     1     -35.321  24.102   1.669  0.00  0.00    -0.350 OA
ATOM      2  O   UNL     1     -38.468  22.973   2.903  0.00  0.00    -0.450 OA
ATOM      3  O   UNL     1     -33.633  24.312   4.416  0.00  0.00    -0.293 OA
ATOM      4  O   UNL     1     -39.904  24.773   2.812  0.00  0.00    -0.245 OA
ATOM      5  C   UNL     1     -37.186  22.741   2.335  0.00  0.00    +0.167 C 
ATOM      6  C   UNL     1     -36.434  24.047   2.560  0.00  0.00    +0.162 C 
ATOM      7  C   UNL     1     -36.220  21.805   3.094  0.00  0.00    +0.096 C 
ATOM      8  C   UNL     1     -36.000  24.037   4.051  0.00  0.00    +0.120 C 
ATOM      9  C   UNL     1     -36.029  22.544   4.432  0.00  0.00    +0.131 C 
ATOM     10  C   UNL     1     -34.953  22.806   1.146  0.00  0.00    +0.142 C 
ATOM     11  C   UNL     1     -34.890  21.766   2.290  0.00  0.00    +0.143 C 
ATOM     12  C   UNL     1     -37.359  22.324   0.861  0.00  0.00    +0.046 C 
ATOM     13  C   UNL     1     -36.023  22.402   0.119  0.00  0.00    +0.033 C 
ATOM     14  C   UNL     1     -37.518  25.042   2.377  0.00  0.00    +0.111 C 
ATOM     15  C   UNL     1     -34.726  24.855   4.252  0.00  0.00    +0.179 C 
ATOM     16  C   UNL     1     -38.790  24.298   2.692  0.00  0.00    +0.342 C 
ATOM     17  C   UNL     1     -36.096  23.386  -1.050  0.00  0.00    +0.003 C 
ATOM     18  C   UNL     1     -37.451  26.362   2.134  0.00  0.00    +0.115 C 
ATOM     19  C   UNL     1     -34.855  26.398   4.164  0.00  0.00    +0.140 C 
ATOM     20  C   UNL     1     -36.203  27.226   2.004  0.00  0.00    +0.059 C 
ATOM     21  C   UNL     1     -34.855  26.860   2.688  0.00  0.00    +0.042 C 
ATOM     22  C   UNL     1     -33.661  27.017   4.910  0.00  0.00    +0.037 C 
ATOM     23  C   UNL     1     -35.944  27.502   0.515  0.00  0.00    +0.008 C 
ENDROOT
BRANCH   9  24
ATOM     24  O   UNL     1     -34.965  22.068   5.226  0.00  0.00    -0.353 OA
ATOM     25  C   UNL     1     -35.297  22.058   6.612  0.00  0.00    +0.174 C 
ENDBRANCH   9  24
BRANCH  11  26
ATOM     26  O   UNL     1     -34.700  20.454   1.769  0.00  0.00    -0.382 OA
ATOM     27  H   UNL     1     -35.065  19.804   2.389  0.00  0.00    +0.210 HD
ENDBRANCH  11  26
BRANCH  19  28
ATOM     28  O   UNL     1     -36.023  26.821   4.847  0.00  0.00    -0.380 OA
ATOM     29  H   UNL     1     -35.812  27.587   5.403  0.00  0.00    +0.211 HD
ENDBRANCH  19  28
BRANCH  18  30
ATOM     30  O   UNL     1     -38.601  27.136   2.030  0.00  0.00    -0.510 OA
ATOM     31  H   UNL     1     -39.269  27.074   2.684  0.00  0.00    +0.292 HD
ENDBRANCH  18  30
TORSDOF 4
ENDMDL
MODEL 5
REMARK VINA RESULT:      -6.5      1.662      4.603
REMARK  Name = 54689507
REMARK  4 active torsions:
REMARK  status: ('A' for Active; 'I' for Inactive)
REMARK    1  A    between atoms: C_9  and  O_24
REMARK    2  A    between atoms: C_11  and  O_26
REMARK    3  A    between atoms: C_18  and  O_30
REMARK    4  A    between atoms: C_19  and  O_28
REMARK                            x       y       z     vdW  Elec       q    Type
REMARK                         _______ _______ _______ _____ _____    ______ ____
ROOT
ATOM      1  O   UNL     1     -34.679  24.016   2.150  0.00  0.00    -0.350 OA
ATOM      2  O   UNL     1     -38.073  24.897   1.515  0.00  0.00    -0.450 OA
ATOM      3  O   UNL     1     -35.026  20.979   3.198  0.00  0.00    -0.293 OA
ATOM      4  O   UNL     1     -38.724  26.312   3.213  0.00  0.00    -0.245 OA
ATOM      5  C   UNL     1     -36.800  24.424   1.097  0.00  0.00    +0.167 C 
ATOM      6  C   UNL     1     -36.083  24.078   2.397  0.00  0.00    +0.162 C 
ATOM      7  C   UNL     1     -36.730  23.029   0.437  0.00  0.00    +0.096 C 
ATOM      8  C   UNL     1     -36.665  22.713   2.854  0.00  0.00    +0.120 C 
ATOM      9  C   UNL     1     -37.242  22.107   1.559  0.00  0.00    +0.131 C 
ATOM     10  C   UNL     1     -34.359  23.854   0.751  0.00  0.00    +0.142 C 
ATOM     11  C   UNL     1     -35.234  22.742   0.126  0.00  0.00    +0.143 C 
ATOM     12  C   UNL     1     -36.120  25.507   0.236  0.00  0.00    +0.046 C 
ATOM     13  C   UNL     1     -34.633  25.198   0.056  0.00  0.00    +0.033 C 
ATOM     14  C   UNL     1     -36.582  25.145   3.297  0.00  0.00    +0.111 C 
ATOM     15  C   UNL     1     -35.642  21.933   3.675  0.00  0.00    +0.179 C 
ATOM     16  C   UNL     1     -37.904  25.566   2.709  0.00  0.00    +0.342 C 
ATOM     17  C   UNL     1     -33.762  26.323   0.619  0.00  0.00    +0.003 C 
ATOM     18  C   UNL     1     -36.098  25.585   4.470  0.00  0.00    +0.115 C 
ATOM     19  C   UNL     1     -35.354  22.440   5.112  0.00  0.00    +0.140 C 
ATOM     20  C   UNL     1     -34.882  25.073   5.231  0.00  0.00    +0.059 C 
ATOM     21  C   UNL     1     -34.353  23.618   5.082  0.00  0.00    +0.042 C 
ATOM     22  C   UNL     1     -34.767  21.269   5.919  0.00  0.00    +0.037 C 
ATOM     23  C   UNL     1     -33.715  26.049   5.017  0.00  0.00    +0.008 C 
ENDROOT
BRANCH   9  24
ATOM     24  O   UNL     1     -37.020  20.731   1.345  0.00  0.00    -0.353 OA
ATOM     25  C   UNL     1     -37.792  20.229   0.258  0.00  0.00    +0.174 C 
ENDBRANCH   9  24
BRANCH  11  26
ATOM     26  O   UNL     1     -35.053  22.691  -1.285  0.00  0.00    -0.382 OA
ATOM     27  H   UNL     1     -34.323  23.275  -1.540  0.00  0.00    +0.210 HD
ENDBRANCH  11  26
BRANCH  19  28
ATOM     28  O   UNL     1     -36.570  22.800   5.746  0.00  0.00    -0.380 OA
ATOM     29  H   UNL     1     -36.484  22.673   6.704  0.00  0.00    +0.211 HD
ENDBRANCH  19  28
BRANCH  18  30
ATOM     30  O   UNL     1     -36.743  26.586   5.187  0.00  0.00    -0.510 OA
ATOM     31  H   UNL     1     -36.243  27.213   5.672  0.00  0.00    +0.292 HD
ENDBRANCH  18  30
TORSDOF 4
ENDMDL
MODEL 6
REMARK VINA RESULT:      -6.1      1.838      3.423
REMARK  Name = 54689507
REMARK  4 active torsions:
REMARK  status: ('A' for Active; 'I' for Inactive)
REMARK    1  A    between atoms: C_9  and  O_24
REMARK    2  A    between atoms: C_11  and  O_26
REMARK    3  A    between atoms: C_18  and  O_30
REMARK    4  A    between atoms: C_19  and  O_28
REMARK                            x       y       z     vdW  Elec       q    Type
REMARK                         _______ _______ _______ _____ _____    ______ ____
ROOT
ATOM      1  O   UNL     1     -36.105  24.717   0.849  0.00  0.00    -0.350 OA
ATOM      2  O   UNL     1     -33.889  25.580   3.503  0.00  0.00    -0.450 OA
ATOM      3  O   UNL     1     -38.378  26.987   1.194  0.00  0.00    -0.293 OA
ATOM      4  O   UNL     1     -34.194  24.012   5.164  0.00  0.00    -0.245 OA
ATOM      5  C   UNL     1     -34.295  25.625   2.142  0.00  0.00    +0.167 C 
ATOM      6  C   UNL     1     -35.736  25.131   2.164  0.00  0.00    +0.162 C 
ATOM      7  C   UNL     1     -34.554  27.012   1.513  0.00  0.00    +0.096 C 
ATOM      8  C   UNL     1     -36.589  26.327   2.668  0.00  0.00    +0.120 C 
ATOM      9  C   UNL     1     -35.706  27.557   2.378  0.00  0.00    +0.131 C 
ATOM     10  C   UNL     1     -35.242  25.257  -0.175  0.00  0.00    +0.142 C 
ATOM     11  C   UNL     1     -35.026  26.772   0.051  0.00  0.00    +0.143 C 
ATOM     12  C   UNL     1     -33.320  24.779   1.300  0.00  0.00    +0.046 C 
ATOM     13  C   UNL     1     -33.900  24.512  -0.090  0.00  0.00    +0.033 C 
ATOM     14  C   UNL     1     -35.674  24.098   3.225  0.00  0.00    +0.111 C 
ATOM     15  C   UNL     1     -38.009  26.256   2.114  0.00  0.00    +0.179 C 
ATOM     16  C   UNL     1     -34.510  24.499   4.094  0.00  0.00    +0.342 C 
ATOM     17  C   UNL     1     -34.061  23.012  -0.343  0.00  0.00    +0.003 C 
ATOM     18  C   UNL     1     -36.517  23.090   3.503  0.00  0.00    +0.115 C 
ATOM     19  C   UNL     1     -38.945  25.170   2.705  0.00  0.00    +0.140 C 
ATOM     20  C   UNL     1     -37.822  22.741   2.799  0.00  0.00    +0.059 C 
ATOM     21  C   UNL     1     -38.674  23.799   2.041  0.00  0.00    +0.042 C 
ATOM     22  C   UNL     1     -40.398  25.603   2.443  0.00  0.00    +0.037 C 
ATOM     23  C   UNL     1     -37.578  21.543   1.868  0.00  0.00    +0.008 C 
ENDROOT
BRANCH   9  24
ATOM     24  O   UNL     1     -36.352  28.697   1.856  0.00  0.00    -0.353 OA
ATOM     25  C   UNL     1     -35.595  29.884   2.073  0.00  0.00    +0.174 C 
ENDBRANCH   9  24
BRANCH  11  26
ATOM     26  O   UNL     1     -34.043  27.282  -0.845  0.00  0.00    -0.382 OA
ATOM     27  H   UNL     1     -33.537  27.982  -0.405  0.00  0.00    +0.210 HD
ENDBRANCH  11  26
BRANCH  19  28
ATOM     28  O   UNL     1     -38.786  25.113   4.112  0.00  0.00    -0.380 OA
ATOM     29  H   UNL     1     -39.358  25.775   4.529  0.00  0.00    +0.211 HD
ENDBRANCH  19  28
BRANCH  18  30
ATOM     30  O   UNL     1     -36.295  22.239   4.580  0.00  0.00    -0.510 OA
ATOM     31  H   UNL     1     -36.338  22.570   5.456  0.00  0.00    +0.292 HD
ENDBRANCH  18  30
TORSDOF 4
ENDMDL
MODEL 7
REMARK VINA RESULT:      -6.0      1.863      4.806
REMARK  Name = 54689507
REMARK  4 active torsions:
REMARK  status: ('A' for Active; 'I' for Inactive)
REMARK    1  A    between atoms: C_9  and  O_24
REMARK    2  A    between atoms: C_11  and  O_26
REMARK    3  A    between atoms: C_18  and  O_30
REMARK    4  A    between atoms: C_19  and  O_28
REMARK                            x       y       z     vdW  Elec       q    Type
REMARK                         _______ _______ _______ _____ _____    ______ ____
ROOT
ATOM      1  O   UNL     1     -34.534  24.010   1.599  0.00  0.00    -0.350 OA
ATOM      2  O   UNL     1     -37.445  25.721   0.462  0.00  0.00    -0.450 OA
ATOM      3  O   UNL     1     -35.859  21.746   3.487  0.00  0.00    -0.293 OA
ATOM      4  O   UNL     1     -37.526  27.726   1.595  0.00  0.00    -0.245 OA
ATOM      5  C   UNL     1     -36.421  24.748   0.309  0.00  0.00    +0.167 C 
ATOM      6  C   UNL     1     -35.825  24.607   1.704  0.00  0.00    +0.162 C 
ATOM      7  C   UNL     1     -36.848  23.277   0.110  0.00  0.00    +0.096 C 
ATOM      8  C   UNL     1     -36.822  23.727   2.506  0.00  0.00    +0.120 C 
ATOM      9  C   UNL     1     -37.609  22.975   1.414  0.00  0.00    +0.131 C 
ATOM     10  C   UNL     1     -34.329  23.324   0.344  0.00  0.00    +0.142 C 
ATOM     11  C   UNL     1     -35.548  22.429   0.019  0.00  0.00    +0.143 C 
ATOM     12  C   UNL     1     -35.441  25.220  -0.783  0.00  0.00    +0.046 C 
ATOM     13  C   UNL     1     -34.152  24.396  -0.744  0.00  0.00    +0.033 C 
ATOM     14  C   UNL     1     -35.906  26.003   2.197  0.00  0.00    +0.111 C 
ATOM     15  C   UNL     1     -36.100  22.949   3.603  0.00  0.00    +0.179 C 
ATOM     16  C   UNL     1     -37.023  26.633   1.407  0.00  0.00    +0.342 C 
ATOM     17  C   UNL     1     -32.935  25.284  -0.481  0.00  0.00    +0.003 C 
ATOM     18  C   UNL     1     -35.266  26.600   3.216  0.00  0.00    +0.115 C 
ATOM     19  C   UNL     1     -35.614  23.752   4.837  0.00  0.00    +0.140 C 
ATOM     20  C   UNL     1     -34.273  25.978   4.190  0.00  0.00    +0.059 C 
ATOM     21  C   UNL     1     -34.273  24.460   4.531  0.00  0.00    +0.042 C 
ATOM     22  C   UNL     1     -35.434  22.766   6.004  0.00  0.00    +0.037 C 
ATOM     23  C   UNL     1     -32.851  26.394   3.782  0.00  0.00    +0.008 C 
ENDROOT
BRANCH   9  24
ATOM     24  O   UNL     1     -37.873  21.609   1.645  0.00  0.00    -0.353 OA
ATOM     25  C   UNL     1     -39.253  21.370   1.909  0.00  0.00    +0.174 C 
ENDBRANCH   9  24
BRANCH  11  26
ATOM     26  O   UNL     1     -35.439  21.884  -1.292  0.00  0.00    -0.382 OA
ATOM     27  H   UNL     1     -34.734  21.219  -1.308  0.00  0.00    +0.210 HD
ENDBRANCH  11  26
BRANCH  19  28
ATOM     28  O   UNL     1     -36.615  24.673   5.235  0.00  0.00    -0.380 OA
ATOM     29  H   UNL     1     -36.215  25.369   5.779  0.00  0.00    +0.211 HD
ENDBRANCH  19  28
BRANCH  18  30
ATOM     30  O   UNL     1     -35.511  27.929   3.544  0.00  0.00    -0.510 OA
ATOM     31  H   UNL     1     -34.981  28.608   3.175  0.00  0.00    +0.292 HD
ENDBRANCH  18  30
TORSDOF 4
ENDMDL
MODEL 8
REMARK VINA RESULT:      -6.0      1.716      5.009
REMARK  Name = 54689507
REMARK  4 active torsions:
REMARK  status: ('A' for Active; 'I' for Inactive)
REMARK    1  A    between atoms: C_9  and  O_24
REMARK    2  A    between atoms: C_11  and  O_26
REMARK    3  A    between atoms: C_18  and  O_30
REMARK    4  A    between atoms: C_19  and  O_28
REMARK                            x       y       z     vdW  Elec       q    Type
REMARK                         _______ _______ _______ _____ _____    ______ ____
ROOT
ATOM      1  O   UNL     1     -37.422  25.036   1.070  0.00  0.00    -0.350 OA
ATOM      2  O   UNL     1     -37.213  24.158   4.518  0.00  0.00    -0.450 OA
ATOM      3  O   UNL     1     -35.131  23.132  -0.180  0.00  0.00    -0.293 OA
ATOM      4  O   UNL     1     -36.171  25.912   5.591  0.00  0.00    -0.245 OA
ATOM      5  C   UNL     1     -37.783  24.031   3.223  0.00  0.00    +0.167 C 
ATOM      6  C   UNL     1     -36.778  24.711   2.301  0.00  0.00    +0.162 C 
ATOM      7  C   UNL     1     -37.768  22.635   2.563  0.00  0.00    +0.096 C 
ATOM      8  C   UNL     1     -35.619  23.694   2.113  0.00  0.00    +0.120 C 
ATOM      9  C   UNL     1     -36.260  22.336   2.457  0.00  0.00    +0.131 C 
ATOM     10  C   UNL     1     -38.637  24.286   0.855  0.00  0.00    +0.142 C 
ATOM     11  C   UNL     1     -38.401  22.787   1.151  0.00  0.00    +0.143 C 
ATOM     12  C   UNL     1     -39.194  24.652   3.233  0.00  0.00    +0.046 C 
ATOM     13  C   UNL     1     -39.705  24.853   1.805  0.00  0.00    +0.033 C 
ATOM     14  C   UNL     1     -36.309  25.828   3.156  0.00  0.00    +0.111 C 
ATOM     15  C   UNL     1     -34.932  23.897   0.765  0.00  0.00    +0.179 C 
ATOM     16  C   UNL     1     -36.548  25.366   4.570  0.00  0.00    +0.342 C 
ATOM     17  C   UNL     1     -39.997  26.328   1.525  0.00  0.00    +0.003 C 
ATOM     18  C   UNL     1     -35.668  26.961   2.825  0.00  0.00    +0.115 C 
ATOM     19  C   UNL     1     -34.032  25.151   0.610  0.00  0.00    +0.140 C 
ATOM     20  C   UNL     1     -35.210  27.407   1.442  0.00  0.00    +0.059 C 
ATOM     21  C   UNL     1     -34.890  26.400   0.301  0.00  0.00    +0.042 C 
ATOM     22  C   UNL     1     -33.048  24.889  -0.542  0.00  0.00    +0.037 C 
ATOM     23  C   UNL     1     -36.192  28.463   0.910  0.00  0.00    +0.008 C 
ENDROOT
BRANCH   9  24
ATOM     24  O   UNL     1     -35.928  21.245   1.628  0.00  0.00    -0.353 OA
ATOM     25  C   UNL     1     -35.080  20.311   2.291  0.00  0.00    +0.174 C 
ENDBRANCH   9  24
BRANCH  11  26
ATOM     26  O   UNL     1     -39.628  22.064   1.111  0.00  0.00    -0.382 OA
ATOM     27  H   UNL     1     -40.195  22.351   1.843  0.00  0.00    +0.210 HD
ENDBRANCH  11  26
BRANCH  19  28
ATOM     28  O   UNL     1     -33.251  25.327   1.779  0.00  0.00    -0.380 OA
ATOM     29  H   UNL     1     -32.309  25.287   1.548  0.00  0.00    +0.211 HD
ENDBRANCH  19  28
BRANCH  18  30
ATOM     30  O   UNL     1     -35.278  27.879   3.794  0.00  0.00    -0.510 OA
ATOM     31  H   UNL     1     -35.691  27.877   4.635  0.00  0.00    +0.292 HD
ENDBRANCH  18  30
TORSDOF 4
ENDMDL
MODEL 9
REMARK VINA RESULT:      -5.8      1.759      5.539
REMARK  Name = 54689507
REMARK  4 active torsions:
REMARK  status: ('A' for Active; 'I' for Inactive)
REMARK    1  A    between atoms: C_9  and  O_24
REMARK    2  A    between atoms: C_11  and  O_26
REMARK    3  A    between atoms: C_18  and  O_30
REMARK    4  A    between atoms: C_19  and  O_28
REMARK                            x       y       z     vdW  Elec       q    Type
REMARK                         _______ _______ _______ _____ _____    ______ ____
ROOT
ATOM      1  O   UNL     1     -36.259  24.506   1.222  0.00  0.00    -0.350 OA
ATOM      2  O   UNL     1     -38.683  24.832   3.814  0.00  0.00    -0.450 OA
ATOM      3  O   UNL     1     -33.745  26.044   2.546  0.00  0.00    -0.293 OA
ATOM      4  O   UNL     1     -40.199  26.421   3.113  0.00  0.00    -0.245 OA
ATOM      5  C   UNL     1     -37.664  24.114   3.132  0.00  0.00    +0.167 C 
ATOM      6  C   UNL     1     -36.986  25.163   2.259  0.00  0.00    +0.162 C 
ATOM      7  C   UNL     1     -36.424  23.678   3.943  0.00  0.00    +0.096 C 
ATOM      8  C   UNL     1     -36.062  25.974   3.208  0.00  0.00    +0.120 C 
ATOM      9  C   UNL     1     -35.839  25.026   4.402  0.00  0.00    +0.131 C 
ATOM     10  C   UNL     1     -35.995  23.116   1.513  0.00  0.00    +0.142 C 
ATOM     11  C   UNL     1     -35.457  22.964   2.956  0.00  0.00    +0.143 C 
ATOM     12  C   UNL     1     -38.304  22.936   2.371  0.00  0.00    +0.046 C 
ATOM     13  C   UNL     1     -37.319  22.351   1.357  0.00  0.00    +0.033 C 
ATOM     14  C   UNL     1     -38.141  26.007   1.868  0.00  0.00    +0.111 C 
ATOM     15  C   UNL     1     -34.866  26.543   2.448  0.00  0.00    +0.179 C 
ATOM     16  C   UNL     1     -39.161  25.803   2.958  0.00  0.00    +0.342 C 
ATOM     17  C   UNL     1     -37.870  22.444  -0.067  0.00  0.00    +0.003 C 
ATOM     18  C   UNL     1     -38.266  26.894   0.867  0.00  0.00    +0.115 C 
ATOM     19  C   UNL     1     -35.139  27.729   1.486  0.00  0.00    +0.140 C 
ATOM     20  C   UNL     1     -37.213  27.307  -0.154  0.00  0.00    +0.059 C 
ATOM     21  C   UNL     1     -35.687  27.217   0.134  0.00  0.00    +0.042 C 
ATOM     22  C   UNL     1     -33.812  28.476   1.267  0.00  0.00    +0.037 C 
ATOM     23  C   UNL     1     -37.509  26.600  -1.486  0.00  0.00    +0.008 C 
ENDROOT
BRANCH   9  24
ATOM     24  O   UNL     1     -34.532  24.958   4.927  0.00  0.00    -0.353 OA
ATOM     25  C   UNL     1     -34.322  25.916   5.961  0.00  0.00    +0.174 C 
ENDBRANCH   9  24
BRANCH  11  26
ATOM     26  O   UNL     1     -35.357  21.590   3.315  0.00  0.00    -0.382 OA
ATOM     27  H   UNL     1     -35.480  21.496   4.273  0.00  0.00    +0.210 HD
ENDBRANCH  11  26
BRANCH  19  28
ATOM     28  O   UNL     1     -36.027  28.649   2.098  0.00  0.00    -0.380 OA
ATOM     29  H   UNL     1     -36.053  28.485   3.054  0.00  0.00    +0.211 HD
ENDBRANCH  19  28
BRANCH  18  30
ATOM     30  O   UNL     1     -39.438  27.621   0.689  0.00  0.00    -0.510 OA
ATOM     31  H   UNL     1     -39.593  28.071  -0.119  0.00  0.00    +0.292 HD
ENDBRANCH  18  30
TORSDOF 4
ENDMDL
