MODEL 1
REMARK VINA RESULT:      -6.3      0.000      0.000
REMARK  Name = 59053798
REMARK  12 active torsions:
REMARK  status: ('A' for Active; 'I' for Inactive)
REMARK    1  A    between atoms: C_1  and  C_4
REMARK    2  A    between atoms: C_1  and  C_17
REMARK    3  A    between atoms: C_5  and  O_13
REMARK    4  A    between atoms: C_6  and  O_15
REMARK    5  A    between atoms: C_17  and  O_18
REMARK    6  A    between atoms: C_17  and  C_20
REMARK    7  A    between atoms: C_20  and  O_22
REMARK    8  A    between atoms: C_20  and  C_24
REMARK    9  A    between atoms: C_24  and  O_25
REMARK   10  A    between atoms: C_24  and  C_27
REMARK   11  A    between atoms: C_27  and  C_29
REMARK   12  A    between atoms: C_29  and  O_30
REMARK                            x       y       z     vdW  Elec       q    Type
REMARK                         _______ _______ _______ _____ _____    ______ ____
ROOT
ATOM      1  C   UNL     1     -36.215  25.918   4.803  0.00  0.00    +0.064 C 
ENDROOT
BRANCH   1   4
ATOM      2  O   UNL     1     -40.181  22.829   1.490  0.00  0.00    -0.440 OA
ATOM      3  O   UNL     1     -40.849  24.981   2.001  0.00  0.00    -0.245 OA
ATOM      4  C   UNL     1     -36.912  24.840   4.007  0.00  0.00    +0.048 A 
ATOM      5  C   UNL     1     -36.292  23.590   3.833  0.00  0.00    +0.133 A 
ATOM      6  C   UNL     1     -38.168  25.092   3.450  0.00  0.00    +0.139 A 
ATOM      7  C   UNL     1     -38.163  22.839   2.553  0.00  0.00    +0.029 A 
ATOM      8  C   UNL     1     -38.760  24.071   2.731  0.00  0.00    +0.108 A 
ATOM      9  C   UNL     1     -36.920  22.578   3.099  0.00  0.00    +0.012 A 
ATOM     10  C   UNL     1     -39.040  21.973   1.746  0.00  0.00    +0.235 C 
ATOM     11  C   UNL     1     -40.048  24.070   2.055  0.00  0.00    +0.344 C 
ATOM     12  C   UNL     1     -36.271  21.250   2.909  0.00  0.00    +0.034 C 
BRANCH   5  13
ATOM     13  O   UNL     1     -35.065  23.362   4.385  0.00  0.00    -0.472 OA
ATOM     14  C   UNL     1     -35.041  22.796   5.692  0.00  0.00    +0.252 C 
ENDBRANCH   5  13
BRANCH   6  15
ATOM     15  O   UNL     1     -38.778  26.293   3.610  0.00  0.00    -0.506 OA
ATOM     16  H   UNL     1     -39.517  26.518   3.080  0.00  0.00    +0.292 HD
ENDBRANCH   6  15
ENDBRANCH   1   4
BRANCH   1  17
ATOM     17  C   UNL     1     -35.083  26.587   4.003  0.00  0.00    +0.142 C 
BRANCH  17  18
ATOM     18  O   UNL     1     -35.415  27.966   3.786  0.00  0.00    -0.382 OA
ATOM     19  H   UNL     1     -35.484  28.419   4.641  0.00  0.00    +0.210 HD
ENDBRANCH  17  18
BRANCH  17  20
ATOM     20  C   UNL     1     -33.676  26.504   4.674  0.00  0.00    +0.138 C 
ATOM     21  C   UNL     1     -33.776  26.305   6.194  0.00  0.00    +0.034 C 
BRANCH  20  22
ATOM     22  O   UNL     1     -33.040  25.322   4.157  0.00  0.00    -0.382 OA
ATOM     23  H   UNL     1     -32.483  24.928   4.845  0.00  0.00    +0.210 HD
ENDBRANCH  20  22
BRANCH  20  24
ATOM     24  C   UNL     1     -32.774  27.727   4.332  0.00  0.00    +0.148 C 
BRANCH  24  25
ATOM     25  O   UNL     1     -31.606  27.248   3.652  0.00  0.00    -0.381 OA
ATOM     26  H   UNL     1     -31.637  26.280   3.601  0.00  0.00    +0.210 HD
ENDBRANCH  24  25
BRANCH  24  27
ATOM     27  C   UNL     1     -32.299  28.525   5.558  0.00  0.00    +0.141 C 
BRANCH  27  29
ATOM     28  O   UNL     1     -30.011  29.274   5.144  0.00  0.00    -0.250 OA
ATOM     29  C   UNL     1     -30.794  28.519   5.701  0.00  0.00    +0.316 C 
BRANCH  29  30
ATOM     30  O   UNL     1     -30.412  27.534   6.555  0.00  0.00    -0.480 OA
ATOM     31  H   UNL     1     -30.336  27.713   7.472  0.00  0.00    +0.295 HD
ENDBRANCH  29  30
ENDBRANCH  27  29
ENDBRANCH  24  27
ENDBRANCH  20  24
ENDBRANCH  17  20
ENDBRANCH   1  17
TORSDOF 12
ENDMDL
MODEL 2
REMARK VINA RESULT:      -6.0      2.186      7.434
REMARK  Name = 59053798
REMARK  12 active torsions:
REMARK  status: ('A' for Active; 'I' for Inactive)
REMARK    1  A    between atoms: C_1  and  C_4
REMARK    2  A    between atoms: C_1  and  C_17
REMARK    3  A    between atoms: C_5  and  O_13
REMARK    4  A    between atoms: C_6  and  O_15
REMARK    5  A    between atoms: C_17  and  O_18
REMARK    6  A    between atoms: C_17  and  C_20
REMARK    7  A    between atoms: C_20  and  O_22
REMARK    8  A    between atoms: C_20  and  C_24
REMARK    9  A    between atoms: C_24  and  O_25
REMARK   10  A    between atoms: C_24  and  C_27
REMARK   11  A    between atoms: C_27  and  C_29
REMARK   12  A    between atoms: C_29  and  O_30
REMARK                            x       y       z     vdW  Elec       q    Type
REMARK                         _______ _______ _______ _____ _____    ______ ____
ROOT
ATOM      1  C   UNL     1     -34.944  26.327   2.608  0.00  0.00    +0.064 C 
ENDROOT
BRANCH   1   4
ATOM      2  O   UNL     1     -31.148  29.932   5.583  0.00  0.00    -0.440 OA
ATOM      3  O   UNL     1     -31.007  27.706   6.187  0.00  0.00    -0.245 OA
ATOM      4  C   UNL     1     -34.177  27.529   3.110  0.00  0.00    +0.048 A 
ATOM      5  C   UNL     1     -34.447  28.802   2.578  0.00  0.00    +0.133 A 
ATOM      6  C   UNL     1     -33.204  27.365   4.099  0.00  0.00    +0.139 A 
ATOM      7  C   UNL     1     -32.789  29.753   4.009  0.00  0.00    +0.029 A 
ATOM      8  C   UNL     1     -32.533  28.498   4.522  0.00  0.00    +0.108 A 
ATOM      9  C   UNL     1     -33.749  29.927   3.029  0.00  0.00    +0.012 A 
ATOM     10  C   UNL     1     -31.915  30.745   4.660  0.00  0.00    +0.235 C 
ATOM     11  C   UNL     1     -31.487  28.606   5.527  0.00  0.00    +0.344 C 
ATOM     12  C   UNL     1     -34.029  31.280   2.472  0.00  0.00    +0.034 C 
BRANCH   5  13
ATOM     13  O   UNL     1     -35.401  28.941   1.612  0.00  0.00    -0.472 OA
ATOM     14  C   UNL     1     -34.977  28.784   0.260  0.00  0.00    +0.252 C 
ENDBRANCH   5  13
BRANCH   6  15
ATOM     15  O   UNL     1     -32.932  26.144   4.622  0.00  0.00    -0.506 OA
ATOM     16  H   UNL     1     -32.090  25.754   4.491  0.00  0.00    +0.292 HD
ENDBRANCH   6  15
ENDBRANCH   1   4
BRANCH   1  17
ATOM     17  C   UNL     1     -36.378  26.284   3.163  0.00  0.00    +0.142 C 
BRANCH  17  18
ATOM     18  O   UNL     1     -37.294  26.083   2.077  0.00  0.00    -0.382 OA
ATOM     19  H   UNL     1     -37.596  25.162   2.076  0.00  0.00    +0.210 HD
ENDBRANCH  17  18
BRANCH  17  20
ATOM     20  C   UNL     1     -36.624  25.184   4.243  0.00  0.00    +0.138 C 
ATOM     21  C   UNL     1     -36.113  25.614   5.627  0.00  0.00    +0.034 C 
BRANCH  20  22
ATOM     22  O   UNL     1     -38.050  25.040   4.369  0.00  0.00    -0.382 OA
ATOM     23  H   UNL     1     -38.248  24.273   4.928  0.00  0.00    +0.210 HD
ENDBRANCH  20  22
BRANCH  20  24
ATOM     24  C   UNL     1     -36.033  23.801   3.837  0.00  0.00    +0.148 C 
BRANCH  24  25
ATOM     25  O   UNL     1     -37.106  22.851   3.786  0.00  0.00    -0.381 OA
ATOM     26  H   UNL     1     -37.452  22.707   4.680  0.00  0.00    +0.210 HD
ENDBRANCH  24  25
BRANCH  24  27
ATOM     27  C   UNL     1     -34.978  23.254   4.814  0.00  0.00    +0.141 C 
BRANCH  27  29
ATOM     28  O   UNL     1     -36.049  22.073   6.666  0.00  0.00    -0.250 OA
ATOM     29  C   UNL     1     -35.477  22.053   5.587  0.00  0.00    +0.316 C 
BRANCH  29  30
ATOM     30  O   UNL     1     -35.197  20.912   4.904  0.00  0.00    -0.480 OA
ATOM     31  H   UNL     1     -34.717  20.954   4.101  0.00  0.00    +0.295 HD
ENDBRANCH  29  30
ENDBRANCH  27  29
ENDBRANCH  24  27
ENDBRANCH  20  24
ENDBRANCH  17  20
ENDBRANCH   1  17
TORSDOF 12
ENDMDL
MODEL 3
REMARK VINA RESULT:      -6.0      2.290      4.724
REMARK  Name = 59053798
REMARK  12 active torsions:
REMARK  status: ('A' for Active; 'I' for Inactive)
REMARK    1  A    between atoms: C_1  and  C_4
REMARK    2  A    between atoms: C_1  and  C_17
REMARK    3  A    between atoms: C_5  and  O_13
REMARK    4  A    between atoms: C_6  and  O_15
REMARK    5  A    between atoms: C_17  and  O_18
REMARK    6  A    between atoms: C_17  and  C_20
REMARK    7  A    between atoms: C_20  and  O_22
REMARK    8  A    between atoms: C_20  and  C_24
REMARK    9  A    between atoms: C_24  and  O_25
REMARK   10  A    between atoms: C_24  and  C_27
REMARK   11  A    between atoms: C_27  and  C_29
REMARK   12  A    between atoms: C_29  and  O_30
REMARK                            x       y       z     vdW  Elec       q    Type
REMARK                         _______ _______ _______ _____ _____    ______ ____
ROOT
ATOM      1  C   UNL     1     -32.313  27.426   4.745  0.00  0.00    +0.064 C 
ENDROOT
BRANCH   1   4
ATOM      2  O   UNL     1     -37.536  24.668   3.576  0.00  0.00    -0.440 OA
ATOM      3  O   UNL     1     -36.273  23.644   5.218  0.00  0.00    -0.245 OA
ATOM      4  C   UNL     1     -33.660  27.053   4.171  0.00  0.00    +0.048 A 
ATOM      5  C   UNL     1     -34.232  27.846   3.161  0.00  0.00    +0.133 A 
ATOM      6  C   UNL     1     -34.327  25.923   4.648  0.00  0.00    +0.139 A 
ATOM      7  C   UNL     1     -36.129  26.398   3.096  0.00  0.00    +0.029 A 
ATOM      8  C   UNL     1     -35.556  25.628   4.087  0.00  0.00    +0.108 A 
ATOM      9  C   UNL     1     -35.478  27.520   2.616  0.00  0.00    +0.012 A 
ATOM     10  C   UNL     1     -37.431  25.826   2.711  0.00  0.00    +0.235 C 
ATOM     11  C   UNL     1     -36.449  24.522   4.398  0.00  0.00    +0.344 C 
ATOM     12  C   UNL     1     -36.093  28.354   1.545  0.00  0.00    +0.034 C 
BRANCH   5  13
ATOM     13  O   UNL     1     -33.565  28.948   2.708  0.00  0.00    -0.472 OA
ATOM     14  C   UNL     1     -32.675  28.756   1.611  0.00  0.00    +0.252 C 
ENDBRANCH   5  13
BRANCH   6  15
ATOM     15  O   UNL     1     -33.788  25.147   5.621  0.00  0.00    -0.506 OA
ATOM     16  H   UNL     1     -33.486  24.284   5.419  0.00  0.00    +0.292 HD
ENDBRANCH   6  15
ENDBRANCH   1   4
BRANCH   1  17
ATOM     17  C   UNL     1     -32.435  28.054   6.144  0.00  0.00    +0.142 C 
BRANCH  17  18
ATOM     18  O   UNL     1     -32.324  27.019   7.132  0.00  0.00    -0.382 OA
ATOM     19  H   UNL     1     -32.391  26.153   6.700  0.00  0.00    +0.210 HD
ENDBRANCH  17  18
BRANCH  17  20
ATOM     20  C   UNL     1     -31.382  29.164   6.453  0.00  0.00    +0.138 C 
ATOM     21  C   UNL     1     -31.705  30.479   5.728  0.00  0.00    +0.034 C 
BRANCH  20  22
ATOM     22  O   UNL     1     -31.481  29.447   7.860  0.00  0.00    -0.382 OA
ATOM     23  H   UNL     1     -32.407  29.618   8.090  0.00  0.00    +0.210 HD
ENDBRANCH  20  22
BRANCH  20  24
ATOM     24  C   UNL     1     -29.923  28.708   6.154  0.00  0.00    +0.148 C 
BRANCH  24  25
ATOM     25  O   UNL     1     -29.707  27.443   6.792  0.00  0.00    -0.381 OA
ATOM     26  H   UNL     1     -29.502  26.774   6.120  0.00  0.00    +0.210 HD
ENDBRANCH  24  25
BRANCH  24  27
ATOM     27  C   UNL     1     -28.842  29.675   6.667  0.00  0.00    +0.141 C 
BRANCH  27  29
ATOM     28  O   UNL     1     -27.022  28.469   7.767  0.00  0.00    -0.250 OA
ATOM     29  C   UNL     1     -28.065  29.103   7.832  0.00  0.00    +0.316 C 
BRANCH  29  30
ATOM     30  O   UNL     1     -28.698  29.392   8.999  0.00  0.00    -0.480 OA
ATOM     31  H   UNL     1     -29.060  28.702   9.519  0.00  0.00    +0.295 HD
ENDBRANCH  29  30
ENDBRANCH  27  29
ENDBRANCH  24  27
ENDBRANCH  20  24
ENDBRANCH  17  20
ENDBRANCH   1  17
TORSDOF 12
ENDMDL
MODEL 4
REMARK VINA RESULT:      -5.9      1.542      2.215
REMARK  Name = 59053798
REMARK  12 active torsions:
REMARK  status: ('A' for Active; 'I' for Inactive)
REMARK    1  A    between atoms: C_1  and  C_4
REMARK    2  A    between atoms: C_1  and  C_17
REMARK    3  A    between atoms: C_5  and  O_13
REMARK    4  A    between atoms: C_6  and  O_15
REMARK    5  A    between atoms: C_17  and  O_18
REMARK    6  A    between atoms: C_17  and  C_20
REMARK    7  A    between atoms: C_20  and  O_22
REMARK    8  A    between atoms: C_20  and  C_24
REMARK    9  A    between atoms: C_24  and  O_25
REMARK   10  A    between atoms: C_24  and  C_27
REMARK   11  A    between atoms: C_27  and  C_29
REMARK   12  A    between atoms: C_29  and  O_30
REMARK                            x       y       z     vdW  Elec       q    Type
REMARK                         _______ _______ _______ _____ _____    ______ ____
ROOT
ATOM      1  C   UNL     1     -36.134  24.605   5.131  0.00  0.00    +0.064 C 
ENDROOT
BRANCH   1   4
ATOM      2  O   UNL     1     -39.845  22.365   0.952  0.00  0.00    -0.440 OA
ATOM      3  O   UNL     1     -40.553  24.363   1.873  0.00  0.00    -0.245 OA
ATOM      4  C   UNL     1     -36.770  23.736   4.071  0.00  0.00    +0.048 A 
ATOM      5  C   UNL     1     -36.136  22.546   3.673  0.00  0.00    +0.133 A 
ATOM      6  C   UNL     1     -37.983  24.120   3.496  0.00  0.00    +0.139 A 
ATOM      7  C   UNL     1     -37.908  22.117   2.131  0.00  0.00    +0.029 A 
ATOM      8  C   UNL     1     -38.520  23.288   2.532  0.00  0.00    +0.108 A 
ATOM      9  C   UNL     1     -36.707  21.726   2.693  0.00  0.00    +0.012 A 
ATOM     10  C   UNL     1     -38.723  21.459   1.095  0.00  0.00    +0.235 C 
ATOM     11  C   UNL     1     -39.756  23.452   1.783  0.00  0.00    +0.344 C 
ATOM     12  C   UNL     1     -36.043  20.463   2.264  0.00  0.00    +0.034 C 
BRANCH   5  13
ATOM     13  O   UNL     1     -34.950  22.187   4.247  0.00  0.00    -0.472 OA
ATOM     14  C   UNL     1     -35.019  21.528   5.509  0.00  0.00    +0.252 C 
ENDBRANCH   5  13
BRANCH   6  15
ATOM     15  O   UNL     1     -38.606  25.265   3.871  0.00  0.00    -0.506 OA
ATOM     16  H   UNL     1     -39.447  25.228   4.282  0.00  0.00    +0.292 HD
ENDBRANCH   6  15
ENDBRANCH   1   4
BRANCH   1  17
ATOM     17  C   UNL     1     -35.481  25.863   4.531  0.00  0.00    +0.142 C 
BRANCH  17  18
ATOM     18  O   UNL     1     -36.162  27.025   5.029  0.00  0.00    -0.382 OA
ATOM     19  H   UNL     1     -36.966  27.175   4.508  0.00  0.00    +0.210 HD
ENDBRANCH  17  18
BRANCH  17  20
ATOM     20  C   UNL     1     -33.955  26.006   4.823  0.00  0.00    +0.138 C 
ATOM     21  C   UNL     1     -33.679  26.312   6.303  0.00  0.00    +0.034 C 
BRANCH  20  22
ATOM     22  O   UNL     1     -33.362  24.721   4.563  0.00  0.00    -0.382 OA
ATOM     23  H   UNL     1     -32.411  24.830   4.409  0.00  0.00    +0.210 HD
ENDBRANCH  20  22
BRANCH  20  24
ATOM     24  C   UNL     1     -33.262  27.053   3.901  0.00  0.00    +0.148 C 
BRANCH  24  25
ATOM     25  O   UNL     1     -33.176  28.293   4.613  0.00  0.00    -0.381 OA
ATOM     26  H   UNL     1     -34.068  28.603   4.832  0.00  0.00    +0.210 HD
ENDBRANCH  24  25
BRANCH  24  27
ATOM     27  C   UNL     1     -34.009  27.327   2.584  0.00  0.00    +0.141 C 
BRANCH  27  29
ATOM     28  O   UNL     1     -33.729  29.595   1.718  0.00  0.00    -0.250 OA
ATOM     29  C   UNL     1     -34.342  28.792   2.406  0.00  0.00    +0.316 C 
BRANCH  29  30
ATOM     30  O   UNL     1     -35.444  29.110   3.133  0.00  0.00    -0.480 OA
ATOM     31  H   UNL     1     -36.080  28.451   3.332  0.00  0.00    +0.295 HD
ENDBRANCH  29  30
ENDBRANCH  27  29
ENDBRANCH  24  27
ENDBRANCH  20  24
ENDBRANCH  17  20
ENDBRANCH   1  17
TORSDOF 12
ENDMDL
MODEL 5
REMARK VINA RESULT:      -5.9      1.780      3.323
REMARK  Name = 59053798
REMARK  12 active torsions:
REMARK  status: ('A' for Active; 'I' for Inactive)
REMARK    1  A    between atoms: C_1  and  C_4
REMARK    2  A    between atoms: C_1  and  C_17
REMARK    3  A    between atoms: C_5  and  O_13
REMARK    4  A    between atoms: C_6  and  O_15
REMARK    5  A    between atoms: C_17  and  O_18
REMARK    6  A    between atoms: C_17  and  C_20
REMARK    7  A    between atoms: C_20  and  O_22
REMARK    8  A    between atoms: C_20  and  C_24
REMARK    9  A    between atoms: C_24  and  O_25
REMARK   10  A    between atoms: C_24  and  C_27
REMARK   11  A    between atoms: C_27  and  C_29
REMARK   12  A    between atoms: C_29  and  O_30
REMARK                            x       y       z     vdW  Elec       q    Type
REMARK                         _______ _______ _______ _____ _____    ______ ____
ROOT
ATOM      1  C   UNL     1     -38.012  24.089   3.560  0.00  0.00    +0.064 C 
ENDROOT
BRANCH   1   4
ATOM      2  O   UNL     1     -39.669  19.985  -0.522  0.00  0.00    -0.440 OA
ATOM      3  O   UNL     1     -41.338  21.477   0.051  0.00  0.00    -0.245 OA
ATOM      4  C   UNL     1     -38.024  22.930   2.590  0.00  0.00    +0.048 A 
ATOM      5  C   UNL     1     -36.864  22.157   2.412  0.00  0.00    +0.133 A 
ATOM      6  C   UNL     1     -39.189  22.636   1.878  0.00  0.00    +0.139 A 
ATOM      7  C   UNL     1     -38.013  20.798   0.820  0.00  0.00    +0.029 A 
ATOM      8  C   UNL     1     -39.145  21.566   1.004  0.00  0.00    +0.108 A 
ATOM      9  C   UNL     1     -36.854  21.080   1.519  0.00  0.00    +0.012 A 
ATOM     10  C   UNL     1     -38.284  19.741  -0.170  0.00  0.00    +0.235 C 
ATOM     11  C   UNL     1     -40.205  21.052   0.150  0.00  0.00    +0.344 C 
ATOM     12  C   UNL     1     -35.629  20.254   1.324  0.00  0.00    +0.034 C 
BRANCH   5  13
ATOM     13  O   UNL     1     -35.735  22.460   3.118  0.00  0.00    -0.472 OA
ATOM     14  C   UNL     1     -35.578  21.828   4.385  0.00  0.00    +0.252 C 
ENDBRANCH   5  13
BRANCH   6  15
ATOM     15  O   UNL     1     -40.316  23.373   2.040  0.00  0.00    -0.506 OA
ATOM     16  H   UNL     1     -40.834  23.608   1.295  0.00  0.00    +0.292 HD
ENDBRANCH   6  15
ENDBRANCH   1   4
BRANCH   1  17
ATOM     17  C   UNL     1     -37.671  25.420   2.866  0.00  0.00    +0.142 C 
BRANCH  17  18
ATOM     18  O   UNL     1     -38.624  26.414   3.270  0.00  0.00    -0.382 OA
ATOM     19  H   UNL     1     -38.232  26.977   3.956  0.00  0.00    +0.210 HD
ENDBRANCH  17  18
BRANCH  17  20
ATOM     20  C   UNL     1     -36.232  25.952   3.150  0.00  0.00    +0.138 C 
ATOM     21  C   UNL     1     -35.228  25.488   2.084  0.00  0.00    +0.034 C 
BRANCH  20  22
ATOM     22  O   UNL     1     -36.293  27.385   3.047  0.00  0.00    -0.382 OA
ATOM     23  H   UNL     1     -35.405  27.755   3.165  0.00  0.00    +0.210 HD
ENDBRANCH  20  22
BRANCH  20  24
ATOM     24  C   UNL     1     -35.730  25.593   4.581  0.00  0.00    +0.148 C 
BRANCH  24  25
ATOM     25  O   UNL     1     -36.223  26.583   5.492  0.00  0.00    -0.381 OA
ATOM     26  H   UNL     1     -35.570  26.730   6.194  0.00  0.00    +0.210 HD
ENDBRANCH  24  25
BRANCH  24  27
ATOM     27  C   UNL     1     -34.198  25.557   4.722  0.00  0.00    +0.141 C 
BRANCH  27  29
ATOM     28  O   UNL     1     -33.290  26.881   6.564  0.00  0.00    -0.250 OA
ATOM     29  C   UNL     1     -33.654  26.794   5.401  0.00  0.00    +0.316 C 
BRANCH  29  30
ATOM     30  O   UNL     1     -33.623  27.830   4.523  0.00  0.00    -0.480 OA
ATOM     31  H   UNL     1     -33.736  28.708   4.830  0.00  0.00    +0.295 HD
ENDBRANCH  29  30
ENDBRANCH  27  29
ENDBRANCH  24  27
ENDBRANCH  20  24
ENDBRANCH  17  20
ENDBRANCH   1  17
TORSDOF 12
ENDMDL
MODEL 6
REMARK VINA RESULT:      -5.8      4.544      7.156
REMARK  Name = 59053798
REMARK  12 active torsions:
REMARK  status: ('A' for Active; 'I' for Inactive)
REMARK    1  A    between atoms: C_1  and  C_4
REMARK    2  A    between atoms: C_1  and  C_17
REMARK    3  A    between atoms: C_5  and  O_13
REMARK    4  A    between atoms: C_6  and  O_15
REMARK    5  A    between atoms: C_17  and  O_18
REMARK    6  A    between atoms: C_17  and  C_20
REMARK    7  A    between atoms: C_20  and  O_22
REMARK    8  A    between atoms: C_20  and  C_24
REMARK    9  A    between atoms: C_24  and  O_25
REMARK   10  A    between atoms: C_24  and  C_27
REMARK   11  A    between atoms: C_27  and  C_29
REMARK   12  A    between atoms: C_29  and  O_30
REMARK                            x       y       z     vdW  Elec       q    Type
REMARK                         _______ _______ _______ _____ _____    ______ ____
ROOT
ATOM      1  C   UNL     1     -35.084  21.732   1.006  0.00  0.00    +0.064 C 
ENDROOT
BRANCH   1   4
ATOM      2  O   UNL     1     -30.198  18.318   0.155  0.00  0.00    -0.440 OA
ATOM      3  O   UNL     1     -31.813  17.342   1.489  0.00  0.00    -0.245 OA
ATOM      4  C   UNL     1     -33.737  21.213   0.561  0.00  0.00    +0.048 A 
ATOM      5  C   UNL     1     -32.920  22.007  -0.263  0.00  0.00    +0.133 A 
ATOM      6  C   UNL     1     -33.313  19.947   0.971  0.00  0.00    +0.139 A 
ATOM      7  C   UNL     1     -31.260  20.291  -0.274  0.00  0.00    +0.029 A 
ATOM      8  C   UNL     1     -32.072  19.521   0.535  0.00  0.00    +0.108 A 
ATOM      9  C   UNL     1     -31.670  21.545  -0.687  0.00  0.00    +0.012 A 
ATOM     10  C   UNL     1     -30.012  19.563  -0.564  0.00  0.00    +0.235 C 
ATOM     11  C   UNL     1     -31.400  18.261   0.812  0.00  0.00    +0.344 C 
ATOM     12  C   UNL     1     -30.797  22.380  -1.560  0.00  0.00    +0.034 C 
BRANCH   5  13
ATOM     13  O   UNL     1     -33.353  23.241  -0.654  0.00  0.00    -0.472 OA
ATOM     14  C   UNL     1     -34.121  23.305  -1.853  0.00  0.00    +0.252 C 
ENDBRANCH   5  13
BRANCH   6  15
ATOM     15  O   UNL     1     -34.089  19.169   1.766  0.00  0.00    -0.506 OA
ATOM     16  H   UNL     1     -33.842  19.015   2.657  0.00  0.00    +0.292 HD
ENDBRANCH   6  15
ENDBRANCH   1   4
BRANCH   1  17
ATOM     17  C   UNL     1     -34.972  22.651   2.236  0.00  0.00    +0.142 C 
BRANCH  17  18
ATOM     18  O   UNL     1     -35.162  24.012   1.820  0.00  0.00    -0.382 OA
ATOM     19  H   UNL     1     -35.509  24.027   0.915  0.00  0.00    +0.210 HD
ENDBRANCH  17  18
BRANCH  17  20
ATOM     20  C   UNL     1     -35.976  22.326   3.385  0.00  0.00    +0.138 C 
ATOM     21  C   UNL     1     -37.395  22.821   3.064  0.00  0.00    +0.034 C 
BRANCH  20  22
ATOM     22  O   UNL     1     -36.061  20.892   3.466  0.00  0.00    -0.382 OA
ATOM     23  H   UNL     1     -36.434  20.640   4.325  0.00  0.00    +0.210 HD
ENDBRANCH  20  22
BRANCH  20  24
ATOM     24  C   UNL     1     -35.500  22.861   4.768  0.00  0.00    +0.148 C 
BRANCH  24  25
ATOM     25  O   UNL     1     -36.035  22.008   5.788  0.00  0.00    -0.381 OA
ATOM     26  H   UNL     1     -36.222  21.134   5.413  0.00  0.00    +0.210 HD
ENDBRANCH  24  25
BRANCH  24  27
ATOM     27  C   UNL     1     -35.956  24.297   5.081  0.00  0.00    +0.141 C 
BRANCH  27  29
ATOM     28  O   UNL     1     -34.827  26.400   5.603  0.00  0.00    -0.250 OA
ATOM     29  C   UNL     1     -34.797  25.267   5.148  0.00  0.00    +0.316 C 
BRANCH  29  30
ATOM     30  O   UNL     1     -33.684  24.697   4.618  0.00  0.00    -0.480 OA
ATOM     31  H   UNL     1     -32.900  25.201   4.522  0.00  0.00    +0.295 HD
ENDBRANCH  29  30
ENDBRANCH  27  29
ENDBRANCH  24  27
ENDBRANCH  20  24
ENDBRANCH  17  20
ENDBRANCH   1  17
TORSDOF 12
ENDMDL
MODEL 7
REMARK VINA RESULT:      -5.8      2.204      7.737
REMARK  Name = 59053798
REMARK  12 active torsions:
REMARK  status: ('A' for Active; 'I' for Inactive)
REMARK    1  A    between atoms: C_1  and  C_4
REMARK    2  A    between atoms: C_1  and  C_17
REMARK    3  A    between atoms: C_5  and  O_13
REMARK    4  A    between atoms: C_6  and  O_15
REMARK    5  A    between atoms: C_17  and  O_18
REMARK    6  A    between atoms: C_17  and  C_20
REMARK    7  A    between atoms: C_20  and  O_22
REMARK    8  A    between atoms: C_20  and  C_24
REMARK    9  A    between atoms: C_24  and  O_25
REMARK   10  A    between atoms: C_24  and  C_27
REMARK   11  A    between atoms: C_27  and  C_29
REMARK   12  A    between atoms: C_29  and  O_30
REMARK                            x       y       z     vdW  Elec       q    Type
REMARK                         _______ _______ _______ _____ _____    ______ ____
ROOT
ATOM      1  C   UNL     1     -36.790  23.039   3.723  0.00  0.00    +0.064 C 
ENDROOT
BRANCH   1   4
ATOM      2  O   UNL     1     -33.451  27.999   4.436  0.00  0.00    -0.440 OA
ATOM      3  O   UNL     1     -33.057  26.358   6.015  0.00  0.00    -0.245 OA
ATOM      4  C   UNL     1     -36.170  24.407   3.556  0.00  0.00    +0.048 A 
ATOM      5  C   UNL     1     -36.584  25.237   2.500  0.00  0.00    +0.133 A 
ATOM      6  C   UNL     1     -35.190  24.837   4.454  0.00  0.00    +0.139 A 
ATOM      7  C   UNL     1     -35.053  26.922   3.222  0.00  0.00    +0.029 A 
ATOM      8  C   UNL     1     -34.656  26.097   4.255  0.00  0.00    +0.108 A 
ATOM      9  C   UNL     1     -36.023  26.507   2.327  0.00  0.00    +0.012 A 
ATOM     10  C   UNL     1     -34.303  28.188   3.280  0.00  0.00    +0.235 C 
ATOM     11  C   UNL     1     -33.634  26.779   5.033  0.00  0.00    +0.344 C 
ATOM     12  C   UNL     1     -36.455  27.394   1.210  0.00  0.00    +0.034 C 
BRANCH   5  13
ATOM     13  O   UNL     1     -37.543  24.799   1.633  0.00  0.00    -0.472 OA
ATOM     14  C   UNL     1     -38.896  25.111   1.957  0.00  0.00    +0.252 C 
ENDBRANCH   5  13
BRANCH   6  15
ATOM     15  O   UNL     1     -34.781  24.048   5.478  0.00  0.00    -0.506 OA
ATOM     16  H   UNL     1     -34.920  24.319   6.364  0.00  0.00    +0.292 HD
ENDBRANCH   6  15
ENDBRANCH   1   4
BRANCH   1  17
ATOM     17  C   UNL     1     -35.854  21.917   3.241  0.00  0.00    +0.142 C 
BRANCH  17  18
ATOM     18  O   UNL     1     -35.527  21.072   4.354  0.00  0.00    -0.382 OA
ATOM     19  H   UNL     1     -35.572  20.143   4.077  0.00  0.00    +0.210 HD
ENDBRANCH  17  18
BRANCH  17  20
ATOM     20  C   UNL     1     -36.431  21.038   2.088  0.00  0.00    +0.138 C 
ATOM     21  C   UNL     1     -35.421  20.853   0.946  0.00  0.00    +0.034 C 
BRANCH  20  22
ATOM     22  O   UNL     1     -36.657  19.729   2.640  0.00  0.00    -0.382 OA
ATOM     23  H   UNL     1     -37.581  19.474   2.496  0.00  0.00    +0.210 HD
ENDBRANCH  20  22
BRANCH  20  24
ATOM     24  C   UNL     1     -37.790  21.575   1.547  0.00  0.00    +0.148 C 
BRANCH  24  25
ATOM     25  O   UNL     1     -38.847  20.942   2.279  0.00  0.00    -0.381 OA
ATOM     26  H   UNL     1     -39.658  20.950   1.747  0.00  0.00    +0.210 HD
ENDBRANCH  24  25
BRANCH  24  27
ATOM     27  C   UNL     1     -38.030  21.292   0.053  0.00  0.00    +0.141 C 
BRANCH  27  29
ATOM     28  O   UNL     1     -40.153  20.200  -0.465  0.00  0.00    -0.250 OA
ATOM     29  C   UNL     1     -38.970  20.128  -0.168  0.00  0.00    +0.316 C 
BRANCH  29  30
ATOM     30  O   UNL     1     -38.308  18.956   0.012  0.00  0.00    -0.480 OA
ATOM     31  H   UNL     1     -38.012  18.467  -0.730  0.00  0.00    +0.295 HD
ENDBRANCH  29  30
ENDBRANCH  27  29
ENDBRANCH  24  27
ENDBRANCH  20  24
ENDBRANCH  17  20
ENDBRANCH   1  17
TORSDOF 12
ENDMDL
MODEL 8
REMARK VINA RESULT:      -5.7      3.718      5.920
REMARK  Name = 59053798
REMARK  12 active torsions:
REMARK  status: ('A' for Active; 'I' for Inactive)
REMARK    1  A    between atoms: C_1  and  C_4
REMARK    2  A    between atoms: C_1  and  C_17
REMARK    3  A    between atoms: C_5  and  O_13
REMARK    4  A    between atoms: C_6  and  O_15
REMARK    5  A    between atoms: C_17  and  O_18
REMARK    6  A    between atoms: C_17  and  C_20
REMARK    7  A    between atoms: C_20  and  O_22
REMARK    8  A    between atoms: C_20  and  C_24
REMARK    9  A    between atoms: C_24  and  O_25
REMARK   10  A    between atoms: C_24  and  C_27
REMARK   11  A    between atoms: C_27  and  C_29
REMARK   12  A    between atoms: C_29  and  O_30
REMARK                            x       y       z     vdW  Elec       q    Type
REMARK                         _______ _______ _______ _____ _____    ______ ____
ROOT
ATOM      1  C   UNL     1     -35.838  23.064   1.235  0.00  0.00    +0.064 C 
ENDROOT
BRANCH   1   4
ATOM      2  O   UNL     1     -30.618  21.197  -1.114  0.00  0.00    -0.440 OA
ATOM      3  O   UNL     1     -31.156  23.385  -1.626  0.00  0.00    -0.245 OA
ATOM      4  C   UNL     1     -34.636  22.235   0.845  0.00  0.00    +0.048 A 
ATOM      5  C   UNL     1     -34.535  20.904   1.287  0.00  0.00    +0.133 A 
ATOM      6  C   UNL     1     -33.636  22.796   0.048  0.00  0.00    +0.139 A 
ATOM      7  C   UNL     1     -32.447  20.685   0.148  0.00  0.00    +0.029 A 
ATOM      8  C   UNL     1     -32.560  21.992  -0.279  0.00  0.00    +0.108 A 
ATOM      9  C   UNL     1     -33.431  20.118   0.938  0.00  0.00    +0.012 A 
ATOM     10  C   UNL     1     -31.195  20.100  -0.363  0.00  0.00    +0.235 C 
ATOM     11  C   UNL     1     -31.395  22.325  -1.085  0.00  0.00    +0.344 C 
ATOM     12  C   UNL     1     -33.314  18.707   1.401  0.00  0.00    +0.034 C 
BRANCH   5  13
ATOM     13  O   UNL     1     -35.523  20.373   2.065  0.00  0.00    -0.472 OA
ATOM     14  C   UNL     1     -36.671  19.865   1.391  0.00  0.00    +0.252 C 
ENDBRANCH   5  13
BRANCH   6  15
ATOM     15  O   UNL     1     -33.721  24.078  -0.386  0.00  0.00    -0.506 OA
ATOM     16  H   UNL     1     -34.125  24.269  -1.209  0.00  0.00    +0.292 HD
ENDBRANCH   6  15
ENDBRANCH   1   4
BRANCH   1  17
ATOM     17  C   UNL     1     -35.557  23.944   2.466  0.00  0.00    +0.142 C 
BRANCH  17  18
ATOM     18  O   UNL     1     -35.363  25.300   2.037  0.00  0.00    -0.382 OA
ATOM     19  H   UNL     1     -35.176  25.313   1.085  0.00  0.00    +0.210 HD
ENDBRANCH  17  18
BRANCH  17  20
ATOM     20  C   UNL     1     -36.674  23.913   3.556  0.00  0.00    +0.138 C 
ATOM     21  C   UNL     1     -38.034  24.360   2.997  0.00  0.00    +0.034 C 
BRANCH  20  22
ATOM     22  O   UNL     1     -36.833  22.537   3.944  0.00  0.00    -0.382 OA
ATOM     23  H   UNL     1     -37.697  22.420   4.370  0.00  0.00    +0.210 HD
ENDBRANCH  20  22
BRANCH  20  24
ATOM     24  C   UNL     1     -36.298  24.733   4.826  0.00  0.00    +0.148 C 
BRANCH  24  25
ATOM     25  O   UNL     1     -36.386  26.126   4.504  0.00  0.00    -0.381 OA
ATOM     26  H   UNL     1     -36.891  26.586   5.193  0.00  0.00    +0.210 HD
ENDBRANCH  24  25
BRANCH  24  27
ATOM     27  C   UNL     1     -34.876  24.468   5.350  0.00  0.00    +0.141 C 
BRANCH  27  29
ATOM     28  O   UNL     1     -33.985  26.565   6.233  0.00  0.00    -0.250 OA
ATOM     29  C   UNL     1     -34.023  25.717   5.354  0.00  0.00    +0.316 C 
BRANCH  29  30
ATOM     30  O   UNL     1     -33.281  25.778   4.218  0.00  0.00    -0.480 OA
ATOM     31  H   UNL     1     -32.646  25.114   4.038  0.00  0.00    +0.295 HD
ENDBRANCH  29  30
ENDBRANCH  27  29
ENDBRANCH  24  27
ENDBRANCH  20  24
ENDBRANCH  17  20
ENDBRANCH   1  17
TORSDOF 12
ENDMDL
MODEL 9
REMARK VINA RESULT:      -5.7      1.276      3.009
REMARK  Name = 59053798
REMARK  12 active torsions:
REMARK  status: ('A' for Active; 'I' for Inactive)
REMARK    1  A    between atoms: C_1  and  C_4
REMARK    2  A    between atoms: C_1  and  C_17
REMARK    3  A    between atoms: C_5  and  O_13
REMARK    4  A    between atoms: C_6  and  O_15
REMARK    5  A    between atoms: C_17  and  O_18
REMARK    6  A    between atoms: C_17  and  C_20
REMARK    7  A    between atoms: C_20  and  O_22
REMARK    8  A    between atoms: C_20  and  C_24
REMARK    9  A    between atoms: C_24  and  O_25
REMARK   10  A    between atoms: C_24  and  C_27
REMARK   11  A    between atoms: C_27  and  C_29
REMARK   12  A    between atoms: C_29  and  O_30
REMARK                            x       y       z     vdW  Elec       q    Type
REMARK                         _______ _______ _______ _____ _____    ______ ____
ROOT
ATOM      1  C   UNL     1     -36.177  25.883   4.519  0.00  0.00    +0.064 C 
ENDROOT
BRANCH   1   4
ATOM      2  O   UNL     1     -36.719  20.394   2.103  0.00  0.00    -0.440 OA
ATOM      3  O   UNL     1     -35.107  20.546   3.751  0.00  0.00    -0.245 OA
ATOM      4  C   UNL     1     -36.614  24.702   3.682  0.00  0.00    +0.048 A 
ATOM      5  C   UNL     1     -37.633  24.863   2.727  0.00  0.00    +0.133 A 
ATOM      6  C   UNL     1     -36.001  23.460   3.864  0.00  0.00    +0.139 A 
ATOM      7  C   UNL     1     -37.438  22.559   2.131  0.00  0.00    +0.029 A 
ATOM      8  C   UNL     1     -36.439  22.415   3.072  0.00  0.00    +0.108 A 
ATOM      9  C   UNL     1     -38.052  23.783   1.942  0.00  0.00    +0.012 A 
ATOM     10  C   UNL     1     -37.675  21.271   1.455  0.00  0.00    +0.235 C 
ATOM     11  C   UNL     1     -35.977  21.036   3.059  0.00  0.00    +0.344 C 
ATOM     12  C   UNL     1     -39.131  23.943   0.927  0.00  0.00    +0.034 C 
BRANCH   5  13
ATOM     13  O   UNL     1     -38.219  26.085   2.564  0.00  0.00    -0.472 OA
ATOM     14  C   UNL     1     -37.764  26.878   1.471  0.00  0.00    +0.252 C 
ENDBRANCH   5  13
BRANCH   6  15
ATOM     15  O   UNL     1     -35.016  23.290   4.781  0.00  0.00    -0.506 OA
ATOM     16  H   UNL     1     -34.120  23.405   4.534  0.00  0.00    +0.292 HD
ENDBRANCH   6  15
ENDBRANCH   1   4
BRANCH   1  17
ATOM     17  C   UNL     1     -35.014  26.652   3.870  0.00  0.00    +0.142 C 
BRANCH  17  18
ATOM     18  O   UNL     1     -35.366  28.041   3.777  0.00  0.00    -0.382 OA
ATOM     19  H   UNL     1     -35.015  28.514   4.548  0.00  0.00    +0.210 HD
ENDBRANCH  17  18
BRANCH  17  20
ATOM     20  C   UNL     1     -33.651  26.524   4.619  0.00  0.00    +0.138 C 
ATOM     21  C   UNL     1     -33.843  26.299   6.126  0.00  0.00    +0.034 C 
BRANCH  20  22
ATOM     22  O   UNL     1     -33.013  25.337   4.115  0.00  0.00    -0.382 OA
ATOM     23  H   UNL     1     -33.683  24.656   3.951  0.00  0.00    +0.210 HD
ENDBRANCH  20  22
BRANCH  20  24
ATOM     24  C   UNL     1     -32.703  27.731   4.353  0.00  0.00    +0.148 C 
BRANCH  24  25
ATOM     25  O   UNL     1     -31.513  27.239   3.723  0.00  0.00    -0.381 OA
ATOM     26  H   UNL     1     -31.754  26.601   3.033  0.00  0.00    +0.210 HD
ENDBRANCH  24  25
BRANCH  24  27
ATOM     27  C   UNL     1     -32.274  28.488   5.622  0.00  0.00    +0.141 C 
BRANCH  27  29
ATOM     28  O   UNL     1     -29.974  29.258   5.321  0.00  0.00    -0.250 OA
ATOM     29  C   UNL     1     -30.774  28.479   5.818  0.00  0.00    +0.316 C 
BRANCH  29  30
ATOM     30  O   UNL     1     -30.420  27.460   6.643  0.00  0.00    -0.480 OA
ATOM     31  H   UNL     1     -29.609  27.009   6.509  0.00  0.00    +0.295 HD
ENDBRANCH  29  30
ENDBRANCH  27  29
ENDBRANCH  24  27
ENDBRANCH  20  24
ENDBRANCH  17  20
ENDBRANCH   1  17
TORSDOF 12
ENDMDL
