MODEL 1
REMARK VINA RESULT:      -5.3      0.000      0.000
REMARK  Name = 193332
REMARK  6 active torsions:
REMARK  status: ('A' for Active; 'I' for Inactive)
REMARK    1  A    between atoms: O_1  and  C_2
REMARK    2  A    between atoms: O_1  and  C_12
REMARK    3  A    between atoms: C_3  and  N_10
REMARK    4  A    between atoms: C_12  and  C_13
REMARK    5  A    between atoms: C_13  and  N_15
REMARK    6  A    between atoms: C_16  and  O_18
REMARK                            x       y       z     vdW  Elec       q    Type
REMARK                         _______ _______ _______ _____ _____    ______ ____
ROOT
ATOM      1  O   UNL     1     -36.871  22.975   4.171  0.00  0.00    -0.423 OA
ENDROOT
BRANCH   1   2
ATOM      2  C   UNL     1     -35.963  24.000   4.452  0.00  0.00    +0.149 C 
ATOM      3  C   UNL     1     -34.175  26.020   5.003  0.00  0.00    +0.143 C 
ATOM      4  C   UNL     1     -34.748  24.004   3.802  0.00  0.00    +0.039 C 
ATOM      5  C   UNL     1     -36.317  24.966   5.367  0.00  0.00    +0.039 C 
ATOM      6  C   UNL     1     -33.842  25.028   4.081  0.00  0.00    +0.027 C 
ATOM      7  C   UNL     1     -35.412  25.989   5.646  0.00  0.00    +0.027 C 
BRANCH   3  10
ATOM      8  O   UNL     1     -33.252  28.089   4.572  0.00  0.00    -0.126 OA
ATOM      9  O   UNL     1     -32.460  26.921   6.254  0.00  0.00    -0.126 OA
ATOM     10  N   UNL     1     -33.251  27.060   5.289  0.00  0.00    +0.058 N 
ENDBRANCH   3  10
ENDBRANCH   1   2
BRANCH   1  12
ATOM     11  O   UNL     1     -37.963  24.193   2.510  0.00  0.00    -0.248 OA
ATOM     12  C   UNL     1     -37.523  23.139   2.957  0.00  0.00    +0.342 C 
BRANCH  12  13
ATOM     13  C   UNL     1     -37.640  21.832   2.206  0.00  0.00    +0.204 C 
BRANCH  13  15
ATOM     14  O   UNL     1     -35.022  21.577   0.974  0.00  0.00    -0.226 OA
ATOM     15  N   UNL     1     -36.594  20.891   2.537  0.00  0.00    -0.261 N 
ATOM     16  C   UNL     1     -35.376  20.844   1.893  0.00  0.00    +0.402 C 
ATOM     17  H   UNL     1     -36.761  20.248   3.263  0.00  0.00    +0.153 HD
BRANCH  16  18
ATOM     18  O   UNL     1     -34.608  19.852   2.433  0.00  0.00    -0.431 OA
ATOM     19  C   UNL     1     -33.722  19.185   1.528  0.00  0.00    +0.257 C 
ENDBRANCH  16  18
ENDBRANCH  13  15
ENDBRANCH  12  13
ENDBRANCH   1  12
TORSDOF 6
ENDMDL
MODEL 2
REMARK VINA RESULT:      -5.3      2.402      6.538
REMARK  Name = 193332
REMARK  6 active torsions:
REMARK  status: ('A' for Active; 'I' for Inactive)
REMARK    1  A    between atoms: O_1  and  C_2
REMARK    2  A    between atoms: O_1  and  C_12
REMARK    3  A    between atoms: C_3  and  N_10
REMARK    4  A    between atoms: C_12  and  C_13
REMARK    5  A    between atoms: C_13  and  N_15
REMARK    6  A    between atoms: C_16  and  O_18
REMARK                            x       y       z     vdW  Elec       q    Type
REMARK                         _______ _______ _______ _____ _____    ______ ____
ROOT
ATOM      1  O   UNL     1     -35.396  26.939   4.395  0.00  0.00    -0.423 OA
ENDROOT
BRANCH   1   2
ATOM      2  C   UNL     1     -35.371  25.542   4.413  0.00  0.00    +0.149 C 
ATOM      3  C   UNL     1     -35.320  22.789   4.448  0.00  0.00    +0.143 C 
ATOM      4  C   UNL     1     -35.601  24.862   3.238  0.00  0.00    +0.039 C 
ATOM      5  C   UNL     1     -35.118  24.900   5.604  0.00  0.00    +0.039 C 
ATOM      6  C   UNL     1     -35.575  23.467   3.256  0.00  0.00    +0.027 C 
ATOM      7  C   UNL     1     -35.092  23.506   5.622  0.00  0.00    +0.027 C 
BRANCH   3  10
ATOM      8  O   UNL     1     -35.424  20.746   3.385  0.00  0.00    -0.126 OA
ATOM      9  O   UNL     1     -35.148  20.778   5.563  0.00  0.00    -0.126 OA
ATOM     10  N   UNL     1     -35.297  21.370   4.466  0.00  0.00    +0.058 N 
ENDBRANCH   3  10
ENDBRANCH   1   2
BRANCH   1  12
ATOM     11  O   UNL     1     -35.011  27.986   2.347  0.00  0.00    -0.248 OA
ATOM     12  C   UNL     1     -34.607  27.488   3.393  0.00  0.00    +0.342 C 
BRANCH  12  13
ATOM     13  C   UNL     1     -33.136  27.407   3.734  0.00  0.00    +0.204 C 
BRANCH  13  15
ATOM     14  O   UNL     1     -32.321  26.890   6.474  0.00  0.00    -0.226 OA
ATOM     15  N   UNL     1     -32.732  28.369   4.734  0.00  0.00    -0.261 N 
ATOM     16  C   UNL     1     -32.359  28.029   6.017  0.00  0.00    +0.402 C 
ATOM     17  H   UNL     1     -32.723  29.322   4.485  0.00  0.00    +0.153 HD
BRANCH  16  18
ATOM     18  O   UNL     1     -32.035  29.156   6.717  0.00  0.00    -0.431 OA
ATOM     19  C   UNL     1     -30.651  29.522   6.705  0.00  0.00    +0.257 C 
ENDBRANCH  16  18
ENDBRANCH  13  15
ENDBRANCH  12  13
ENDBRANCH   1  12
TORSDOF 6
ENDMDL
MODEL 3
REMARK VINA RESULT:      -5.3      2.080      6.791
REMARK  Name = 193332
REMARK  6 active torsions:
REMARK  status: ('A' for Active; 'I' for Inactive)
REMARK    1  A    between atoms: O_1  and  C_2
REMARK    2  A    between atoms: O_1  and  C_12
REMARK    3  A    between atoms: C_3  and  N_10
REMARK    4  A    between atoms: C_12  and  C_13
REMARK    5  A    between atoms: C_13  and  N_15
REMARK    6  A    between atoms: C_16  and  O_18
REMARK                            x       y       z     vdW  Elec       q    Type
REMARK                         _______ _______ _______ _____ _____    ______ ____
ROOT
ATOM      1  O   UNL     1     -35.945  25.164   5.720  0.00  0.00    -0.423 OA
ENDROOT
BRANCH   1   2
ATOM      2  C   UNL     1     -35.872  23.998   4.954  0.00  0.00    +0.149 C 
ATOM      3  C   UNL     1     -35.726  21.700   3.443  0.00  0.00    +0.143 C 
ATOM      4  C   UNL     1     -36.341  24.027   3.659  0.00  0.00    +0.039 C 
ATOM      5  C   UNL     1     -35.334  22.865   5.522  0.00  0.00    +0.039 C 
ATOM      6  C   UNL     1     -36.268  22.863   2.894  0.00  0.00    +0.027 C 
ATOM      7  C   UNL     1     -35.260  21.702   4.758  0.00  0.00    +0.027 C 
BRANCH   3  10
ATOM      8  O   UNL     1     -36.670  20.142   2.030  0.00  0.00    -0.126 OA
ATOM      9  O   UNL     1     -34.576  19.875   2.631  0.00  0.00    -0.126 OA
ATOM     10  N   UNL     1     -35.655  20.515   2.665  0.00  0.00    +0.058 N 
ENDBRANCH   3  10
ENDBRANCH   1   2
BRANCH   1  12
ATOM     11  O   UNL     1     -35.300  27.054   4.515  0.00  0.00    -0.248 OA
ATOM     12  C   UNL     1     -35.057  26.148   5.306  0.00  0.00    +0.342 C 
BRANCH  12  13
ATOM     13  C   UNL     1     -33.701  25.984   5.954  0.00  0.00    +0.204 C 
BRANCH  13  15
ATOM     14  O   UNL     1     -31.726  27.800   4.841  0.00  0.00    -0.226 OA
ATOM     15  N   UNL     1     -33.198  27.209   6.534  0.00  0.00    -0.261 N 
ATOM     16  C   UNL     1     -32.254  28.011   5.928  0.00  0.00    +0.402 C 
ATOM     17  H   UNL     1     -33.549  27.485   7.411  0.00  0.00    +0.153 HD
BRANCH  16  18
ATOM     18  O   UNL     1     -31.989  29.090   6.723  0.00  0.00    -0.431 OA
ATOM     19  C   UNL     1     -31.847  30.344   6.048  0.00  0.00    +0.257 C 
ENDBRANCH  16  18
ENDBRANCH  13  15
ENDBRANCH  12  13
ENDBRANCH   1  12
TORSDOF 6
ENDMDL
MODEL 4
REMARK VINA RESULT:      -5.2      2.036      2.763
REMARK  Name = 193332
REMARK  6 active torsions:
REMARK  status: ('A' for Active; 'I' for Inactive)
REMARK    1  A    between atoms: O_1  and  C_2
REMARK    2  A    between atoms: O_1  and  C_12
REMARK    3  A    between atoms: C_3  and  N_10
REMARK    4  A    between atoms: C_12  and  C_13
REMARK    5  A    between atoms: C_13  and  N_15
REMARK    6  A    between atoms: C_16  and  O_18
REMARK                            x       y       z     vdW  Elec       q    Type
REMARK                         _______ _______ _______ _____ _____    ______ ____
ROOT
ATOM      1  O   UNL     1     -35.610  20.604   3.288  0.00  0.00    -0.423 OA
ENDROOT
BRANCH   1   2
ATOM      2  C   UNL     1     -35.384  21.883   3.802  0.00  0.00    +0.149 C 
ATOM      3  C   UNL     1     -34.936  24.404   4.816  0.00  0.00    +0.143 C 
ATOM      4  C   UNL     1     -35.391  22.057   5.169  0.00  0.00    +0.039 C 
ATOM      5  C   UNL     1     -35.163  22.920   2.924  0.00  0.00    +0.039 C 
ATOM      6  C   UNL     1     -35.164  23.335   5.682  0.00  0.00    +0.027 C 
ATOM      7  C   UNL     1     -34.936  24.197   3.437  0.00  0.00    +0.027 C 
BRANCH   3  10
ATOM      8  O   UNL     1     -33.591  25.970   5.843  0.00  0.00    -0.126 OA
ATOM      9  O   UNL     1     -35.632  26.553   5.282  0.00  0.00    -0.126 OA
ATOM     10  N   UNL     1     -34.709  25.704   5.340  0.00  0.00    +0.058 N 
ENDBRANCH   3  10
ENDBRANCH   1   2
BRANCH   1  12
ATOM     11  O   UNL     1     -37.529  21.019   2.029  0.00  0.00    -0.248 OA
ATOM     12  C   UNL     1     -36.378  20.608   2.130  0.00  0.00    +0.342 C 
BRANCH  12  13
ATOM     13  C   UNL     1     -35.620  20.030   0.957  0.00  0.00    +0.204 C 
BRANCH  13  15
ATOM     14  O   UNL     1     -32.753  20.241   0.536  0.00  0.00    -0.226 OA
ATOM     15  N   UNL     1     -34.596  19.089   1.351  0.00  0.00    -0.261 N 
ATOM     16  C   UNL     1     -33.251  19.275   1.106  0.00  0.00    +0.402 C 
ATOM     17  H   UNL     1     -34.874  18.269   1.819  0.00  0.00    +0.153 HD
BRANCH  16  18
ATOM     18  O   UNL     1     -32.543  18.215   1.598  0.00  0.00    -0.431 OA
ATOM     19  C   UNL     1     -31.304  17.932   0.940  0.00  0.00    +0.257 C 
ENDBRANCH  16  18
ENDBRANCH  13  15
ENDBRANCH  12  13
ENDBRANCH   1  12
TORSDOF 6
ENDMDL
MODEL 5
REMARK VINA RESULT:      -5.1      3.069      7.476
REMARK  Name = 193332
REMARK  6 active torsions:
REMARK  status: ('A' for Active; 'I' for Inactive)
REMARK    1  A    between atoms: O_1  and  C_2
REMARK    2  A    between atoms: O_1  and  C_12
REMARK    3  A    between atoms: C_3  and  N_10
REMARK    4  A    between atoms: C_12  and  C_13
REMARK    5  A    between atoms: C_13  and  N_15
REMARK    6  A    between atoms: C_16  and  O_18
REMARK                            x       y       z     vdW  Elec       q    Type
REMARK                         _______ _______ _______ _____ _____    ______ ____
ROOT
ATOM      1  O   UNL     1     -33.555  27.687   5.071  0.00  0.00    -0.423 OA
ENDROOT
BRANCH   1   2
ATOM      2  C   UNL     1     -34.190  26.472   4.804  0.00  0.00    +0.149 C 
ATOM      3  C   UNL     1     -35.441  24.075   4.277  0.00  0.00    +0.143 C 
ATOM      4  C   UNL     1     -33.680  25.663   3.812  0.00  0.00    +0.039 C 
ATOM      5  C   UNL     1     -35.301  26.129   5.541  0.00  0.00    +0.039 C 
ATOM      6  C   UNL     1     -34.314  24.449   3.545  0.00  0.00    +0.027 C 
ATOM      7  C   UNL     1     -35.934  24.916   5.275  0.00  0.00    +0.027 C 
BRANCH   3  10
ATOM      8  O   UNL     1     -37.281  22.852   3.618  0.00  0.00    -0.126 OA
ATOM      9  O   UNL     1     -35.445  21.773   4.152  0.00  0.00    -0.126 OA
ATOM     10  N   UNL     1     -36.087  22.842   4.003  0.00  0.00    +0.058 N 
ENDBRANCH   3  10
ENDBRANCH   1   2
BRANCH   1  12
ATOM     11  O   UNL     1     -32.475  26.841   6.957  0.00  0.00    -0.248 OA
ATOM     12  C   UNL     1     -32.503  27.569   5.970  0.00  0.00    +0.342 C 
BRANCH  12  13
ATOM     13  C   UNL     1     -31.344  28.464   5.594  0.00  0.00    +0.204 C 
BRANCH  13  15
ATOM     14  O   UNL     1     -28.676  27.327   5.428  0.00  0.00    -0.226 OA
ATOM     15  N   UNL     1     -30.304  28.497   6.597  0.00  0.00    -0.261 N 
ATOM     16  C   UNL     1     -29.060  27.926   6.428  0.00  0.00    +0.402 C 
ATOM     17  H   UNL     1     -30.495  28.952   7.449  0.00  0.00    +0.153 HD
BRANCH  16  18
ATOM     18  O   UNL     1     -28.307  28.126   7.550  0.00  0.00    -0.431 OA
ATOM     19  C   UNL     1     -28.236  29.475   8.023  0.00  0.00    +0.257 C 
ENDBRANCH  16  18
ENDBRANCH  13  15
ENDBRANCH  12  13
ENDBRANCH   1  12
TORSDOF 6
ENDMDL
MODEL 6
REMARK VINA RESULT:      -5.1      1.706      2.147
REMARK  Name = 193332
REMARK  6 active torsions:
REMARK  status: ('A' for Active; 'I' for Inactive)
REMARK    1  A    between atoms: O_1  and  C_2
REMARK    2  A    between atoms: O_1  and  C_12
REMARK    3  A    between atoms: C_3  and  N_10
REMARK    4  A    between atoms: C_12  and  C_13
REMARK    5  A    between atoms: C_13  and  N_15
REMARK    6  A    between atoms: C_16  and  O_18
REMARK                            x       y       z     vdW  Elec       q    Type
REMARK                         _______ _______ _______ _____ _____    ______ ____
ROOT
ATOM      1  O   UNL     1     -37.138  25.155   2.444  0.00  0.00    -0.423 OA
ENDROOT
BRANCH   1   2
ATOM      2  C   UNL     1     -36.082  25.604   3.241  0.00  0.00    +0.149 C 
ATOM      3  C   UNL     1     -34.002  26.492   4.812  0.00  0.00    +0.143 C 
ATOM      4  C   UNL     1     -34.866  25.858   2.646  0.00  0.00    +0.039 C 
ATOM      5  C   UNL     1     -36.298  25.776   4.590  0.00  0.00    +0.039 C 
ATOM      6  C   UNL     1     -33.812  26.308   3.443  0.00  0.00    +0.027 C 
ATOM      7  C   UNL     1     -35.245  26.226   5.386  0.00  0.00    +0.027 C 
BRANCH   3  10
ATOM      8  O   UNL     1     -31.990  27.585   5.086  0.00  0.00    -0.126 OA
ATOM      9  O   UNL     1     -32.948  26.700   6.852  0.00  0.00    -0.126 OA
ATOM     10  N   UNL     1     -32.928  26.947   5.622  0.00  0.00    +0.058 N 
ENDBRANCH   3  10
ENDBRANCH   1   2
BRANCH   1  12
ATOM     11  O   UNL     1     -38.933  24.360   3.703  0.00  0.00    -0.248 OA
ATOM     12  C   UNL     1     -37.907  24.174   3.057  0.00  0.00    +0.342 C 
BRANCH  12  13
ATOM     13  C   UNL     1     -37.328  22.794   2.840  0.00  0.00    +0.204 C 
BRANCH  13  15
ATOM     14  O   UNL     1     -35.183  20.836   2.882  0.00  0.00    -0.226 OA
ATOM     15  N   UNL     1     -36.610  22.293   3.989  0.00  0.00    -0.261 N 
ATOM     16  C   UNL     1     -35.600  21.357   3.912  0.00  0.00    +0.402 C 
ATOM     17  H   UNL     1     -36.856  22.638   4.878  0.00  0.00    +0.153 HD
BRANCH  16  18
ATOM     18  O   UNL     1     -35.124  21.090   5.164  0.00  0.00    -0.431 OA
ATOM     19  C   UNL     1     -35.389  22.085   6.159  0.00  0.00    +0.257 C 
ENDBRANCH  16  18
ENDBRANCH  13  15
ENDBRANCH  12  13
ENDBRANCH   1  12
TORSDOF 6
ENDMDL
MODEL 7
REMARK VINA RESULT:      -5.1      2.041      3.565
REMARK  Name = 193332
REMARK  6 active torsions:
REMARK  status: ('A' for Active; 'I' for Inactive)
REMARK    1  A    between atoms: O_1  and  C_2
REMARK    2  A    between atoms: O_1  and  C_12
REMARK    3  A    between atoms: C_3  and  N_10
REMARK    4  A    between atoms: C_12  and  C_13
REMARK    5  A    between atoms: C_13  and  N_15
REMARK    6  A    between atoms: C_16  and  O_18
REMARK                            x       y       z     vdW  Elec       q    Type
REMARK                         _______ _______ _______ _____ _____    ______ ____
ROOT
ATOM      1  O   UNL     1     -35.809  20.767   3.556  0.00  0.00    -0.423 OA
ENDROOT
BRANCH   1   2
ATOM      2  C   UNL     1     -35.488  22.059   3.980  0.00  0.00    +0.149 C 
ATOM      3  C   UNL     1     -34.853  24.606   4.813  0.00  0.00    +0.143 C 
ATOM      4  C   UNL     1     -35.267  22.280   5.321  0.00  0.00    +0.039 C 
ATOM      5  C   UNL     1     -35.404  23.062   3.039  0.00  0.00    +0.039 C 
ATOM      6  C   UNL     1     -34.945  23.571   5.743  0.00  0.00    +0.027 C 
ATOM      7  C   UNL     1     -35.083  24.351   3.461  0.00  0.00    +0.027 C 
BRANCH   3  10
ATOM      8  O   UNL     1     -33.436  26.116   5.827  0.00  0.00    -0.126 OA
ATOM      9  O   UNL     1     -35.344  26.849   5.027  0.00  0.00    -0.126 OA
ATOM     10  N   UNL     1     -34.529  25.919   5.243  0.00  0.00    +0.058 N 
ENDBRANCH   3  10
ENDBRANCH   1   2
BRANCH   1  12
ATOM     11  O   UNL     1     -34.557  20.608   1.595  0.00  0.00    -0.248 OA
ATOM     12  C   UNL     1     -35.628  20.577   2.193  0.00  0.00    +0.342 C 
BRANCH  12  13
ATOM     13  C   UNL     1     -36.939  20.316   1.487  0.00  0.00    +0.204 C 
BRANCH  13  15
ATOM     14  O   UNL     1     -39.615  20.613   0.396  0.00  0.00    -0.226 OA
ATOM     15  N   UNL     1     -38.039  21.076   2.035  0.00  0.00    -0.261 N 
ATOM     16  C   UNL     1     -39.282  21.159   1.443  0.00  0.00    +0.402 C 
ATOM     17  H   UNL     1     -37.894  21.561   2.880  0.00  0.00    +0.153 HD
BRANCH  16  18
ATOM     18  O   UNL     1     -40.101  21.947   2.201  0.00  0.00    -0.431 OA
ATOM     19  C   UNL     1     -39.746  23.332   2.270  0.00  0.00    +0.257 C 
ENDBRANCH  16  18
ENDBRANCH  13  15
ENDBRANCH  12  13
ENDBRANCH   1  12
TORSDOF 6
ENDMDL
MODEL 8
REMARK VINA RESULT:      -5.1      1.516      2.712
REMARK  Name = 193332
REMARK  6 active torsions:
REMARK  status: ('A' for Active; 'I' for Inactive)
REMARK    1  A    between atoms: O_1  and  C_2
REMARK    2  A    between atoms: O_1  and  C_12
REMARK    3  A    between atoms: C_3  and  N_10
REMARK    4  A    between atoms: C_12  and  C_13
REMARK    5  A    between atoms: C_13  and  N_15
REMARK    6  A    between atoms: C_16  and  O_18
REMARK                            x       y       z     vdW  Elec       q    Type
REMARK                         _______ _______ _______ _____ _____    ______ ____
ROOT
ATOM      1  O   UNL     1     -36.344  22.627   4.002  0.00  0.00    -0.423 OA
ENDROOT
BRANCH   1   2
ATOM      2  C   UNL     1     -35.559  23.744   4.297  0.00  0.00    +0.149 C 
ATOM      3  C   UNL     1     -34.011  25.946   4.880  0.00  0.00    +0.143 C 
ATOM      4  C   UNL     1     -35.665  24.315   5.547  0.00  0.00    +0.039 C 
ATOM      5  C   UNL     1     -34.711  24.232   3.329  0.00  0.00    +0.039 C 
ATOM      6  C   UNL     1     -34.881  25.431   5.842  0.00  0.00    +0.027 C 
ATOM      7  C   UNL     1     -33.927  25.347   3.624  0.00  0.00    +0.027 C 
BRANCH   3  10
ATOM      8  O   UNL     1     -33.257  28.074   4.413  0.00  0.00    -0.126 OA
ATOM      9  O   UNL     1     -32.494  27.066   6.208  0.00  0.00    -0.126 OA
ATOM     10  N   UNL     1     -33.216  27.083   5.181  0.00  0.00    +0.058 N 
ENDBRANCH   3  10
ENDBRANCH   1   2
BRANCH   1  12
ATOM     11  O   UNL     1     -35.058  21.015   5.090  0.00  0.00    -0.248 OA
ATOM     12  C   UNL     1     -35.649  21.429   4.098  0.00  0.00    +0.342 C 
BRANCH  12  13
ATOM     13  C   UNL     1     -35.693  20.652   2.802  0.00  0.00    +0.204 C 
BRANCH  13  15
ATOM     14  O   UNL     1     -36.763  21.976   0.448  0.00  0.00    -0.226 OA
ATOM     15  N   UNL     1     -37.026  20.541   2.253  0.00  0.00    -0.261 N 
ATOM     16  C   UNL     1     -37.446  21.213   1.124  0.00  0.00    +0.402 C 
ATOM     17  H   UNL     1     -37.670  19.954   2.711  0.00  0.00    +0.153 HD
BRANCH  16  18
ATOM     18  O   UNL     1     -38.750  20.901   0.862  0.00  0.00    -0.431 OA
ATOM     19  C   UNL     1     -39.718  21.464   1.754  0.00  0.00    +0.257 C 
ENDBRANCH  16  18
ENDBRANCH  13  15
ENDBRANCH  12  13
ENDBRANCH   1  12
TORSDOF 6
ENDMDL
MODEL 9
REMARK VINA RESULT:      -5.1      3.134      7.278
REMARK  Name = 193332
REMARK  6 active torsions:
REMARK  status: ('A' for Active; 'I' for Inactive)
REMARK    1  A    between atoms: O_1  and  C_2
REMARK    2  A    between atoms: O_1  and  C_12
REMARK    3  A    between atoms: C_3  and  N_10
REMARK    4  A    between atoms: C_12  and  C_13
REMARK    5  A    between atoms: C_13  and  N_15
REMARK    6  A    between atoms: C_16  and  O_18
REMARK                            x       y       z     vdW  Elec       q    Type
REMARK                         _______ _______ _______ _____ _____    ______ ____
ROOT
ATOM      1  O   UNL     1     -32.166  27.351   4.604  0.00  0.00    -0.423 OA
ENDROOT
BRANCH   1   2
ATOM      2  C   UNL     1     -33.302  26.540   4.535  0.00  0.00    +0.149 C 
ATOM      3  C   UNL     1     -35.539  24.940   4.401  0.00  0.00    +0.143 C 
ATOM      4  C   UNL     1     -33.693  26.051   3.308  0.00  0.00    +0.039 C 
ATOM      5  C   UNL     1     -33.987  26.261   5.697  0.00  0.00    +0.039 C 
ATOM      6  C   UNL     1     -34.826  25.241   3.240  0.00  0.00    +0.027 C 
ATOM      7  C   UNL     1     -35.119  25.451   5.629  0.00  0.00    +0.027 C 
BRANCH   3  10
ATOM      8  O   UNL     1     -37.810  24.653   4.124  0.00  0.00    -0.126 OA
ATOM      9  O   UNL     1     -36.567  22.877   4.473  0.00  0.00    -0.126 OA
ATOM     10  N   UNL     1     -36.694  24.118   4.330  0.00  0.00    +0.058 N 
ENDBRANCH   3  10
ENDBRANCH   1   2
BRANCH   1  12
ATOM     11  O   UNL     1     -33.225  29.418   4.387  0.00  0.00    -0.248 OA
ATOM     12  C   UNL     1     -32.451  28.662   4.965  0.00  0.00    +0.342 C 
BRANCH  12  13
ATOM     13  C   UNL     1     -31.678  29.082   6.195  0.00  0.00    +0.204 C 
BRANCH  13  15
ATOM     14  O   UNL     1     -28.865  28.975   5.479  0.00  0.00    -0.226 OA
ATOM     15  N   UNL     1     -30.696  28.106   6.609  0.00  0.00    -0.261 N 
ATOM     16  C   UNL     1     -29.375  28.136   6.215  0.00  0.00    +0.402 C 
ATOM     17  H   UNL     1     -30.987  27.378   7.204  0.00  0.00    +0.153 HD
BRANCH  16  18
ATOM     18  O   UNL     1     -28.705  27.083   6.771  0.00  0.00    -0.431 OA
ATOM     19  C   UNL     1     -27.519  27.412   7.501  0.00  0.00    +0.257 C 
ENDBRANCH  16  18
ENDBRANCH  13  15
ENDBRANCH  12  13
ENDBRANCH   1  12
TORSDOF 6
ENDMDL
