MODEL 1
REMARK VINA RESULT:      -6.6      0.000      0.000
REMARK  Name = 196817
REMARK  10 active torsions:
REMARK  status: ('A' for Active; 'I' for Inactive)
REMARK    1  A    between atoms: O_1  and  C_4
REMARK    2  A    between atoms: O_1  and  C_23
REMARK    3  A    between atoms: C_10  and  C_13
REMARK    4  A    between atoms: C_13  and  C_15
REMARK    5  A    between atoms: C_15  and  O_16
REMARK    6  A    between atoms: C_19  and  O_24
REMARK    7  A    between atoms: C_20  and  O_26
REMARK    8  A    between atoms: C_21  and  O_28
REMARK    9  A    between atoms: C_22  and  C_30
REMARK   10  A    between atoms: C_30  and  O_31
REMARK                            x       y       z     vdW  Elec       q    Type
REMARK                         _______ _______ _______ _____ _____    ______ ____
ROOT
ATOM      1  O   UNL     1     -37.154  24.267   4.134  0.00  0.00    -0.450 OA
ENDROOT
BRANCH   1   4
ATOM      2  O   UNL     1     -33.676  27.059   2.438  0.00  0.00    -0.421 OA
ATOM      3  O   UNL     1     -32.015  28.394   1.609  0.00  0.00    -0.244 OA
ATOM      4  C   UNL     1     -36.066  25.065   4.364  0.00  0.00    +0.144 C 
ATOM      5  C   UNL     1     -35.411  25.665   3.299  0.00  0.00    +0.075 C 
ATOM      6  C   UNL     1     -35.622  25.270   5.666  0.00  0.00    +0.037 C 
ATOM      7  C   UNL     1     -33.830  26.702   4.849  0.00  0.00    +0.032 C 
ATOM      8  C   UNL     1     -34.303  26.474   3.556  0.00  0.00    +0.151 C 
ATOM      9  C   UNL     1     -34.510  26.084   5.908  0.00  0.00    +0.006 C 
ATOM     10  C   UNL     1     -32.657  27.568   5.028  0.00  0.00    -0.002 C 
ATOM     11  C   UNL     1     -32.082  28.111   3.945  0.00  0.00    +0.079 C 
ATOM     12  C   UNL     1     -32.568  27.880   2.575  0.00  0.00    +0.346 C 
BRANCH  10  13
ATOM     13  C   UNL     1     -32.125  27.832   6.405  0.00  0.00    +0.136 C 
BRANCH  13  15
ATOM     14  O   UNL     1     -32.348  30.252   6.143  0.00  0.00    -0.250 OA
ATOM     15  C   UNL     1     -31.726  29.276   6.536  0.00  0.00    +0.318 C 
BRANCH  15  16
ATOM     16  O   UNL     1     -30.527  29.355   7.170  0.00  0.00    -0.480 OA
ATOM     17  H   UNL     1     -30.493  29.567   8.083  0.00  0.00    +0.295 HD
ENDBRANCH  15  16
ENDBRANCH  13  15
ENDBRANCH  10  13
ENDBRANCH   1   4
BRANCH   1  23
ATOM     18  O   UNL     1     -38.403  23.586   2.283  0.00  0.00    -0.316 OA
ATOM     19  C   UNL     1     -36.936  21.129   2.097  0.00  0.00    +0.173 C 
ATOM     20  C   UNL     1     -38.271  21.336   1.380  0.00  0.00    +0.169 C 
ATOM     21  C   UNL     1     -36.820  22.046   3.315  0.00  0.00    +0.210 C 
ATOM     22  C   UNL     1     -38.468  22.825   1.071  0.00  0.00    +0.177 C 
ATOM     23  C   UNL     1     -37.137  23.494   2.935  0.00  0.00    +0.318 C 
BRANCH  19  24
ATOM     24  O   UNL     1     -36.811  19.774   2.517  0.00  0.00    -0.379 OA
ATOM     25  H   UNL     1     -36.592  19.746   3.462  0.00  0.00    +0.211 HD
ENDBRANCH  19  24
BRANCH  20  26
ATOM     26  O   UNL     1     -39.340  20.889   2.216  0.00  0.00    -0.379 OA
ATOM     27  H   UNL     1     -39.047  20.889   3.142  0.00  0.00    +0.211 HD
ENDBRANCH  20  26
BRANCH  21  28
ATOM     28  O   UNL     1     -35.486  21.991   3.817  0.00  0.00    -0.377 OA
ATOM     29  H   UNL     1     -35.499  22.088   4.783  0.00  0.00    +0.211 HD
ENDBRANCH  21  28
BRANCH  22  30
ATOM     30  C   UNL     1     -39.820  23.109   0.427  0.00  0.00    +0.169 C 
BRANCH  30  31
ATOM     31  O   UNL     1     -40.789  23.242   1.451  0.00  0.00    -0.379 OA
ATOM     32  H   UNL     1     -40.673  22.529   2.100  0.00  0.00    +0.211 HD
ENDBRANCH  30  31
ENDBRANCH  22  30
ENDBRANCH   1  23
TORSDOF 10
ENDMDL
MODEL 2
REMARK VINA RESULT:      -6.6      1.744      8.218
REMARK  Name = 196817
REMARK  10 active torsions:
REMARK  status: ('A' for Active; 'I' for Inactive)
REMARK    1  A    between atoms: O_1  and  C_4
REMARK    2  A    between atoms: O_1  and  C_23
REMARK    3  A    between atoms: C_10  and  C_13
REMARK    4  A    between atoms: C_13  and  C_15
REMARK    5  A    between atoms: C_15  and  O_16
REMARK    6  A    between atoms: C_19  and  O_24
REMARK    7  A    between atoms: C_20  and  O_26
REMARK    8  A    between atoms: C_21  and  O_28
REMARK    9  A    between atoms: C_22  and  C_30
REMARK   10  A    between atoms: C_30  and  O_31
REMARK                            x       y       z     vdW  Elec       q    Type
REMARK                         _______ _______ _______ _____ _____    ______ ____
ROOT
ATOM      1  O   UNL     1     -33.491  26.180   6.138  0.00  0.00    -0.450 OA
ENDROOT
BRANCH   1   4
ATOM      2  O   UNL     1     -35.066  22.268   3.906  0.00  0.00    -0.421 OA
ATOM      3  O   UNL     1     -35.809  20.384   2.844  0.00  0.00    -0.244 OA
ATOM      4  C   UNL     1     -34.394  25.585   5.299  0.00  0.00    +0.144 C 
ATOM      5  C   UNL     1     -34.288  24.231   5.017  0.00  0.00    +0.075 C 
ATOM      6  C   UNL     1     -35.414  26.342   4.734  0.00  0.00    +0.037 C 
ATOM      7  C   UNL     1     -36.256  24.375   3.573  0.00  0.00    +0.032 C 
ATOM      8  C   UNL     1     -35.220  23.646   4.158  0.00  0.00    +0.151 C 
ATOM      9  C   UNL     1     -36.341  25.741   3.875  0.00  0.00    +0.006 C 
ATOM     10  C   UNL     1     -37.192  23.677   2.681  0.00  0.00    -0.002 C 
ATOM     11  C   UNL     1     -37.022  22.366   2.460  0.00  0.00    +0.079 C 
ATOM     12  C   UNL     1     -35.934  21.582   3.070  0.00  0.00    +0.346 C 
BRANCH  10  13
ATOM     13  C   UNL     1     -38.316  24.433   2.037  0.00  0.00    +0.136 C 
BRANCH  13  15
ATOM     14  O   UNL     1     -40.449  23.253   2.223  0.00  0.00    -0.250 OA
ATOM     15  C   UNL     1     -39.626  24.042   2.663  0.00  0.00    +0.318 C 
BRANCH  15  16
ATOM     16  O   UNL     1     -39.784  24.716   3.832  0.00  0.00    -0.480 OA
ATOM     17  H   UNL     1     -40.342  25.470   3.868  0.00  0.00    +0.295 HD
ENDBRANCH  15  16
ENDBRANCH  13  15
ENDBRANCH  10  13
ENDBRANCH   1   4
BRANCH   1  23
ATOM     18  O   UNL     1     -32.157  26.993   4.403  0.00  0.00    -0.316 OA
ATOM     19  C   UNL     1     -30.911  28.898   6.148  0.00  0.00    +0.173 C 
ATOM     20  C   UNL     1     -30.318  28.532   4.787  0.00  0.00    +0.169 C 
ATOM     21  C   UNL     1     -31.790  27.769   6.685  0.00  0.00    +0.210 C 
ATOM     22  C   UNL     1     -31.436  28.094   3.834  0.00  0.00    +0.177 C 
ATOM     23  C   UNL     1     -32.806  27.325   5.630  0.00  0.00    +0.318 C 
BRANCH  19  24
ATOM     24  O   UNL     1     -29.869  29.166   7.081  0.00  0.00    -0.379 OA
ATOM     25  H   UNL     1     -29.624  30.104   7.033  0.00  0.00    +0.211 HD
ENDBRANCH  19  24
BRANCH  20  26
ATOM     26  O   UNL     1     -29.391  27.456   4.942  0.00  0.00    -0.379 OA
ATOM     27  H   UNL     1     -29.479  27.079   5.833  0.00  0.00    +0.211 HD
ENDBRANCH  20  26
BRANCH  21  28
ATOM     28  O   UNL     1     -32.502  28.233   7.832  0.00  0.00    -0.377 OA
ATOM     29  H   UNL     1     -32.671  27.489   8.431  0.00  0.00    +0.211 HD
ENDBRANCH  21  28
BRANCH  22  30
ATOM     30  C   UNL     1     -30.901  27.636   2.483  0.00  0.00    +0.169 C 
BRANCH  30  31
ATOM     31  O   UNL     1     -30.594  26.256   2.562  0.00  0.00    -0.379 OA
ATOM     32  H   UNL     1     -29.652  26.122   2.364  0.00  0.00    +0.211 HD
ENDBRANCH  30  31
ENDBRANCH  22  30
ENDBRANCH   1  23
TORSDOF 10
ENDMDL
MODEL 3
REMARK VINA RESULT:      -6.5      3.696      9.141
REMARK  Name = 196817
REMARK  10 active torsions:
REMARK  status: ('A' for Active; 'I' for Inactive)
REMARK    1  A    between atoms: O_1  and  C_4
REMARK    2  A    between atoms: O_1  and  C_23
REMARK    3  A    between atoms: C_10  and  C_13
REMARK    4  A    between atoms: C_13  and  C_15
REMARK    5  A    between atoms: C_15  and  O_16
REMARK    6  A    between atoms: C_19  and  O_24
REMARK    7  A    between atoms: C_20  and  O_26
REMARK    8  A    between atoms: C_21  and  O_28
REMARK    9  A    between atoms: C_22  and  C_30
REMARK   10  A    between atoms: C_30  and  O_31
REMARK                            x       y       z     vdW  Elec       q    Type
REMARK                         _______ _______ _______ _____ _____    ______ ____
ROOT
ATOM      1  O   UNL     1     -36.519  22.448   1.588  0.00  0.00    -0.450 OA
ENDROOT
BRANCH   1   4
ATOM      2  O   UNL     1     -33.141  19.079   1.499  0.00  0.00    -0.421 OA
ATOM      3  O   UNL     1     -31.512  17.474   1.467  0.00  0.00    -0.244 OA
ATOM      4  C   UNL     1     -36.081  21.230   1.142  0.00  0.00    +0.144 C 
ATOM      5  C   UNL     1     -34.838  20.756   1.535  0.00  0.00    +0.075 C 
ATOM      6  C   UNL     1     -36.885  20.473   0.297  0.00  0.00    +0.037 C 
ATOM      7  C   UNL     1     -35.192  18.726   0.220  0.00  0.00    +0.032 C 
ATOM      8  C   UNL     1     -34.411  19.512   1.068  0.00  0.00    +0.151 C 
ATOM      9  C   UNL     1     -36.443  19.227  -0.162  0.00  0.00    +0.006 C 
ATOM     10  C   UNL     1     -34.663  17.429  -0.223  0.00  0.00    -0.002 C 
ATOM     11  C   UNL     1     -33.452  17.043   0.203  0.00  0.00    +0.079 C 
ATOM     12  C   UNL     1     -32.616  17.860   1.098  0.00  0.00    +0.346 C 
BRANCH  10  13
ATOM     13  C   UNL     1     -35.478  16.560  -1.135  0.00  0.00    +0.136 C 
BRANCH  13  15
ATOM     14  O   UNL     1     -35.365  14.133  -0.869  0.00  0.00    -0.250 OA
ATOM     15  C   UNL     1     -35.740  15.230  -0.484  0.00  0.00    +0.318 C 
BRANCH  15  16
ATOM     16  O   UNL     1     -36.486  15.417   0.636  0.00  0.00    -0.480 OA
ATOM     17  H   UNL     1     -36.078  15.713   1.427  0.00  0.00    +0.295 HD
ENDBRANCH  15  16
ENDBRANCH  13  15
ENDBRANCH  10  13
ENDBRANCH   1   4
BRANCH   1  23
ATOM     18  O   UNL     1     -35.991  22.561   3.859  0.00  0.00    -0.316 OA
ATOM     19  C   UNL     1     -35.305  25.337   3.643  0.00  0.00    +0.173 C 
ATOM     20  C   UNL     1     -35.561  24.665   4.992  0.00  0.00    +0.169 C 
ATOM     21  C   UNL     1     -36.023  24.595   2.516  0.00  0.00    +0.210 C 
ATOM     22  C   UNL     1     -35.221  23.173   4.901  0.00  0.00    +0.177 C 
ATOM     23  C   UNL     1     -35.709  23.098   2.567  0.00  0.00    +0.318 C 
BRANCH  19  24
ATOM     24  O   UNL     1     -35.754  26.688   3.675  0.00  0.00    -0.379 OA
ATOM     25  H   UNL     1     -36.220  26.895   2.850  0.00  0.00    +0.211 HD
ENDBRANCH  19  24
BRANCH  20  26
ATOM     26  O   UNL     1     -36.938  24.807   5.346  0.00  0.00    -0.379 OA
ATOM     27  H   UNL     1     -37.439  25.120   4.575  0.00  0.00    +0.211 HD
ENDBRANCH  20  26
BRANCH  21  28
ATOM     28  O   UNL     1     -35.579  25.107   1.260  0.00  0.00    -0.377 OA
ATOM     29  H   UNL     1     -36.130  24.743   0.549  0.00  0.00    +0.211 HD
ENDBRANCH  21  28
BRANCH  22  30
ATOM     30  C   UNL     1     -35.532  22.427   6.193  0.00  0.00    +0.169 C 
BRANCH  30  31
ATOM     31  O   UNL     1     -35.398  21.037   5.957  0.00  0.00    -0.379 OA
ATOM     32  H   UNL     1     -35.361  20.567   6.805  0.00  0.00    +0.211 HD
ENDBRANCH  30  31
ENDBRANCH  22  30
ENDBRANCH   1  23
TORSDOF 10
ENDMDL
MODEL 4
REMARK VINA RESULT:      -6.5      2.668      8.691
REMARK  Name = 196817
REMARK  10 active torsions:
REMARK  status: ('A' for Active; 'I' for Inactive)
REMARK    1  A    between atoms: O_1  and  C_4
REMARK    2  A    between atoms: O_1  and  C_23
REMARK    3  A    between atoms: C_10  and  C_13
REMARK    4  A    between atoms: C_13  and  C_15
REMARK    5  A    between atoms: C_15  and  O_16
REMARK    6  A    between atoms: C_19  and  O_24
REMARK    7  A    between atoms: C_20  and  O_26
REMARK    8  A    between atoms: C_21  and  O_28
REMARK    9  A    between atoms: C_22  and  C_30
REMARK   10  A    between atoms: C_30  and  O_31
REMARK                            x       y       z     vdW  Elec       q    Type
REMARK                         _______ _______ _______ _____ _____    ______ ____
ROOT
ATOM      1  O   UNL     1     -32.974  27.670   5.645  0.00  0.00    -0.450 OA
ENDROOT
BRANCH   1   4
ATOM      2  O   UNL     1     -33.536  25.240   1.578  0.00  0.00    -0.421 OA
ATOM      3  O   UNL     1     -33.794  24.086  -0.380  0.00  0.00    -0.244 OA
ATOM      4  C   UNL     1     -33.540  26.626   4.965  0.00  0.00    +0.144 C 
ATOM      5  C   UNL     1     -33.263  26.446   3.618  0.00  0.00    +0.075 C 
ATOM      6  C   UNL     1     -34.393  25.750   5.629  0.00  0.00    +0.037 C 
ATOM      7  C   UNL     1     -34.712  24.478   3.578  0.00  0.00    +0.032 C 
ATOM      8  C   UNL     1     -33.853  25.376   2.944  0.00  0.00    +0.151 C 
ATOM      9  C   UNL     1     -34.976  24.681   4.939  0.00  0.00    +0.006 C 
ATOM     10  C   UNL     1     -35.288  23.379   2.791  0.00  0.00    -0.002 C 
ATOM     11  C   UNL     1     -34.968  23.274   1.493  0.00  0.00    +0.079 C 
ATOM     12  C   UNL     1     -34.063  24.213   0.810  0.00  0.00    +0.346 C 
BRANCH  10  13
ATOM     13  C   UNL     1     -36.215  22.397   3.444  0.00  0.00    +0.136 C 
BRANCH  13  15
ATOM     14  O   UNL     1     -35.138  20.276   2.882  0.00  0.00    -0.250 OA
ATOM     15  C   UNL     1     -35.495  21.103   3.707  0.00  0.00    +0.318 C 
BRANCH  15  16
ATOM     16  O   UNL     1     -35.290  20.967   5.043  0.00  0.00    -0.480 OA
ATOM     17  H   UNL     1     -34.417  20.981   5.387  0.00  0.00    +0.295 HD
ENDBRANCH  15  16
ENDBRANCH  13  15
ENDBRANCH  10  13
ENDBRANCH   1   4
BRANCH   1  23
ATOM     18  O   UNL     1     -30.642  27.731   5.726  0.00  0.00    -0.316 OA
ATOM     19  C   UNL     1     -30.601  30.437   4.776  0.00  0.00    +0.173 C 
ATOM     20  C   UNL     1     -29.383  29.787   5.434  0.00  0.00    +0.169 C 
ATOM     21  C   UNL     1     -31.895  29.763   5.232  0.00  0.00    +0.210 C 
ATOM     22  C   UNL     1     -29.419  28.271   5.209  0.00  0.00    +0.177 C 
ATOM     23  C   UNL     1     -31.801  28.244   5.070  0.00  0.00    +0.318 C 
BRANCH  19  24
ATOM     24  O   UNL     1     -30.653  31.822   5.102  0.00  0.00    -0.379 OA
ATOM     25  H   UNL     1     -30.944  31.928   6.021  0.00  0.00    +0.211 HD
ENDBRANCH  19  24
BRANCH  20  26
ATOM     26  O   UNL     1     -29.399  30.049   6.838  0.00  0.00    -0.379 OA
ATOM     27  H   UNL     1     -30.197  29.659   7.230  0.00  0.00    +0.211 HD
ENDBRANCH  20  26
BRANCH  21  28
ATOM     28  O   UNL     1     -32.978  30.237   4.431  0.00  0.00    -0.377 OA
ATOM     29  H   UNL     1     -33.571  29.499   4.220  0.00  0.00    +0.211 HD
ENDBRANCH  21  28
BRANCH  22  30
ATOM     30  C   UNL     1     -28.272  27.554   5.911  0.00  0.00    +0.169 C 
BRANCH  30  31
ATOM     31  O   UNL     1     -28.761  26.991   7.115  0.00  0.00    -0.379 OA
ATOM     32  H   UNL     1     -29.396  27.602   7.523  0.00  0.00    +0.211 HD
ENDBRANCH  30  31
ENDBRANCH  22  30
ENDBRANCH   1  23
TORSDOF 10
ENDMDL
MODEL 5
REMARK VINA RESULT:      -6.5      4.397      8.020
REMARK  Name = 196817
REMARK  10 active torsions:
REMARK  status: ('A' for Active; 'I' for Inactive)
REMARK    1  A    between atoms: O_1  and  C_4
REMARK    2  A    between atoms: O_1  and  C_23
REMARK    3  A    between atoms: C_10  and  C_13
REMARK    4  A    between atoms: C_13  and  C_15
REMARK    5  A    between atoms: C_15  and  O_16
REMARK    6  A    between atoms: C_19  and  O_24
REMARK    7  A    between atoms: C_20  and  O_26
REMARK    8  A    between atoms: C_21  and  O_28
REMARK    9  A    between atoms: C_22  and  C_30
REMARK   10  A    between atoms: C_30  and  O_31
REMARK                            x       y       z     vdW  Elec       q    Type
REMARK                         _______ _______ _______ _____ _____    ______ ____
ROOT
ATOM      1  O   UNL     1     -35.977  22.618   1.084  0.00  0.00    -0.450 OA
ENDROOT
BRANCH   1   4
ATOM      2  O   UNL     1     -31.624  21.548  -0.550  0.00  0.00    -0.421 OA
ATOM      3  O   UNL     1     -29.536  21.050  -1.339  0.00  0.00    -0.244 OA
ATOM      4  C   UNL     1     -34.960  21.713   0.947  0.00  0.00    +0.144 C 
ATOM      5  C   UNL     1     -33.802  22.070   0.272  0.00  0.00    +0.075 C 
ATOM      6  C   UNL     1     -35.092  20.438   1.487  0.00  0.00    +0.037 C 
ATOM      7  C   UNL     1     -32.876  19.844   0.673  0.00  0.00    +0.032 C 
ATOM      8  C   UNL     1     -32.778  21.131   0.144  0.00  0.00    +0.151 C 
ATOM      9  C   UNL     1     -34.055  19.508   1.351  0.00  0.00    +0.006 C 
ATOM     10  C   UNL     1     -31.748  18.920   0.491  0.00  0.00    -0.002 C 
ATOM     11  C   UNL     1     -30.663  19.343  -0.173  0.00  0.00    +0.079 C 
ATOM     12  C   UNL     1     -30.544  20.699  -0.737  0.00  0.00    +0.346 C 
BRANCH  10  13
ATOM     13  C   UNL     1     -31.823  17.529   1.048  0.00  0.00    +0.136 C 
BRANCH  13  15
ATOM     14  O   UNL     1     -32.846  16.860  -1.069  0.00  0.00    -0.250 OA
ATOM     15  C   UNL     1     -32.307  16.576  -0.010  0.00  0.00    +0.318 C 
BRANCH  15  16
ATOM     16  O   UNL     1     -32.060  15.300   0.387  0.00  0.00    -0.480 OA
ATOM     17  H   UNL     1     -32.759  14.675   0.419  0.00  0.00    +0.295 HD
ENDBRANCH  15  16
ENDBRANCH  13  15
ENDBRANCH  10  13
ENDBRANCH   1   4
BRANCH   1  23
ATOM     18  O   UNL     1     -35.760  23.281   3.311  0.00  0.00    -0.316 OA
ATOM     19  C   UNL     1     -36.721  25.914   2.705  0.00  0.00    +0.173 C 
ATOM     20  C   UNL     1     -36.652  25.383   4.137  0.00  0.00    +0.169 C 
ATOM     21  C   UNL     1     -36.825  24.768   1.699  0.00  0.00    +0.210 C 
ATOM     22  C   UNL     1     -35.535  24.340   4.251  0.00  0.00    +0.177 C 
ATOM     23  C   UNL     1     -35.736  23.723   1.954  0.00  0.00    +0.318 C 
BRANCH  19  24
ATOM     24  O   UNL     1     -37.846  26.774   2.554  0.00  0.00    -0.379 OA
ATOM     25  H   UNL     1     -37.971  26.983   1.615  0.00  0.00    +0.211 HD
ENDBRANCH  19  24
BRANCH  20  26
ATOM     26  O   UNL     1     -37.896  24.771   4.482  0.00  0.00    -0.379 OA
ATOM     27  H   UNL     1     -37.903  24.566   5.431  0.00  0.00    +0.211 HD
ENDBRANCH  20  26
BRANCH  21  28
ATOM     28  O   UNL     1     -36.655  25.284   0.379  0.00  0.00    -0.377 OA
ATOM     29  H   UNL     1     -35.747  25.117   0.081  0.00  0.00    +0.211 HD
ENDBRANCH  21  28
BRANCH  22  30
ATOM     30  C   UNL     1     -35.467  23.711   5.637  0.00  0.00    +0.169 C 
BRANCH  30  31
ATOM     31  O   UNL     1     -36.280  22.551   5.647  0.00  0.00    -0.379 OA
ATOM     32  H   UNL     1     -35.737  21.774   5.438  0.00  0.00    +0.211 HD
ENDBRANCH  30  31
ENDBRANCH  22  30
ENDBRANCH   1  23
TORSDOF 10
ENDMDL
MODEL 6
REMARK VINA RESULT:      -6.4      2.330      8.664
REMARK  Name = 196817
REMARK  10 active torsions:
REMARK  status: ('A' for Active; 'I' for Inactive)
REMARK    1  A    between atoms: O_1  and  C_4
REMARK    2  A    between atoms: O_1  and  C_23
REMARK    3  A    between atoms: C_10  and  C_13
REMARK    4  A    between atoms: C_13  and  C_15
REMARK    5  A    between atoms: C_15  and  O_16
REMARK    6  A    between atoms: C_19  and  O_24
REMARK    7  A    between atoms: C_20  and  O_26
REMARK    8  A    between atoms: C_21  and  O_28
REMARK    9  A    between atoms: C_22  and  C_30
REMARK   10  A    between atoms: C_30  and  O_31
REMARK                            x       y       z     vdW  Elec       q    Type
REMARK                         _______ _______ _______ _____ _____    ______ ____
ROOT
ATOM      1  O   UNL     1     -34.615  28.231   3.713  0.00  0.00    -0.450 OA
ENDROOT
BRANCH   1   4
ATOM      2  O   UNL     1     -35.147  24.021   5.894  0.00  0.00    -0.421 OA
ATOM      3  O   UNL     1     -35.399  22.011   6.955  0.00  0.00    -0.244 OA
ATOM      4  C   UNL     1     -34.838  26.884   3.634  0.00  0.00    +0.144 C 
ATOM      5  C   UNL     1     -34.882  26.121   4.791  0.00  0.00    +0.075 C 
ATOM      6  C   UNL     1     -35.020  26.285   2.392  0.00  0.00    +0.037 C 
ATOM      7  C   UNL     1     -35.298  24.114   3.458  0.00  0.00    +0.032 C 
ATOM      8  C   UNL     1     -35.111  24.748   4.687  0.00  0.00    +0.151 C 
ATOM      9  C   UNL     1     -35.249  24.907   2.304  0.00  0.00    +0.006 C 
ATOM     10  C   UNL     1     -35.534  22.664   3.442  0.00  0.00    -0.002 C 
ATOM     11  C   UNL     1     -35.562  21.999   4.606  0.00  0.00    +0.079 C 
ATOM     12  C   UNL     1     -35.367  22.653   5.911  0.00  0.00    +0.346 C 
BRANCH  10  13
ATOM     13  C   UNL     1     -35.738  21.953   2.137  0.00  0.00    +0.136 C 
BRANCH  13  15
ATOM     14  O   UNL     1     -34.454  19.874   2.196  0.00  0.00    -0.250 OA
ATOM     15  C   UNL     1     -35.510  20.477   2.312  0.00  0.00    +0.318 C 
BRANCH  15  16
ATOM     16  O   UNL     1     -36.688  19.875   2.625  0.00  0.00    -0.480 OA
ATOM     17  H   UNL     1     -36.688  19.032   3.036  0.00  0.00    +0.295 HD
ENDBRANCH  15  16
ENDBRANCH  13  15
ENDBRANCH  10  13
ENDBRANCH   1   4
BRANCH   1  23
ATOM     18  O   UNL     1     -32.654  28.489   4.953  0.00  0.00    -0.316 OA
ATOM     19  C   UNL     1     -31.816  30.693   3.320  0.00  0.00    +0.173 C 
ATOM     20  C   UNL     1     -31.184  30.404   4.682  0.00  0.00    +0.169 C 
ATOM     21  C   UNL     1     -33.233  30.125   3.241  0.00  0.00    +0.210 C 
ATOM     22  C   UNL     1     -31.283  28.906   4.992  0.00  0.00    +0.177 C 
ATOM     23  C   UNL     1     -33.253  28.656   3.668  0.00  0.00    +0.318 C 
BRANCH  19  24
ATOM     24  O   UNL     1     -31.860  32.097   3.088  0.00  0.00    -0.379 OA
ATOM     25  H   UNL     1     -31.249  32.545   3.694  0.00  0.00    +0.211 HD
ENDBRANCH  19  24
BRANCH  20  26
ATOM     26  O   UNL     1     -31.876  31.135   5.697  0.00  0.00    -0.379 OA
ATOM     27  H   UNL     1     -31.233  31.502   6.325  0.00  0.00    +0.211 HD
ENDBRANCH  20  26
BRANCH  21  28
ATOM     28  O   UNL     1     -33.698  30.211   1.894  0.00  0.00    -0.377 OA
ATOM     29  H   UNL     1     -32.944  30.149   1.287  0.00  0.00    +0.211 HD
ENDBRANCH  21  28
BRANCH  22  30
ATOM     30  C   UNL     1     -30.743  28.562   6.375  0.00  0.00    +0.169 C 
BRANCH  30  31
ATOM     31  O   UNL     1     -31.806  28.639   7.307  0.00  0.00    -0.379 OA
ATOM     32  H   UNL     1     -32.560  28.122   6.981  0.00  0.00    +0.211 HD
ENDBRANCH  30  31
ENDBRANCH  22  30
ENDBRANCH   1  23
TORSDOF 10
ENDMDL
MODEL 7
REMARK VINA RESULT:      -6.3      1.818      8.659
REMARK  Name = 196817
REMARK  10 active torsions:
REMARK  status: ('A' for Active; 'I' for Inactive)
REMARK    1  A    between atoms: O_1  and  C_4
REMARK    2  A    between atoms: O_1  and  C_23
REMARK    3  A    between atoms: C_10  and  C_13
REMARK    4  A    between atoms: C_13  and  C_15
REMARK    5  A    between atoms: C_15  and  O_16
REMARK    6  A    between atoms: C_19  and  O_24
REMARK    7  A    between atoms: C_20  and  O_26
REMARK    8  A    between atoms: C_21  and  O_28
REMARK    9  A    between atoms: C_22  and  C_30
REMARK   10  A    between atoms: C_30  and  O_31
REMARK                            x       y       z     vdW  Elec       q    Type
REMARK                         _______ _______ _______ _____ _____    ______ ____
ROOT
ATOM      1  O   UNL     1     -33.657  27.273   5.249  0.00  0.00    -0.450 OA
ENDROOT
BRANCH   1   4
ATOM      2  O   UNL     1     -37.821  25.331   3.961  0.00  0.00    -0.421 OA
ATOM      3  O   UNL     1     -39.825  24.414   3.351  0.00  0.00    -0.244 OA
ATOM      4  C   UNL     1     -34.346  26.267   4.628  0.00  0.00    +0.144 C 
ATOM      5  C   UNL     1     -35.732  26.292   4.600  0.00  0.00    +0.075 C 
ATOM      6  C   UNL     1     -33.651  25.223   4.027  0.00  0.00    +0.037 C 
ATOM      7  C   UNL     1     -35.749  24.192   3.347  0.00  0.00    +0.032 C 
ATOM      8  C   UNL     1     -36.413  25.255   3.960  0.00  0.00    +0.151 C 
ATOM      9  C   UNL     1     -34.349  24.190   3.390  0.00  0.00    +0.006 C 
ATOM     10  C   UNL     1     -36.547  23.144   2.697  0.00  0.00    -0.002 C 
ATOM     11  C   UNL     1     -37.884  23.242   2.714  0.00  0.00    +0.079 C 
ATOM     12  C   UNL     1     -38.600  24.357   3.356  0.00  0.00    +0.346 C 
BRANCH  10  13
ATOM     13  C   UNL     1     -35.862  21.988   2.030  0.00  0.00    +0.136 C 
BRANCH  13  15
ATOM     14  O   UNL     1     -35.133  20.700   3.975  0.00  0.00    -0.250 OA
ATOM     15  C   UNL     1     -35.809  20.810   2.963  0.00  0.00    +0.318 C 
BRANCH  15  16
ATOM     16  O   UNL     1     -36.645  19.840   2.510  0.00  0.00    -0.480 OA
ATOM     17  H   UNL     1     -37.571  19.987   2.498  0.00  0.00    +0.295 HD
ENDBRANCH  15  16
ENDBRANCH  13  15
ENDBRANCH  10  13
ENDBRANCH   1   4
BRANCH   1  23
ATOM     18  O   UNL     1     -31.369  27.732   5.266  0.00  0.00    -0.316 OA
ATOM     19  C   UNL     1     -31.740  30.051   3.622  0.00  0.00    +0.173 C 
ATOM     20  C   UNL     1     -30.451  29.809   4.407  0.00  0.00    +0.169 C 
ATOM     21  C   UNL     1     -32.920  29.324   4.266  0.00  0.00    +0.210 C 
ATOM     22  C   UNL     1     -30.236  28.304   4.600  0.00  0.00    +0.177 C 
ATOM     23  C   UNL     1     -32.578  27.854   4.518  0.00  0.00    +0.318 C 
BRANCH  19  24
ATOM     24  O   UNL     1     -32.024  31.446   3.563  0.00  0.00    -0.379 OA
ATOM     25  H   UNL     1     -32.290  31.685   2.661  0.00  0.00    +0.211 HD
ENDBRANCH  19  24
BRANCH  20  26
ATOM     26  O   UNL     1     -30.545  30.433   5.689  0.00  0.00    -0.379 OA
ATOM     27  H   UNL     1     -31.473  30.445   5.975  0.00  0.00    +0.211 HD
ENDBRANCH  20  26
BRANCH  21  28
ATOM     28  O   UNL     1     -34.044  29.383   3.389  0.00  0.00    -0.377 OA
ATOM     29  H   UNL     1     -33.756  29.691   2.514  0.00  0.00    +0.211 HD
ENDBRANCH  21  28
BRANCH  22  30
ATOM     30  C   UNL     1     -29.007  27.997   5.448  0.00  0.00    +0.169 C 
BRANCH  30  31
ATOM     31  O   UNL     1     -29.435  27.612   6.741  0.00  0.00    -0.379 OA
ATOM     32  H   UNL     1     -29.038  28.201   7.402  0.00  0.00    +0.211 HD
ENDBRANCH  30  31
ENDBRANCH  22  30
ENDBRANCH   1  23
TORSDOF 10
ENDMDL
MODEL 8
REMARK VINA RESULT:      -6.3      2.241      9.032
REMARK  Name = 196817
REMARK  10 active torsions:
REMARK  status: ('A' for Active; 'I' for Inactive)
REMARK    1  A    between atoms: O_1  and  C_4
REMARK    2  A    between atoms: O_1  and  C_23
REMARK    3  A    between atoms: C_10  and  C_13
REMARK    4  A    between atoms: C_13  and  C_15
REMARK    5  A    between atoms: C_15  and  O_16
REMARK    6  A    between atoms: C_19  and  O_24
REMARK    7  A    between atoms: C_20  and  O_26
REMARK    8  A    between atoms: C_21  and  O_28
REMARK    9  A    between atoms: C_22  and  C_30
REMARK   10  A    between atoms: C_30  and  O_31
REMARK                            x       y       z     vdW  Elec       q    Type
REMARK                         _______ _______ _______ _____ _____    ______ ____
ROOT
ATOM      1  O   UNL     1     -32.916  28.099   5.324  0.00  0.00    -0.450 OA
ENDROOT
BRANCH   1   4
ATOM      2  O   UNL     1     -35.026  23.889   6.092  0.00  0.00    -0.421 OA
ATOM      3  O   UNL     1     -36.038  21.875   6.476  0.00  0.00    -0.244 OA
ATOM      4  C   UNL     1     -33.439  26.936   4.828  0.00  0.00    +0.144 C 
ATOM      5  C   UNL     1     -33.971  25.992   5.694  0.00  0.00    +0.075 C 
ATOM      6  C   UNL     1     -33.434  26.705   3.457  0.00  0.00    +0.037 C 
ATOM      7  C   UNL     1     -34.510  24.548   3.797  0.00  0.00    +0.032 C 
ATOM      8  C   UNL     1     -34.498  24.813   5.167  0.00  0.00    +0.151 C 
ATOM      9  C   UNL     1     -33.967  25.517   2.943  0.00  0.00    +0.006 C 
ATOM     10  C   UNL     1     -35.085  23.280   3.329  0.00  0.00    -0.002 C 
ATOM     11  C   UNL     1     -35.581  22.421   4.232  0.00  0.00    +0.079 C 
ATOM     12  C   UNL     1     -35.576  22.685   5.680  0.00  0.00    +0.346 C 
BRANCH  10  13
ATOM     13  C   UNL     1     -35.113  22.966   1.862  0.00  0.00    +0.136 C 
BRANCH  13  15
ATOM     14  O   UNL     1     -36.823  24.448   0.941  0.00  0.00    -0.250 OA
ATOM     15  C   UNL     1     -36.449  23.336   1.281  0.00  0.00    +0.318 C 
BRANCH  15  16
ATOM     16  O   UNL     1     -37.221  22.223   1.185  0.00  0.00    -0.480 OA
ATOM     17  H   UNL     1     -36.834  21.403   0.945  0.00  0.00    +0.295 HD
ENDBRANCH  15  16
ENDBRANCH  13  15
ENDBRANCH  10  13
ENDBRANCH   1   4
BRANCH   1  23
ATOM     18  O   UNL     1     -30.602  27.892   5.548  0.00  0.00    -0.316 OA
ATOM     19  C   UNL     1     -30.184  30.526   4.493  0.00  0.00    +0.173 C 
ATOM     20  C   UNL     1     -29.092  29.771   5.251  0.00  0.00    +0.169 C 
ATOM     21  C   UNL     1     -31.573  30.031   4.894  0.00  0.00    +0.210 C 
ATOM     22  C   UNL     1     -29.295  28.261   5.086  0.00  0.00    +0.177 C 
ATOM     23  C   UNL     1     -31.652  28.505   4.800  0.00  0.00    +0.318 C 
BRANCH  19  24
ATOM     24  O   UNL     1     -30.090  31.923   4.759  0.00  0.00    -0.379 OA
ATOM     25  H   UNL     1     -29.611  32.358   4.036  0.00  0.00    +0.211 HD
ENDBRANCH  19  24
BRANCH  20  26
ATOM     26  O   UNL     1     -29.157  30.100   6.640  0.00  0.00    -0.379 OA
ATOM     27  H   UNL     1     -29.766  29.491   7.088  0.00  0.00    +0.211 HD
ENDBRANCH  20  26
BRANCH  21  28
ATOM     28  O   UNL     1     -32.544  30.589   4.009  0.00  0.00    -0.377 OA
ATOM     29  H   UNL     1     -32.242  30.489   3.092  0.00  0.00    +0.211 HD
ENDBRANCH  21  28
BRANCH  22  30
ATOM     30  C   UNL     1     -28.285  27.449   5.887  0.00  0.00    +0.169 C 
BRANCH  30  31
ATOM     31  O   UNL     1     -28.874  27.086   7.123  0.00  0.00    -0.379 OA
ATOM     32  H   UNL     1     -28.451  27.584   7.841  0.00  0.00    +0.211 HD
ENDBRANCH  30  31
ENDBRANCH  22  30
ENDBRANCH   1  23
TORSDOF 10
ENDMDL
MODEL 9
REMARK VINA RESULT:      -6.1      4.067      6.678
REMARK  Name = 196817
REMARK  10 active torsions:
REMARK  status: ('A' for Active; 'I' for Inactive)
REMARK    1  A    between atoms: O_1  and  C_4
REMARK    2  A    between atoms: O_1  and  C_23
REMARK    3  A    between atoms: C_10  and  C_13
REMARK    4  A    between atoms: C_13  and  C_15
REMARK    5  A    between atoms: C_15  and  O_16
REMARK    6  A    between atoms: C_19  and  O_24
REMARK    7  A    between atoms: C_20  and  O_26
REMARK    8  A    between atoms: C_21  and  O_28
REMARK    9  A    between atoms: C_22  and  C_30
REMARK   10  A    between atoms: C_30  and  O_31
REMARK                            x       y       z     vdW  Elec       q    Type
REMARK                         _______ _______ _______ _____ _____    ______ ____
ROOT
ATOM      1  O   UNL     1     -34.821  20.054   0.094  0.00  0.00    -0.450 OA
ENDROOT
BRANCH   1   4
ATOM      2  O   UNL     1     -35.527  21.475   4.593  0.00  0.00    -0.421 OA
ATOM      3  O   UNL     1     -35.867  22.140   6.755  0.00  0.00    -0.244 OA
ATOM      4  C   UNL     1     -34.925  21.068   1.006  0.00  0.00    +0.144 C 
ATOM      5  C   UNL     1     -35.173  20.777   2.339  0.00  0.00    +0.075 C 
ATOM      6  C   UNL     1     -34.780  22.388   0.591  0.00  0.00    +0.037 C 
ATOM      7  C   UNL     1     -35.136  23.163   2.872  0.00  0.00    +0.032 C 
ATOM      8  C   UNL     1     -35.275  21.828   3.252  0.00  0.00    +0.151 C 
ATOM      9  C   UNL     1     -34.885  23.430   1.519  0.00  0.00    +0.006 C 
ATOM     10  C   UNL     1     -35.258  24.205   3.900  0.00  0.00    -0.002 C 
ATOM     11  C   UNL     1     -35.498  23.840   5.167  0.00  0.00    +0.079 C 
ATOM     12  C   UNL     1     -35.648  22.436   5.585  0.00  0.00    +0.346 C 
BRANCH  10  13
ATOM     13  C   UNL     1     -35.113  25.650   3.522  0.00  0.00    +0.136 C 
BRANCH  13  15
ATOM     14  O   UNL     1     -33.943  27.004   5.186  0.00  0.00    -0.250 OA
ATOM     15  C   UNL     1     -33.927  26.250   4.225  0.00  0.00    +0.318 C 
BRANCH  15  16
ATOM     16  O   UNL     1     -32.786  25.829   3.620  0.00  0.00    -0.480 OA
ATOM     17  H   UNL     1     -32.827  25.410   2.782  0.00  0.00    +0.295 HD
ENDBRANCH  15  16
ENDBRANCH  13  15
ENDBRANCH  10  13
ENDBRANCH   1   4
BRANCH   1  23
ATOM     18  O   UNL     1     -32.841  18.863   0.425  0.00  0.00    -0.316 OA
ATOM     19  C   UNL     1     -34.195  16.359   0.080  0.00  0.00    +0.173 C 
ATOM     20  C   UNL     1     -32.672  16.476   0.012  0.00  0.00    +0.169 C 
ATOM     21  C   UNL     1     -34.864  17.689  -0.263  0.00  0.00    +0.210 C 
ATOM     22  C   UNL     1     -32.204  17.658   0.868  0.00  0.00    +0.177 C 
ATOM     23  C   UNL     1     -34.261  18.828   0.563  0.00  0.00    +0.318 C 
BRANCH  19  24
ATOM     24  O   UNL     1     -34.651  15.358  -0.825  0.00  0.00    -0.379 OA
ATOM     25  H   UNL     1     -35.561  15.108  -0.600  0.00  0.00    +0.211 HD
ENDBRANCH  19  24
BRANCH  20  26
ATOM     26  O   UNL     1     -32.268  16.694  -1.341  0.00  0.00    -0.379 OA
ATOM     27  H   UNL     1     -32.258  17.647  -1.526  0.00  0.00    +0.211 HD
ENDBRANCH  20  26
BRANCH  21  28
ATOM     28  O   UNL     1     -36.257  17.604   0.033  0.00  0.00    -0.377 OA
ATOM     29  H   UNL     1     -36.766  17.625  -0.794  0.00  0.00    +0.211 HD
ENDBRANCH  21  28
BRANCH  22  30
ATOM     30  C   UNL     1     -30.699  17.880   0.778  0.00  0.00    +0.169 C 
BRANCH  30  31
ATOM     31  O   UNL     1     -30.061  16.619   0.676  0.00  0.00    -0.379 OA
ATOM     32  H   UNL     1     -29.481  16.488   1.442  0.00  0.00    +0.211 HD
ENDBRANCH  30  31
ENDBRANCH  22  30
ENDBRANCH   1  23
TORSDOF 10
ENDMDL
