MODEL 1
REMARK VINA RESULT:      -5.6      0.000      0.000
REMARK  Name = 5578
REMARK  5 active torsions:
REMARK  status: ('A' for Active; 'I' for Inactive)
REMARK    1  A    between atoms: C_1  and  C_6
REMARK    2  A    between atoms: C_1  and  C_14
REMARK    3  A    between atoms: C_17  and  O_20
REMARK    4  A    between atoms: C_18  and  O_22
REMARK    5  A    between atoms: C_19  and  O_24
REMARK                            x       y       z     vdW  Elec       q    Type
REMARK                         _______ _______ _______ _____ _____    ______ ____
ROOT
ATOM      1  C   UNL     1     -35.672  23.766   5.124  0.00  0.00    +0.058 C 
ENDROOT
BRANCH   1   6
ATOM      2  N   UNL     1     -34.714  27.351   4.408  0.00  0.00    -0.323 NA
ATOM      3  N   UNL     1     -32.941  25.895   3.670  0.00  0.00    -0.170 NA
ATOM      4  N   UNL     1     -36.668  26.445   5.402  0.00  0.00    -0.332 N 
ATOM      5  N   UNL     1     -32.772  28.222   3.421  0.00  0.00    -0.293 N 
ATOM      6  C   UNL     1     -34.905  24.991   4.670  0.00  0.00    +0.047 C 
ATOM      7  C   UNL     1     -35.394  26.258   4.810  0.00  0.00    +0.188 C 
ATOM      8  C   UNL     1     -33.675  24.846   4.096  0.00  0.00    +0.112 C 
ATOM      9  C   UNL     1     -33.512  27.101   3.853  0.00  0.00    +0.143 C 
ATOM     10  H   UNL     1     -37.031  27.354   5.509  0.00  0.00    +0.145 HD
ATOM     11  H   UNL     1     -37.189  25.668   5.705  0.00  0.00    +0.145 HD
ATOM     12  H   UNL     1     -33.141  29.128   3.530  0.00  0.00    +0.155 HD
ATOM     13  H   UNL     1     -31.887  28.098   3.008  0.00  0.00    +0.155 HD
ENDBRANCH   1   6
BRANCH   1  14
ATOM     14  C   UNL     1     -36.207  22.939   4.004  0.00  0.00    -0.011 C 
ATOM     15  C   UNL     1     -35.551  21.767   3.627  0.00  0.00    +0.036 C 
ATOM     16  C   UNL     1     -37.364  23.337   3.333  0.00  0.00    +0.036 C 
ATOM     17  C   UNL     1     -37.864  22.564   2.286  0.00  0.00    +0.175 C 
ATOM     18  C   UNL     1     -36.052  20.994   2.580  0.00  0.00    +0.175 C 
ATOM     19  C   UNL     1     -37.208  21.393   1.909  0.00  0.00    +0.206 C 
BRANCH  17  20
ATOM     20  O   UNL     1     -38.995  22.964   1.639  0.00  0.00    -0.468 OA
ATOM     21  C   UNL     1     -39.846  23.877   2.329  0.00  0.00    +0.253 C 
ENDBRANCH  17  20
BRANCH  18  22
ATOM     22  O   UNL     1     -35.401  19.851   2.223  0.00  0.00    -0.468 OA
ATOM     23  C   UNL     1     -34.213  19.997   1.448  0.00  0.00    +0.253 C 
ENDBRANCH  18  22
BRANCH  19  24
ATOM     24  O   UNL     1     -37.697  20.635   0.885  0.00  0.00    -0.465 OA
ATOM     25  C   UNL     1     -37.276  20.980  -0.432  0.00  0.00    +0.253 C 
ENDBRANCH  19  24
ENDBRANCH   1  14
TORSDOF 5
ENDMDL
MODEL 2
REMARK VINA RESULT:      -5.6      0.026      2.798
REMARK  Name = 5578
REMARK  5 active torsions:
REMARK  status: ('A' for Active; 'I' for Inactive)
REMARK    1  A    between atoms: C_1  and  C_6
REMARK    2  A    between atoms: C_1  and  C_14
REMARK    3  A    between atoms: C_17  and  O_20
REMARK    4  A    between atoms: C_18  and  O_22
REMARK    5  A    between atoms: C_19  and  O_24
REMARK                            x       y       z     vdW  Elec       q    Type
REMARK                         _______ _______ _______ _____ _____    ______ ____
ROOT
ATOM      1  C   UNL     1     -35.686  23.766   5.130  0.00  0.00    +0.058 C 
ENDROOT
BRANCH   1   6
ATOM      2  N   UNL     1     -34.706  27.345   4.413  0.00  0.00    -0.323 NA
ATOM      3  N   UNL     1     -32.941  25.878   3.676  0.00  0.00    -0.170 NA
ATOM      4  N   UNL     1     -36.665  26.451   5.407  0.00  0.00    -0.332 N 
ATOM      5  N   UNL     1     -32.759  28.204   3.426  0.00  0.00    -0.293 N 
ATOM      6  C   UNL     1     -34.911  24.987   4.676  0.00  0.00    +0.047 C 
ATOM      7  C   UNL     1     -35.393  26.256   4.815  0.00  0.00    +0.188 C 
ATOM      8  C   UNL     1     -33.682  24.834   4.102  0.00  0.00    +0.112 C 
ATOM      9  C   UNL     1     -33.505  27.087   3.859  0.00  0.00    +0.143 C 
ATOM     10  H   UNL     1     -37.023  27.363   5.514  0.00  0.00    +0.145 HD
ATOM     11  H   UNL     1     -37.191  25.677   5.711  0.00  0.00    +0.145 HD
ATOM     12  H   UNL     1     -33.123  29.112   3.534  0.00  0.00    +0.155 HD
ATOM     13  H   UNL     1     -31.874  28.074   3.013  0.00  0.00    +0.155 HD
ENDBRANCH   1   6
BRANCH   1  14
ATOM     14  C   UNL     1     -36.224  22.941   4.011  0.00  0.00    -0.011 C 
ATOM     15  C   UNL     1     -37.387  23.336   3.350  0.00  0.00    +0.036 C 
ATOM     16  C   UNL     1     -35.565  21.773   3.626  0.00  0.00    +0.036 C 
ATOM     17  C   UNL     1     -36.069  21.000   2.580  0.00  0.00    +0.175 C 
ATOM     18  C   UNL     1     -37.890  22.563   2.303  0.00  0.00    +0.175 C 
ATOM     19  C   UNL     1     -37.231  21.395   1.919  0.00  0.00    +0.206 C 
BRANCH  17  20
ATOM     20  O   UNL     1     -35.416  19.862   2.213  0.00  0.00    -0.468 OA
ATOM     21  C   UNL     1     -34.225  20.018   1.443  0.00  0.00    +0.253 C 
ENDBRANCH  17  20
BRANCH  18  22
ATOM     22  O   UNL     1     -39.027  22.961   1.666  0.00  0.00    -0.468 OA
ATOM     23  C   UNL     1     -39.829  23.940   2.322  0.00  0.00    +0.253 C 
ENDBRANCH  18  22
BRANCH  19  24
ATOM     24  O   UNL     1     -37.725  20.640   0.895  0.00  0.00    -0.465 OA
ATOM     25  C   UNL     1     -37.301  20.981  -0.422  0.00  0.00    +0.253 C 
ENDBRANCH  19  24
ENDBRANCH   1  14
TORSDOF 5
ENDMDL
MODEL 3
REMARK VINA RESULT:      -5.6      4.110      6.291
REMARK  Name = 5578
REMARK  5 active torsions:
REMARK  status: ('A' for Active; 'I' for Inactive)
REMARK    1  A    between atoms: C_1  and  C_6
REMARK    2  A    between atoms: C_1  and  C_14
REMARK    3  A    between atoms: C_17  and  O_20
REMARK    4  A    between atoms: C_18  and  O_22
REMARK    5  A    between atoms: C_19  and  O_24
REMARK                            x       y       z     vdW  Elec       q    Type
REMARK                         _______ _______ _______ _____ _____    ______ ____
ROOT
ATOM      1  C   UNL     1     -35.929  24.157   5.285  0.00  0.00    +0.058 C 
ENDROOT
BRANCH   1   6
ATOM      2  N   UNL     1     -35.256  20.695   3.928  0.00  0.00    -0.323 NA
ATOM      3  N   UNL     1     -36.450  21.976   2.272  0.00  0.00    -0.170 NA
ATOM      4  N   UNL     1     -34.697  21.669   6.017  0.00  0.00    -0.332 N 
ATOM      5  N   UNL     1     -35.819  19.754   1.854  0.00  0.00    -0.293 N 
ATOM      6  C   UNL     1     -35.887  22.948   4.372  0.00  0.00    +0.047 C 
ATOM      7  C   UNL     1     -35.296  21.773   4.737  0.00  0.00    +0.188 C 
ATOM      8  C   UNL     1     -36.454  23.015   3.132  0.00  0.00    +0.112 C 
ATOM      9  C   UNL     1     -35.842  20.863   2.727  0.00  0.00    +0.143 C 
ATOM     10  H   UNL     1     -34.268  20.826   6.292  0.00  0.00    +0.145 HD
ATOM     11  H   UNL     1     -34.709  22.438   6.630  0.00  0.00    +0.145 HD
ATOM     12  H   UNL     1     -35.388  18.915   2.134  0.00  0.00    +0.155 HD
ATOM     13  H   UNL     1     -36.233  19.821   0.963  0.00  0.00    +0.155 HD
ENDBRANCH   1   6
BRANCH   1  14
ATOM     14  C   UNL     1     -35.256  25.363   4.723  0.00  0.00    -0.011 C 
ATOM     15  C   UNL     1     -34.020  25.769   5.224  0.00  0.00    +0.036 C 
ATOM     16  C   UNL     1     -35.863  26.086   3.695  0.00  0.00    +0.036 C 
ATOM     17  C   UNL     1     -35.234  27.214   3.170  0.00  0.00    +0.175 C 
ATOM     18  C   UNL     1     -33.390  26.898   4.698  0.00  0.00    +0.175 C 
ATOM     19  C   UNL     1     -33.998  27.620   3.672  0.00  0.00    +0.206 C 
BRANCH  17  20
ATOM     20  O   UNL     1     -35.837  27.911   2.166  0.00  0.00    -0.468 OA
ATOM     21  C   UNL     1     -36.935  27.280   1.509  0.00  0.00    +0.253 C 
ENDBRANCH  17  20
BRANCH  18  22
ATOM     22  O   UNL     1     -32.182  27.283   5.198  0.00  0.00    -0.468 OA
ATOM     23  C   UNL     1     -32.180  27.908   6.479  0.00  0.00    +0.253 C 
ENDBRANCH  18  22
BRANCH  19  24
ATOM     24  O   UNL     1     -33.381  28.724   3.158  0.00  0.00    -0.465 OA
ATOM     25  C   UNL     1     -32.501  28.519   2.056  0.00  0.00    +0.253 C 
ENDBRANCH  19  24
ENDBRANCH   1  14
TORSDOF 5
ENDMDL
MODEL 4
REMARK VINA RESULT:      -5.5      4.183      7.009
REMARK  Name = 5578
REMARK  5 active torsions:
REMARK  status: ('A' for Active; 'I' for Inactive)
REMARK    1  A    between atoms: C_1  and  C_6
REMARK    2  A    between atoms: C_1  and  C_14
REMARK    3  A    between atoms: C_17  and  O_20
REMARK    4  A    between atoms: C_18  and  O_22
REMARK    5  A    between atoms: C_19  and  O_24
REMARK                            x       y       z     vdW  Elec       q    Type
REMARK                         _______ _______ _______ _____ _____    ______ ____
ROOT
ATOM      1  C   UNL     1     -35.781  25.419   5.595  0.00  0.00    +0.058 C 
ENDROOT
BRANCH   1   6
ATOM      2  N   UNL     1     -37.457  22.947   3.279  0.00  0.00    -0.323 NA
ATOM      3  N   UNL     1     -35.324  22.063   3.972  0.00  0.00    -0.170 NA
ATOM      4  N   UNL     1     -38.183  25.066   4.060  0.00  0.00    -0.332 N 
ATOM      5  N   UNL     1     -36.716  20.854   2.520  0.00  0.00    -0.293 N 
ATOM      6  C   UNL     1     -36.058  24.191   4.752  0.00  0.00    +0.047 C 
ATOM      7  C   UNL     1     -37.206  24.039   4.030  0.00  0.00    +0.188 C 
ATOM      8  C   UNL     1     -35.139  23.183   4.701  0.00  0.00    +0.112 C 
ATOM      9  C   UNL     1     -36.488  22.011   3.295  0.00  0.00    +0.143 C 
ATOM     10  H   UNL     1     -39.015  24.968   3.543  0.00  0.00    +0.145 HD
ATOM     11  H   UNL     1     -38.030  25.875   4.599  0.00  0.00    +0.145 HD
ATOM     12  H   UNL     1     -37.550  20.762   2.006  0.00  0.00    +0.155 HD
ATOM     13  H   UNL     1     -36.041  20.137   2.496  0.00  0.00    +0.155 HD
ENDBRANCH   1   6
BRANCH   1  14
ATOM     14  C   UNL     1     -34.797  26.360   4.987  0.00  0.00    -0.011 C 
ATOM     15  C   UNL     1     -35.057  26.934   3.743  0.00  0.00    +0.036 C 
ATOM     16  C   UNL     1     -33.616  26.666   5.663  0.00  0.00    +0.036 C 
ATOM     17  C   UNL     1     -32.694  27.546   5.095  0.00  0.00    +0.175 C 
ATOM     18  C   UNL     1     -34.135  27.814   3.174  0.00  0.00    +0.175 C 
ATOM     19  C   UNL     1     -32.954  28.119   3.850  0.00  0.00    +0.206 C 
BRANCH  17  20
ATOM     20  O   UNL     1     -31.544  27.837   5.765  0.00  0.00    -0.468 OA
ATOM     21  C   UNL     1     -31.606  28.884   6.731  0.00  0.00    +0.253 C 
ENDBRANCH  17  20
BRANCH  18  22
ATOM     22  O   UNL     1     -34.402  28.367   1.958  0.00  0.00    -0.468 OA
ATOM     23  C   UNL     1     -35.619  29.098   1.832  0.00  0.00    +0.253 C 
ENDBRANCH  18  22
BRANCH  19  24
ATOM     24  O   UNL     1     -32.054  28.980   3.293  0.00  0.00    -0.465 OA
ATOM     25  C   UNL     1     -32.287  30.373   3.484  0.00  0.00    +0.253 C 
ENDBRANCH  19  24
ENDBRANCH   1  14
TORSDOF 5
ENDMDL
MODEL 5
REMARK VINA RESULT:      -5.5      4.163      6.689
REMARK  Name = 5578
REMARK  5 active torsions:
REMARK  status: ('A' for Active; 'I' for Inactive)
REMARK    1  A    between atoms: C_1  and  C_6
REMARK    2  A    between atoms: C_1  and  C_14
REMARK    3  A    between atoms: C_17  and  O_20
REMARK    4  A    between atoms: C_18  and  O_22
REMARK    5  A    between atoms: C_19  and  O_24
REMARK                            x       y       z     vdW  Elec       q    Type
REMARK                         _______ _______ _______ _____ _____    ______ ____
ROOT
ATOM      1  C   UNL     1     -35.822  25.362   5.505  0.00  0.00    +0.058 C 
ENDROOT
BRANCH   1   6
ATOM      2  N   UNL     1     -37.637  23.017   3.163  0.00  0.00    -0.323 NA
ATOM      3  N   UNL     1     -35.495  22.068   3.730  0.00  0.00    -0.170 NA
ATOM      4  N   UNL     1     -38.290  25.113   4.059  0.00  0.00    -0.332 N 
ATOM      5  N   UNL     1     -36.968  20.944   2.290  0.00  0.00    -0.293 N 
ATOM      6  C   UNL     1     -36.156  24.174   4.626  0.00  0.00    +0.047 C 
ATOM      7  C   UNL     1     -37.335  24.072   3.946  0.00  0.00    +0.188 C 
ATOM      8  C   UNL     1     -35.259  23.153   4.495  0.00  0.00    +0.112 C 
ATOM      9  C   UNL     1     -36.686  22.064   3.101  0.00  0.00    +0.143 C 
ATOM     10  H   UNL     1     -39.144  25.052   3.573  0.00  0.00    +0.145 HD
ATOM     11  H   UNL     1     -38.100  25.896   4.623  0.00  0.00    +0.145 HD
ATOM     12  H   UNL     1     -37.824  20.888   1.807  0.00  0.00    +0.155 HD
ATOM     13  H   UNL     1     -36.309  20.217   2.208  0.00  0.00    +0.155 HD
ENDBRANCH   1   6
BRANCH   1  14
ATOM     14  C   UNL     1     -34.853  26.315   4.891  0.00  0.00    -0.011 C 
ATOM     15  C   UNL     1     -33.662  26.619   5.550  0.00  0.00    +0.036 C 
ATOM     16  C   UNL     1     -35.138  26.902   3.659  0.00  0.00    +0.036 C 
ATOM     17  C   UNL     1     -34.233  27.794   3.085  0.00  0.00    +0.175 C 
ATOM     18  C   UNL     1     -32.756  27.512   4.975  0.00  0.00    +0.175 C 
ATOM     19  C   UNL     1     -33.042  28.099   3.743  0.00  0.00    +0.206 C 
BRANCH  17  20
ATOM     20  O   UNL     1     -34.523  28.361   1.880  0.00  0.00    -0.468 OA
ATOM     21  C   UNL     1     -35.695  29.172   1.812  0.00  0.00    +0.253 C 
ENDBRANCH  17  20
BRANCH  18  22
ATOM     22  O   UNL     1     -31.596  27.799   5.629  0.00  0.00    -0.468 OA
ATOM     23  C   UNL     1     -31.650  28.814   6.629  0.00  0.00    +0.253 C 
ENDBRANCH  18  22
BRANCH  19  24
ATOM     24  O   UNL     1     -32.155  28.971   3.182  0.00  0.00    -0.465 OA
ATOM     25  C   UNL     1     -32.394  30.360   3.392  0.00  0.00    +0.253 C 
ENDBRANCH  19  24
ENDBRANCH   1  14
TORSDOF 5
ENDMDL
MODEL 6
REMARK VINA RESULT:      -5.4      4.103      5.993
REMARK  Name = 5578
REMARK  5 active torsions:
REMARK  status: ('A' for Active; 'I' for Inactive)
REMARK    1  A    between atoms: C_1  and  C_6
REMARK    2  A    between atoms: C_1  and  C_14
REMARK    3  A    between atoms: C_17  and  O_20
REMARK    4  A    between atoms: C_18  and  O_22
REMARK    5  A    between atoms: C_19  and  O_24
REMARK                            x       y       z     vdW  Elec       q    Type
REMARK                         _______ _______ _______ _____ _____    ______ ____
ROOT
ATOM      1  C   UNL     1     -36.325  22.562   1.305  0.00  0.00    +0.058 C 
ENDROOT
BRANCH   1   6
ATOM      2  N   UNL     1     -34.416  19.302   1.392  0.00  0.00    -0.323 NA
ATOM      3  N   UNL     1     -33.064  20.983   0.317  0.00  0.00    -0.170 NA
ATOM      4  N   UNL     1     -36.581  19.843   2.194  0.00  0.00    -0.332 N 
ATOM      5  N   UNL     1     -32.270  18.792   0.592  0.00  0.00    -0.293 N 
ATOM      6  C   UNL     1     -35.240  21.520   1.123  0.00  0.00    +0.047 C 
ATOM      7  C   UNL     1     -35.379  20.232   1.552  0.00  0.00    +0.188 C 
ATOM      8  C   UNL     1     -34.069  21.862   0.509  0.00  0.00    +0.112 C 
ATOM      9  C   UNL     1     -33.300  19.739   0.776  0.00  0.00    +0.143 C 
ATOM     10  H   UNL     1     -36.694  18.917   2.507  0.00  0.00    +0.145 HD
ATOM     11  H   UNL     1     -37.303  20.499   2.326  0.00  0.00    +0.145 HD
ATOM     12  H   UNL     1     -32.388  17.868   0.909  0.00  0.00    +0.155 HD
ATOM     13  H   UNL     1     -31.432  19.056   0.148  0.00  0.00    +0.155 HD
ENDBRANCH   1   6
BRANCH   1  14
ATOM     14  C   UNL     1     -36.071  23.511   2.427  0.00  0.00    -0.011 C 
ATOM     15  C   UNL     1     -36.062  23.048   3.742  0.00  0.00    +0.036 C 
ATOM     16  C   UNL     1     -35.843  24.861   2.161  0.00  0.00    +0.036 C 
ATOM     17  C   UNL     1     -35.606  25.749   3.210  0.00  0.00    +0.175 C 
ATOM     18  C   UNL     1     -35.824  23.936   4.792  0.00  0.00    +0.175 C 
ATOM     19  C   UNL     1     -35.597  25.286   4.525  0.00  0.00    +0.206 C 
BRANCH  17  20
ATOM     20  O   UNL     1     -35.385  27.065   2.936  0.00  0.00    -0.468 OA
ATOM     21  C   UNL     1     -36.084  27.622   1.825  0.00  0.00    +0.253 C 
ENDBRANCH  17  20
BRANCH  18  22
ATOM     22  O   UNL     1     -35.818  23.470   6.072  0.00  0.00    -0.468 OA
ATOM     23  C   UNL     1     -35.386  22.126   6.271  0.00  0.00    +0.253 C 
ENDBRANCH  18  22
BRANCH  19  24
ATOM     24  O   UNL     1     -35.365  26.153   5.553  0.00  0.00    -0.465 OA
ATOM     25  C   UNL     1     -34.019  26.274   6.006  0.00  0.00    +0.253 C 
ENDBRANCH  19  24
ENDBRANCH   1  14
TORSDOF 5
ENDMDL
MODEL 7
REMARK VINA RESULT:      -5.4      4.099      6.290
REMARK  Name = 5578
REMARK  5 active torsions:
REMARK  status: ('A' for Active; 'I' for Inactive)
REMARK    1  A    between atoms: C_1  and  C_6
REMARK    2  A    between atoms: C_1  and  C_14
REMARK    3  A    between atoms: C_17  and  O_20
REMARK    4  A    between atoms: C_18  and  O_22
REMARK    5  A    between atoms: C_19  and  O_24
REMARK                            x       y       z     vdW  Elec       q    Type
REMARK                         _______ _______ _______ _____ _____    ______ ____
ROOT
ATOM      1  C   UNL     1     -36.373  22.563   1.339  0.00  0.00    +0.058 C 
ENDROOT
BRANCH   1   6
ATOM      2  N   UNL     1     -34.447  19.312   1.384  0.00  0.00    -0.323 NA
ATOM      3  N   UNL     1     -33.108  21.011   0.321  0.00  0.00    -0.170 NA
ATOM      4  N   UNL     1     -36.612  19.834   2.200  0.00  0.00    -0.332 N 
ATOM      5  N   UNL     1     -32.302  18.821   0.570  0.00  0.00    -0.293 N 
ATOM      6  C   UNL     1     -35.283  21.528   1.141  0.00  0.00    +0.047 C 
ATOM      7  C   UNL     1     -35.414  20.236   1.558  0.00  0.00    +0.188 C 
ATOM      8  C   UNL     1     -34.117  21.882   0.527  0.00  0.00    +0.112 C 
ATOM      9  C   UNL     1     -33.336  19.761   0.768  0.00  0.00    +0.143 C 
ATOM     10  H   UNL     1     -36.718  18.903   2.505  0.00  0.00    +0.145 HD
ATOM     11  H   UNL     1     -37.336  20.484   2.342  0.00  0.00    +0.145 HD
ATOM     12  H   UNL     1     -32.414  17.893   0.877  0.00  0.00    +0.155 HD
ATOM     13  H   UNL     1     -31.467  19.094   0.125  0.00  0.00    +0.155 HD
ENDBRANCH   1   6
BRANCH   1  14
ATOM     14  C   UNL     1     -36.108  23.515   2.456  0.00  0.00    -0.011 C 
ATOM     15  C   UNL     1     -35.906  24.868   2.185  0.00  0.00    +0.036 C 
ATOM     16  C   UNL     1     -36.063  23.052   3.771  0.00  0.00    +0.036 C 
ATOM     17  C   UNL     1     -35.814  23.942   4.815  0.00  0.00    +0.175 C 
ATOM     18  C   UNL     1     -35.658  25.758   3.230  0.00  0.00    +0.175 C 
ATOM     19  C   UNL     1     -35.612  25.295   4.545  0.00  0.00    +0.206 C 
BRANCH  17  20
ATOM     20  O   UNL     1     -35.773  23.477   6.095  0.00  0.00    -0.468 OA
ATOM     21  C   UNL     1     -35.401  22.112   6.277  0.00  0.00    +0.253 C 
ENDBRANCH  17  20
BRANCH  18  22
ATOM     22  O   UNL     1     -35.462  27.078   2.952  0.00  0.00    -0.468 OA
ATOM     23  C   UNL     1     -36.120  27.601   1.800  0.00  0.00    +0.253 C 
ENDBRANCH  18  22
BRANCH  19  24
ATOM     24  O   UNL     1     -35.369  26.167   5.566  0.00  0.00    -0.465 OA
ATOM     25  C   UNL     1     -34.017  26.301   5.995  0.00  0.00    +0.253 C 
ENDBRANCH  19  24
ENDBRANCH   1  14
TORSDOF 5
ENDMDL
MODEL 8
REMARK VINA RESULT:      -5.4      4.103      6.408
REMARK  Name = 5578
REMARK  5 active torsions:
REMARK  status: ('A' for Active; 'I' for Inactive)
REMARK    1  A    between atoms: C_1  and  C_6
REMARK    2  A    between atoms: C_1  and  C_14
REMARK    3  A    between atoms: C_17  and  O_20
REMARK    4  A    between atoms: C_18  and  O_22
REMARK    5  A    between atoms: C_19  and  O_24
REMARK                            x       y       z     vdW  Elec       q    Type
REMARK                         _______ _______ _______ _____ _____    ______ ____
ROOT
ATOM      1  C   UNL     1     -34.897  21.616   0.688  0.00  0.00    +0.058 C 
ENDROOT
BRANCH   1   6
ATOM      2  N   UNL     1     -31.630  19.765   0.262  0.00  0.00    -0.323 NA
ATOM      3  N   UNL     1     -33.136  18.421   1.579  0.00  0.00    -0.170 NA
ATOM      4  N   UNL     1     -32.314  21.892  -0.536  0.00  0.00    -0.332 N 
ATOM      5  N   UNL     1     -30.978  17.658   1.062  0.00  0.00    -0.293 N 
ATOM      6  C   UNL     1     -33.817  20.558   0.775  0.00  0.00    +0.047 C 
ATOM      7  C   UNL     1     -32.595  20.705   0.186  0.00  0.00    +0.188 C 
ATOM      8  C   UNL     1     -34.054  19.403   1.463  0.00  0.00    +0.112 C 
ATOM      9  C   UNL     1     -31.964  18.663   0.962  0.00  0.00    +0.143 C 
ATOM     10  H   UNL     1     -31.435  22.010  -0.964  0.00  0.00    +0.145 HD
ATOM     11  H   UNL     1     -32.997  22.596  -0.609  0.00  0.00    +0.145 HD
ATOM     12  H   UNL     1     -30.102  17.782   0.631  0.00  0.00    +0.155 HD
ATOM     13  H   UNL     1     -31.168  16.831   1.562  0.00  0.00    +0.155 HD
ENDBRANCH   1   6
BRANCH   1  14
ATOM     14  C   UNL     1     -34.923  22.552   1.849  0.00  0.00    -0.011 C 
ATOM     15  C   UNL     1     -35.507  22.156   3.051  0.00  0.00    +0.036 C 
ATOM     16  C   UNL     1     -34.362  23.824   1.732  0.00  0.00    +0.036 C 
ATOM     17  C   UNL     1     -34.386  24.700   2.817  0.00  0.00    +0.175 C 
ATOM     18  C   UNL     1     -35.531  23.032   4.137  0.00  0.00    +0.175 C 
ATOM     19  C   UNL     1     -34.971  24.303   4.019  0.00  0.00    +0.206 C 
BRANCH  17  20
ATOM     20  O   UNL     1     -33.835  25.939   2.690  0.00  0.00    -0.468 OA
ATOM     21  C   UNL     1     -34.536  26.879   1.877  0.00  0.00    +0.253 C 
ENDBRANCH  17  20
BRANCH  18  22
ATOM     22  O   UNL     1     -36.105  22.631   5.306  0.00  0.00    -0.468 OA
ATOM     23  C   UNL     1     -35.304  21.845   6.185  0.00  0.00    +0.253 C 
ENDBRANCH  18  22
BRANCH  19  24
ATOM     24  O   UNL     1     -34.995  25.159   5.082  0.00  0.00    -0.465 OA
ATOM     25  C   UNL     1     -36.142  25.994   5.215  0.00  0.00    +0.253 C 
ENDBRANCH  19  24
ENDBRANCH   1  14
TORSDOF 5
ENDMDL
MODEL 9
REMARK VINA RESULT:      -5.4      1.969      2.920
REMARK  Name = 5578
REMARK  5 active torsions:
REMARK  status: ('A' for Active; 'I' for Inactive)
REMARK    1  A    between atoms: C_1  and  C_6
REMARK    2  A    between atoms: C_1  and  C_14
REMARK    3  A    between atoms: C_17  and  O_20
REMARK    4  A    between atoms: C_18  and  O_22
REMARK    5  A    between atoms: C_19  and  O_24
REMARK                            x       y       z     vdW  Elec       q    Type
REMARK                         _______ _______ _______ _____ _____    ______ ____
ROOT
ATOM      1  C   UNL     1     -35.040  21.236   3.748  0.00  0.00    +0.058 C 
ENDROOT
BRANCH   1   6
ATOM      2  N   UNL     1     -36.178  24.282   5.673  0.00  0.00    -0.323 NA
ATOM      3  N   UNL     1     -35.543  24.946   3.445  0.00  0.00    -0.170 NA
ATOM      4  N   UNL     1     -36.028  22.008   6.331  0.00  0.00    -0.332 N 
ATOM      5  N   UNL     1     -36.318  26.525   4.998  0.00  0.00    -0.293 N 
ATOM      6  C   UNL     1     -35.394  22.664   4.112  0.00  0.00    +0.047 C 
ATOM      7  C   UNL     1     -35.863  23.013   5.345  0.00  0.00    +0.188 C 
ATOM      8  C   UNL     1     -35.246  23.656   3.185  0.00  0.00    +0.112 C 
ATOM      9  C   UNL     1     -35.998  25.186   4.690  0.00  0.00    +0.143 C 
ATOM     10  H   UNL     1     -36.365  22.248   7.225  0.00  0.00    +0.145 HD
ATOM     11  H   UNL     1     -35.807  21.073   6.122  0.00  0.00    +0.145 HD
ATOM     12  H   UNL     1     -36.656  26.757   5.893  0.00  0.00    +0.155 HD
ATOM     13  H   UNL     1     -36.206  27.227   4.317  0.00  0.00    +0.155 HD
ENDBRANCH   1   6
BRANCH   1  14
ATOM     14  C   UNL     1     -35.692  20.752   2.497  0.00  0.00    -0.011 C 
ATOM     15  C   UNL     1     -34.989  19.930   1.617  0.00  0.00    +0.036 C 
ATOM     16  C   UNL     1     -37.006  21.121   2.207  0.00  0.00    +0.036 C 
ATOM     17  C   UNL     1     -37.616  20.669   1.037  0.00  0.00    +0.175 C 
ATOM     18  C   UNL     1     -35.600  19.477   0.447  0.00  0.00    +0.175 C 
ATOM     19  C   UNL     1     -36.913  19.847   0.158  0.00  0.00    +0.206 C 
BRANCH  17  20
ATOM     20  O   UNL     1     -38.900  21.037   0.766  0.00  0.00    -0.468 OA
ATOM     21  C   UNL     1     -39.657  21.588   1.843  0.00  0.00    +0.253 C 
ENDBRANCH  17  20
BRANCH  18  22
ATOM     22  O   UNL     1     -34.901  18.674  -0.403  0.00  0.00    -0.468 OA
ATOM     23  C   UNL     1     -33.936  17.800   0.177  0.00  0.00    +0.253 C 
ENDBRANCH  18  22
BRANCH  19  24
ATOM     24  O   UNL     1     -37.509  19.404  -0.987  0.00  0.00    -0.465 OA
ATOM     25  C   UNL     1     -38.227  18.175  -0.908  0.00  0.00    +0.253 C 
ENDBRANCH  19  24
ENDBRANCH   1  14
TORSDOF 5
ENDMDL
