MODEL 1
REMARK VINA RESULT:      -6.4      0.000      0.000
REMARK  Name = 5284250
REMARK  10 active torsions:
REMARK  status: ('A' for Active; 'I' for Inactive)
REMARK    1  A    between atoms: C_6  and  C_26
REMARK    2  A    between atoms: C_7  and  O_20
REMARK    3  A    between atoms: C_11  and  O_22
REMARK    4  A    between atoms: C_19  and  O_24
REMARK    5  A    between atoms: C_26  and  C_28
REMARK    6  A    between atoms: C_28  and  C_29
REMARK    7  A    between atoms: C_29  and  O_30
REMARK    8  A    between atoms: C_29  and  C_32
REMARK    9  A    between atoms: C_32  and  C_33
REMARK   10  A    between atoms: C_33  and  O_36
REMARK                            x       y       z     vdW  Elec       q    Type
REMARK                         _______ _______ _______ _____ _____    ______ ____
ROOT
ATOM      1  C   UNL     1     -36.203  22.738   2.718  0.00  0.00    +0.025 C 
ATOM      2  C   UNL     1     -37.704  22.506   2.418  0.00  0.00    +0.005 C 
ATOM      3  C   UNL     1     -37.952  21.836   1.057  0.00  0.00    +0.027 C 
ATOM      4  C   UNL     1     -37.226  20.449   1.049  0.00  0.00    +0.005 C 
ATOM      5  C   UNL     1     -37.457  19.660  -0.299  0.00  0.00    +0.000 C 
ATOM      6  C   UNL     1     -36.342  23.469   4.079  0.00  0.00    +0.002 C 
ATOM      7  C   UNL     1     -35.481  21.374   2.751  0.00  0.00    +0.110 C 
ATOM      8  C   UNL     1     -35.727  20.574   1.453  0.00  0.00    +0.029 C 
ATOM      9  C   UNL     1     -38.990  19.565  -0.565  0.00  0.00    +0.005 C 
ATOM     10  C   UNL     1     -38.339  23.870   2.687  0.00  0.00    +0.000 C 
ATOM     11  C   UNL     1     -39.453  21.691   0.746  0.00  0.00    +0.110 C 
ATOM     12  C   UNL     1     -37.519  24.447   3.853  0.00  0.00    +0.000 C 
ATOM     13  C   UNL     1     -39.689  20.934  -0.561  0.00  0.00    +0.029 C 
ATOM     14  C   UNL     1     -36.887  18.211  -0.166  0.00  0.00    +0.002 C 
ATOM     15  C   UNL     1     -35.499  23.647   1.674  0.00  0.00    +0.002 C 
ATOM     16  C   UNL     1     -39.337  18.787  -1.848  0.00  0.00    +0.029 C 
ATOM     17  C   UNL     1     -36.733  20.371  -1.474  0.00  0.00    +0.000 C 
ATOM     18  C   UNL     1     -37.728  17.115  -0.832  0.00  0.00    +0.029 C 
ATOM     19  C   UNL     1     -38.423  17.584  -2.100  0.00  0.00    +0.111 C 
ENDROOT
BRANCH   7  20
ATOM     20  O   UNL     1     -35.870  20.584   3.873  0.00  0.00    -0.384 OA
ATOM     21  H   UNL     1     -36.195  19.724   3.566  0.00  0.00    +0.210 HD
ENDBRANCH   7  20
BRANCH  11  22
ATOM     22  O   UNL     1     -40.109  21.006   1.812  0.00  0.00    -0.384 OA
ATOM     23  H   UNL     1     -41.038  21.282   1.851  0.00  0.00    +0.210 HD
ENDBRANCH  11  22
BRANCH  19  24
ATOM     24  O   UNL     1     -39.186  16.504  -2.632  0.00  0.00    -0.384 OA
ATOM     25  H   UNL     1     -39.203  15.775  -1.993  0.00  0.00    +0.210 HD
ENDBRANCH  19  24
BRANCH   6  26
ATOM     26  C   UNL     1     -35.091  24.157   4.608  0.00  0.00    +0.002 C 
ATOM     27  C   UNL     1     -34.394  23.258   5.636  0.00  0.00    +0.000 C 
BRANCH  26  28
ATOM     28  C   UNL     1     -35.397  25.531   5.248  0.00  0.00    +0.029 C 
BRANCH  28  29
ATOM     29  C   UNL     1     -34.463  26.665   4.802  0.00  0.00    +0.113 C 
BRANCH  29  30
ATOM     30  O   UNL     1     -33.189  26.500   5.432  0.00  0.00    -0.384 OA
ATOM     31  H   UNL     1     -33.274  26.663   6.385  0.00  0.00    +0.210 HD
ENDBRANCH  29  30
BRANCH  29  32
ATOM     32  C   UNL     1     -34.213  26.727   3.283  0.00  0.00    +0.056 C 
BRANCH  32  33
ATOM     33  C   UNL     1     -34.970  27.802   2.477  0.00  0.00    +0.091 C 
ATOM     34  C   UNL     1     -34.073  28.311   1.342  0.00  0.00    +0.029 C 
ATOM     35  C   UNL     1     -36.292  27.289   1.904  0.00  0.00    +0.029 C 
BRANCH  33  36
ATOM     36  O   UNL     1     -35.241  28.915   3.331  0.00  0.00    -0.387 OA
ATOM     37  H   UNL     1     -35.156  28.641   4.257  0.00  0.00    +0.210 HD
ENDBRANCH  33  36
ENDBRANCH  32  33
ENDBRANCH  29  32
ENDBRANCH  28  29
ENDBRANCH  26  28
ENDBRANCH   6  26
TORSDOF 10
ENDMDL
MODEL 2
REMARK VINA RESULT:      -6.3      3.617     10.667
REMARK  Name = 5284250
REMARK  10 active torsions:
REMARK  status: ('A' for Active; 'I' for Inactive)
REMARK    1  A    between atoms: C_6  and  C_26
REMARK    2  A    between atoms: C_7  and  O_20
REMARK    3  A    between atoms: C_11  and  O_22
REMARK    4  A    between atoms: C_19  and  O_24
REMARK    5  A    between atoms: C_26  and  C_28
REMARK    6  A    between atoms: C_28  and  C_29
REMARK    7  A    between atoms: C_29  and  O_30
REMARK    8  A    between atoms: C_29  and  C_32
REMARK    9  A    between atoms: C_32  and  C_33
REMARK   10  A    between atoms: C_33  and  O_36
REMARK                            x       y       z     vdW  Elec       q    Type
REMARK                         _______ _______ _______ _____ _____    ______ ____
ROOT
ATOM      1  C   UNL     1     -33.963  27.049   3.784  0.00  0.00    +0.025 C 
ATOM      2  C   UNL     1     -33.349  27.534   5.120  0.00  0.00    +0.005 C 
ATOM      3  C   UNL     1     -31.964  28.180   4.949  0.00  0.00    +0.027 C 
ATOM      4  C   UNL     1     -32.107  29.412   3.994  0.00  0.00    +0.005 C 
ATOM      5  C   UNL     1     -30.739  30.173   3.788  0.00  0.00    +0.000 C 
ATOM      6  C   UNL     1     -35.265  26.413   4.337  0.00  0.00    +0.002 C 
ATOM      7  C   UNL     1     -34.145  28.261   2.845  0.00  0.00    +0.110 C 
ATOM      8  C   UNL     1     -32.823  29.037   2.662  0.00  0.00    +0.029 C 
ATOM      9  C   UNL     1     -30.152  30.530   5.187  0.00  0.00    +0.005 C 
ATOM     10  C   UNL     1     -33.480  26.320   6.038  0.00  0.00    +0.000 C 
ATOM     11  C   UNL     1     -31.340  28.580   6.299  0.00  0.00    +0.110 C 
ATOM     12  C   UNL     1     -34.796  25.654   5.600  0.00  0.00    +0.000 C 
ATOM     13  C   UNL     1     -30.010  29.312   6.112  0.00  0.00    +0.029 C 
ATOM     14  C   UNL     1     -30.986  31.500   3.001  0.00  0.00    +0.002 C 
ATOM     15  C   UNL     1     -33.095  25.985   3.057  0.00  0.00    +0.002 C 
ATOM     16  C   UNL     1     -28.822  31.304   5.108  0.00  0.00    +0.029 C 
ATOM     17  C   UNL     1     -29.748  29.295   2.979  0.00  0.00    +0.000 C 
ATOM     18  C   UNL     1     -30.153  32.700   3.466  0.00  0.00    +0.029 C 
ATOM     19  C   UNL     1     -28.767  32.311   3.955  0.00  0.00    +0.111 C 
ENDROOT
BRANCH   7  20
ATOM     20  O   UNL     1     -35.156  29.155   3.308  0.00  0.00    -0.384 OA
ATOM     21  H   UNL     1     -35.962  28.655   3.510  0.00  0.00    +0.210 HD
ENDBRANCH   7  20
BRANCH  11  22
ATOM     22  O   UNL     1     -32.239  29.416   7.025  0.00  0.00    -0.384 OA
ATOM     23  H   UNL     1     -31.744  29.937   7.675  0.00  0.00    +0.210 HD
ENDBRANCH  11  22
BRANCH  19  24
ATOM     24  O   UNL     1     -28.082  33.487   4.377  0.00  0.00    -0.384 OA
ATOM     25  H   UNL     1     -28.725  34.192   4.547  0.00  0.00    +0.210 HD
ENDBRANCH  19  24
BRANCH   6  26
ATOM     26  C   UNL     1     -36.051  25.534   3.374  0.00  0.00    +0.002 C 
ATOM     27  C   UNL     1     -37.073  26.381   2.606  0.00  0.00    +0.000 C 
BRANCH  26  28
ATOM     28  C   UNL     1     -36.778  24.373   4.091  0.00  0.00    +0.029 C 
BRANCH  28  29
ATOM     29  C   UNL     1     -36.287  22.972   3.698  0.00  0.00    +0.113 C 
BRANCH  29  30
ATOM     30  O   UNL     1     -36.250  22.142   4.862  0.00  0.00    -0.384 OA
ATOM     31  H   UNL     1     -35.370  21.745   4.950  0.00  0.00    +0.210 HD
ENDBRANCH  29  30
BRANCH  29  32
ATOM     32  C   UNL     1     -37.168  22.254   2.657  0.00  0.00    +0.056 C 
BRANCH  32  33
ATOM     33  C   UNL     1     -36.563  21.041   1.923  0.00  0.00    +0.091 C 
ATOM     34  C   UNL     1     -37.331  20.803   0.617  0.00  0.00    +0.029 C 
ATOM     35  C   UNL     1     -35.072  21.214   1.624  0.00  0.00    +0.029 C 
BRANCH  33  36
ATOM     36  O   UNL     1     -36.737  19.877   2.732  0.00  0.00    -0.387 OA
ATOM     37  H   UNL     1     -37.276  19.228   2.253  0.00  0.00    +0.210 HD
ENDBRANCH  33  36
ENDBRANCH  32  33
ENDBRANCH  29  32
ENDBRANCH  28  29
ENDBRANCH  26  28
ENDBRANCH   6  26
TORSDOF 10
ENDMDL
MODEL 3
REMARK VINA RESULT:      -6.0      3.376      4.937
REMARK  Name = 5284250
REMARK  10 active torsions:
REMARK  status: ('A' for Active; 'I' for Inactive)
REMARK    1  A    between atoms: C_6  and  C_26
REMARK    2  A    between atoms: C_7  and  O_20
REMARK    3  A    between atoms: C_11  and  O_22
REMARK    4  A    between atoms: C_19  and  O_24
REMARK    5  A    between atoms: C_26  and  C_28
REMARK    6  A    between atoms: C_28  and  C_29
REMARK    7  A    between atoms: C_29  and  O_30
REMARK    8  A    between atoms: C_29  and  C_32
REMARK    9  A    between atoms: C_32  and  C_33
REMARK   10  A    between atoms: C_33  and  O_36
REMARK                            x       y       z     vdW  Elec       q    Type
REMARK                         _______ _______ _______ _____ _____    ______ ____
ROOT
ATOM      1  C   UNL     1     -36.126  21.758   0.990  0.00  0.00    +0.025 C 
ATOM      2  C   UNL     1     -35.932  21.288  -0.472  0.00  0.00    +0.005 C 
ATOM      3  C   UNL     1     -34.528  20.727  -0.746  0.00  0.00    +0.027 C 
ATOM      4  C   UNL     1     -34.289  19.505   0.202  0.00  0.00    +0.005 C 
ATOM      5  C   UNL     1     -32.882  18.829  -0.033  0.00  0.00    +0.000 C 
ATOM      6  C   UNL     1     -37.572  22.308   0.875  0.00  0.00    +0.002 C 
ATOM      7  C   UNL     1     -35.930  20.553   1.936  0.00  0.00    +0.110 C 
ATOM      8  C   UNL     1     -34.573  19.859   1.693  0.00  0.00    +0.029 C 
ATOM      9  C   UNL     1     -32.742  18.484  -1.547  0.00  0.00    +0.005 C 
ATOM     10  C   UNL     1     -36.418  22.477  -1.299  0.00  0.00    +0.000 C 
ATOM     11  C   UNL     1     -34.334  20.343  -2.225  0.00  0.00    +0.110 C 
ATOM     12  C   UNL     1     -37.569  23.072  -0.469  0.00  0.00    +0.000 C 
ATOM     13  C   UNL     1     -32.971  19.694  -2.466  0.00  0.00    +0.029 C 
ATOM     14  C   UNL     1     -32.789  17.503   0.788  0.00  0.00    +0.002 C 
ATOM     15  C   UNL     1     -35.141  22.883   1.411  0.00  0.00    +0.002 C 
ATOM     16  C   UNL     1     -31.409  17.791  -1.891  0.00  0.00    +0.029 C 
ATOM     17  C   UNL     1     -31.742  19.777   0.427  0.00  0.00    +0.000 C 
ATOM     18  C   UNL     1     -32.072  16.346   0.081  0.00  0.00    +0.029 C 
ATOM     19  C   UNL     1     -30.935  16.808  -0.816  0.00  0.00    +0.111 C 
ENDROOT
BRANCH   7  20
ATOM     20  O   UNL     1     -36.980  19.594   1.811  0.00  0.00    -0.384 OA
ATOM     21  H   UNL     1     -37.447  19.514   2.656  0.00  0.00    +0.210 HD
ENDBRANCH   7  20
BRANCH  11  22
ATOM     22  O   UNL     1     -35.363  19.444  -2.635  0.00  0.00    -0.384 OA
ATOM     23  H   UNL     1     -36.017  19.354  -1.924  0.00  0.00    +0.210 HD
ENDBRANCH  11  22
BRANCH  19  24
ATOM     24  O   UNL     1     -30.346  15.667  -1.436  0.00  0.00    -0.384 OA
ATOM     25  H   UNL     1     -30.982  15.269  -2.049  0.00  0.00    +0.210 HD
ENDBRANCH  19  24
BRANCH   6  26
ATOM     26  C   UNL     1     -38.068  23.155   2.039  0.00  0.00    +0.002 C 
ATOM     27  C   UNL     1     -39.437  22.649   2.509  0.00  0.00    +0.000 C 
BRANCH  26  28
ATOM     28  C   UNL     1     -38.169  24.655   1.679  0.00  0.00    +0.029 C 
BRANCH  28  29
ATOM     29  C   UNL     1     -37.624  25.608   2.753  0.00  0.00    +0.113 C 
BRANCH  29  30
ATOM     30  O   UNL     1     -38.713  26.331   3.336  0.00  0.00    -0.384 OA
ATOM     31  H   UNL     1     -38.732  26.172   4.293  0.00  0.00    +0.210 HD
ENDBRANCH  29  30
BRANCH  29  32
ATOM     32  C   UNL     1     -36.875  24.910   3.905  0.00  0.00    +0.056 C 
BRANCH  32  33
ATOM     33  C   UNL     1     -35.843  25.741   4.693  0.00  0.00    +0.091 C 
ATOM     34  C   UNL     1     -34.987  24.804   5.554  0.00  0.00    +0.029 C 
ATOM     35  C   UNL     1     -34.942  26.580   3.786  0.00  0.00    +0.029 C 
BRANCH  33  36
ATOM     36  O   UNL     1     -36.537  26.615   5.585  0.00  0.00    -0.387 OA
ATOM     37  H   UNL     1     -35.905  27.018   6.201  0.00  0.00    +0.210 HD
ENDBRANCH  33  36
ENDBRANCH  32  33
ENDBRANCH  29  32
ENDBRANCH  28  29
ENDBRANCH  26  28
ENDBRANCH   6  26
TORSDOF 10
ENDMDL
MODEL 4
REMARK VINA RESULT:      -5.9      3.570      5.289
REMARK  Name = 5284250
REMARK  10 active torsions:
REMARK  status: ('A' for Active; 'I' for Inactive)
REMARK    1  A    between atoms: C_6  and  C_26
REMARK    2  A    between atoms: C_7  and  O_20
REMARK    3  A    between atoms: C_11  and  O_22
REMARK    4  A    between atoms: C_19  and  O_24
REMARK    5  A    between atoms: C_26  and  C_28
REMARK    6  A    between atoms: C_28  and  C_29
REMARK    7  A    between atoms: C_29  and  O_30
REMARK    8  A    between atoms: C_29  and  C_32
REMARK    9  A    between atoms: C_32  and  C_33
REMARK   10  A    between atoms: C_33  and  O_36
REMARK                            x       y       z     vdW  Elec       q    Type
REMARK                         _______ _______ _______ _____ _____    ______ ____
ROOT
ATOM      1  C   UNL     1     -35.734  22.076   1.028  0.00  0.00    +0.025 C 
ATOM      2  C   UNL     1     -34.475  22.236   0.141  0.00  0.00    +0.005 C 
ATOM      3  C   UNL     1     -33.434  21.127   0.364  0.00  0.00    +0.027 C 
ATOM      4  C   UNL     1     -34.100  19.750   0.035  0.00  0.00    +0.005 C 
ATOM      5  C   UNL     1     -33.093  18.544   0.194  0.00  0.00    +0.000 C 
ATOM      6  C   UNL     1     -36.491  23.362   0.601  0.00  0.00    +0.002 C 
ATOM      7  C   UNL     1     -36.423  20.738   0.686  0.00  0.00    +0.110 C 
ATOM      8  C   UNL     1     -35.441  19.552   0.802  0.00  0.00    +0.029 C 
ATOM      9  C   UNL     1     -31.820  18.842  -0.654  0.00  0.00    +0.005 C 
ATOM     10  C   UNL     1     -34.057  23.688   0.369  0.00  0.00    +0.000 C 
ATOM     11  C   UNL     1     -32.158  21.353  -0.468  0.00  0.00    +0.110 C 
ATOM     12  C   UNL     1     -35.385  24.441   0.553  0.00  0.00    +0.000 C 
ATOM     13  C   UNL     1     -31.172  20.194  -0.316  0.00  0.00    +0.029 C 
ATOM     14  C   UNL     1     -33.751  17.233  -0.345  0.00  0.00    +0.002 C 
ATOM     15  C   UNL     1     -35.423  22.100   2.550  0.00  0.00    +0.002 C 
ATOM     16  C   UNL     1     -30.773  17.714  -0.596  0.00  0.00    +0.029 C 
ATOM     17  C   UNL     1     -32.728  18.337   1.688  0.00  0.00    +0.000 C 
ATOM     18  C   UNL     1     -32.808  16.296  -1.110  0.00  0.00    +0.029 C 
ATOM     19  C   UNL     1     -31.387  16.310  -0.572  0.00  0.00    +0.111 C 
ENDROOT
BRANCH   7  20
ATOM     20  O   UNL     1     -37.001  20.746  -0.618  0.00  0.00    -0.384 OA
ATOM     21  H   UNL     1     -36.339  21.036  -1.264  0.00  0.00    +0.210 HD
ENDBRANCH   7  20
BRANCH  11  22
ATOM     22  O   UNL     1     -32.495  21.508  -1.846  0.00  0.00    -0.384 OA
ATOM     23  H   UNL     1     -31.910  22.167  -2.250  0.00  0.00    +0.210 HD
ENDBRANCH  11  22
BRANCH  19  24
ATOM     24  O   UNL     1     -30.590  15.425  -1.354  0.00  0.00    -0.384 OA
ATOM     25  H   UNL     1     -30.559  15.742  -2.270  0.00  0.00    +0.210 HD
ENDBRANCH  19  24
BRANCH   6  26
ATOM     26  C   UNL     1     -37.678  23.766   1.464  0.00  0.00    +0.002 C 
ATOM     27  C   UNL     1     -38.950  23.069   0.965  0.00  0.00    +0.000 C 
BRANCH  26  28
ATOM     28  C   UNL     1     -37.903  25.296   1.485  0.00  0.00    +0.029 C 
BRANCH  28  29
ATOM     29  C   UNL     1     -37.810  25.936   2.877  0.00  0.00    +0.113 C 
BRANCH  29  30
ATOM     30  O   UNL     1     -39.112  26.364   3.286  0.00  0.00    -0.384 OA
ATOM     31  H   UNL     1     -39.714  25.603   3.304  0.00  0.00    +0.210 HD
ENDBRANCH  29  30
BRANCH  29  32
ATOM     32  C   UNL     1     -37.275  24.998   3.977  0.00  0.00    +0.056 C 
BRANCH  32  33
ATOM     33  C   UNL     1     -36.015  25.444   4.747  0.00  0.00    +0.091 C 
ATOM     34  C   UNL     1     -35.486  24.269   5.578  0.00  0.00    +0.029 C 
ATOM     35  C   UNL     1     -34.913  25.965   3.823  0.00  0.00    +0.029 C 
BRANCH  33  36
ATOM     36  O   UNL     1     -36.375  26.479   5.663  0.00  0.00    -0.387 OA
ATOM     37  H   UNL     1     -37.315  26.692   5.558  0.00  0.00    +0.210 HD
ENDBRANCH  33  36
ENDBRANCH  32  33
ENDBRANCH  29  32
ENDBRANCH  28  29
ENDBRANCH  26  28
ENDBRANCH   6  26
TORSDOF 10
ENDMDL
MODEL 5
REMARK VINA RESULT:      -5.9      4.238      7.802
REMARK  Name = 5284250
REMARK  10 active torsions:
REMARK  status: ('A' for Active; 'I' for Inactive)
REMARK    1  A    between atoms: C_6  and  C_26
REMARK    2  A    between atoms: C_7  and  O_20
REMARK    3  A    between atoms: C_11  and  O_22
REMARK    4  A    between atoms: C_19  and  O_24
REMARK    5  A    between atoms: C_26  and  C_28
REMARK    6  A    between atoms: C_28  and  C_29
REMARK    7  A    between atoms: C_29  and  O_30
REMARK    8  A    between atoms: C_29  and  C_32
REMARK    9  A    between atoms: C_32  and  C_33
REMARK   10  A    between atoms: C_33  and  O_36
REMARK                            x       y       z     vdW  Elec       q    Type
REMARK                         _______ _______ _______ _____ _____    ______ ____
ROOT
ATOM      1  C   UNL     1     -35.363  29.201   1.186  0.00  0.00    +0.025 C 
ATOM      2  C   UNL     1     -36.664  28.375   1.325  0.00  0.00    +0.005 C 
ATOM      3  C   UNL     1     -36.408  26.885   1.603  0.00  0.00    +0.027 C 
ATOM      4  C   UNL     1     -35.599  26.763   2.938  0.00  0.00    +0.005 C 
ATOM      5  C   UNL     1     -35.321  25.260   3.334  0.00  0.00    +0.000 C 
ATOM      6  C   UNL     1     -35.990  30.579   0.848  0.00  0.00    +0.002 C 
ATOM      7  C   UNL     1     -34.572  29.121   2.510  0.00  0.00    +0.110 C 
ATOM      8  C   UNL     1     -34.323  27.656   2.931  0.00  0.00    +0.029 C 
ATOM      9  C   UNL     1     -36.676  24.490   3.350  0.00  0.00    +0.005 C 
ATOM     10  C   UNL     1     -37.468  28.758   0.083  0.00  0.00    +0.000 C 
ATOM     11  C   UNL     1     -37.714  26.071   1.656  0.00  0.00    +0.110 C 
ATOM     12  C   UNL     1     -37.113  30.236  -0.157  0.00  0.00    +0.000 C 
ATOM     13  C   UNL     1     -37.456  24.612   2.032  0.00  0.00    +0.029 C 
ATOM     14  C   UNL     1     -34.700  25.199   4.767  0.00  0.00    +0.002 C 
ATOM     15  C   UNL     1     -34.445  28.716   0.030  0.00  0.00    +0.002 C 
ATOM     16  C   UNL     1     -36.528  23.010   3.753  0.00  0.00    +0.029 C 
ATOM     17  C   UNL     1     -34.326  24.612   2.335  0.00  0.00    +0.000 C 
ATOM     18  C   UNL     1     -35.187  24.037   5.641  0.00  0.00    +0.029 C 
ATOM     19  C   UNL     1     -35.481  22.775   4.846  0.00  0.00    +0.111 C 
ENDROOT
BRANCH   7  20
ATOM     20  O   UNL     1     -35.228  29.812   3.572  0.00  0.00    -0.384 OA
ATOM     21  H   UNL     1     -34.684  30.563   3.854  0.00  0.00    +0.210 HD
ENDBRANCH   7  20
BRANCH  11  22
ATOM     22  O   UNL     1     -38.613  26.649   2.601  0.00  0.00    -0.384 OA
ATOM     23  H   UNL     1     -38.743  27.587   2.392  0.00  0.00    +0.210 HD
ENDBRANCH  11  22
BRANCH  19  24
ATOM     24  O   UNL     1     -35.939  21.765   5.741  0.00  0.00    -0.384 OA
ATOM     25  H   UNL     1     -36.132  20.956   5.243  0.00  0.00    +0.210 HD
ENDBRANCH  19  24
BRANCH   6  26
ATOM     26  C   UNL     1     -35.036  31.648   0.331  0.00  0.00    +0.002 C 
ATOM     27  C   UNL     1     -34.662  32.610   1.465  0.00  0.00    +0.000 C 
BRANCH  26  28
ATOM     28  C   UNL     1     -35.630  32.450  -0.850  0.00  0.00    +0.029 C 
BRANCH  28  29
ATOM     29  C   UNL     1     -36.155  33.843  -0.476  0.00  0.00    +0.113 C 
BRANCH  29  30
ATOM     30  O   UNL     1     -35.643  34.804  -1.404  0.00  0.00    -0.384 OA
ATOM     31  H   UNL     1     -34.746  35.064  -1.141  0.00  0.00    +0.210 HD
ENDBRANCH  29  30
BRANCH  29  32
ATOM     32  C   UNL     1     -37.690  33.973  -0.490  0.00  0.00    +0.056 C 
BRANCH  32  33
ATOM     33  C   UNL     1     -38.385  34.387   0.823  0.00  0.00    +0.091 C 
ATOM     34  C   UNL     1     -38.362  33.208   1.803  0.00  0.00    +0.029 C 
ATOM     35  C   UNL     1     -37.740  35.613   1.471  0.00  0.00    +0.029 C 
BRANCH  33  36
ATOM     36  O   UNL     1     -39.756  34.680   0.549  0.00  0.00    -0.387 OA
ATOM     37  H   UNL     1     -39.828  35.571   0.172  0.00  0.00    +0.210 HD
ENDBRANCH  33  36
ENDBRANCH  32  33
ENDBRANCH  29  32
ENDBRANCH  28  29
ENDBRANCH  26  28
ENDBRANCH   6  26
TORSDOF 10
ENDMDL
MODEL 6
REMARK VINA RESULT:      -5.8      3.413      6.040
REMARK  Name = 5284250
REMARK  10 active torsions:
REMARK  status: ('A' for Active; 'I' for Inactive)
REMARK    1  A    between atoms: C_6  and  C_26
REMARK    2  A    between atoms: C_7  and  O_20
REMARK    3  A    between atoms: C_11  and  O_22
REMARK    4  A    between atoms: C_19  and  O_24
REMARK    5  A    between atoms: C_26  and  C_28
REMARK    6  A    between atoms: C_28  and  C_29
REMARK    7  A    between atoms: C_29  and  O_30
REMARK    8  A    between atoms: C_29  and  C_32
REMARK    9  A    between atoms: C_32  and  C_33
REMARK   10  A    between atoms: C_33  and  O_36
REMARK                            x       y       z     vdW  Elec       q    Type
REMARK                         _______ _______ _______ _____ _____    ______ ____
ROOT
ATOM      1  C   UNL     1     -33.310  26.876   3.311  0.00  0.00    +0.025 C 
ATOM      2  C   UNL     1     -33.691  25.783   4.339  0.00  0.00    +0.005 C 
ATOM      3  C   UNL     1     -34.787  24.832   3.832  0.00  0.00    +0.027 C 
ATOM      4  C   UNL     1     -34.272  24.130   2.531  0.00  0.00    +0.005 C 
ATOM      5  C   UNL     1     -35.316  23.096   1.953  0.00  0.00    +0.000 C 
ATOM      6  C   UNL     1     -32.277  27.657   4.165  0.00  0.00    +0.002 C 
ATOM      7  C   UNL     1     -32.763  26.198   2.036  0.00  0.00    +0.110 C 
ATOM      8  C   UNL     1     -33.758  25.158   1.478  0.00  0.00    +0.029 C 
ATOM      9  C   UNL     1     -35.711  22.102   3.086  0.00  0.00    +0.005 C 
ATOM     10  C   UNL     1     -33.944  26.570   5.624  0.00  0.00    +0.000 C 
ATOM     11  C   UNL     1     -35.206  23.805   4.901  0.00  0.00    +0.110 C 
ATOM     12  C   UNL     1     -32.935  27.730   5.562  0.00  0.00    +0.000 C 
ATOM     13  C   UNL     1     -36.223  22.803   4.355  0.00  0.00    +0.029 C 
ATOM     14  C   UNL     1     -34.665  22.285   0.787  0.00  0.00    +0.002 C 
ATOM     15  C   UNL     1     -34.502  27.791   2.914  0.00  0.00    +0.002 C 
ATOM     16  C   UNL     1     -36.712  21.024   2.627  0.00  0.00    +0.029 C 
ATOM     17  C   UNL     1     -36.564  23.837   1.405  0.00  0.00    +0.000 C 
ATOM     18  C   UNL     1     -35.040  20.799   0.737  0.00  0.00    +0.029 C 
ATOM     19  C   UNL     1     -36.462  20.526   1.199  0.00  0.00    +0.111 C 
ENDROOT
BRANCH   7  20
ATOM     20  O   UNL     1     -31.500  25.572   2.257  0.00  0.00    -0.384 OA
ATOM     21  H   UNL     1     -31.369  25.436   3.208  0.00  0.00    +0.210 HD
ENDBRANCH   7  20
BRANCH  11  22
ATOM     22  O   UNL     1     -34.060  23.102   5.378  0.00  0.00    -0.384 OA
ATOM     23  H   UNL     1     -34.338  22.421   6.010  0.00  0.00    +0.210 HD
ENDBRANCH  11  22
BRANCH  19  24
ATOM     24  O   UNL     1     -36.707  19.124   1.130  0.00  0.00    -0.384 OA
ATOM     25  H   UNL     1     -36.092  18.660   1.719  0.00  0.00    +0.210 HD
ENDBRANCH  19  24
BRANCH   6  26
ATOM     26  C   UNL     1     -31.855  29.020   3.636  0.00  0.00    +0.002 C 
ATOM     27  C   UNL     1     -30.660  28.867   2.687  0.00  0.00    +0.000 C 
BRANCH  26  28
ATOM     28  C   UNL     1     -31.490  30.009   4.768  0.00  0.00    +0.029 C 
BRANCH  28  29
ATOM     29  C   UNL     1     -30.020  29.962   5.208  0.00  0.00    +0.113 C 
BRANCH  29  30
ATOM     30  O   UNL     1     -29.504  31.295   5.268  0.00  0.00    -0.384 OA
ATOM     31  H   UNL     1     -29.900  31.828   4.561  0.00  0.00    +0.210 HD
ENDBRANCH  29  30
BRANCH  29  32
ATOM     32  C   UNL     1     -29.787  29.322   6.590  0.00  0.00    +0.056 C 
BRANCH  32  33
ATOM     33  C   UNL     1     -28.731  28.202   6.691  0.00  0.00    +0.091 C 
ATOM     34  C   UNL     1     -28.149  27.927   5.300  0.00  0.00    +0.029 C 
ATOM     35  C   UNL     1     -27.604  28.539   7.668  0.00  0.00    +0.029 C 
BRANCH  33  36
ATOM     36  O   UNL     1     -29.372  27.001   7.125  0.00  0.00    -0.387 OA
ATOM     37  H   UNL     1     -29.048  26.762   8.007  0.00  0.00    +0.210 HD
ENDBRANCH  33  36
ENDBRANCH  32  33
ENDBRANCH  29  32
ENDBRANCH  28  29
ENDBRANCH  26  28
ENDBRANCH   6  26
TORSDOF 10
ENDMDL
MODEL 7
REMARK VINA RESULT:      -5.8      1.965      8.939
REMARK  Name = 5284250
REMARK  10 active torsions:
REMARK  status: ('A' for Active; 'I' for Inactive)
REMARK    1  A    between atoms: C_6  and  C_26
REMARK    2  A    between atoms: C_7  and  O_20
REMARK    3  A    between atoms: C_11  and  O_22
REMARK    4  A    between atoms: C_19  and  O_24
REMARK    5  A    between atoms: C_26  and  C_28
REMARK    6  A    between atoms: C_28  and  C_29
REMARK    7  A    between atoms: C_29  and  O_30
REMARK    8  A    between atoms: C_29  and  C_32
REMARK    9  A    between atoms: C_32  and  C_33
REMARK   10  A    between atoms: C_33  and  O_36
REMARK                            x       y       z     vdW  Elec       q    Type
REMARK                         _______ _______ _______ _____ _____    ______ ____
ROOT
ATOM      1  C   UNL     1     -37.006  24.992   2.061  0.00  0.00    +0.025 C 
ATOM      2  C   UNL     1     -36.045  25.176   3.261  0.00  0.00    +0.005 C 
ATOM      3  C   UNL     1     -34.895  26.154   2.971  0.00  0.00    +0.027 C 
ATOM      4  C   UNL     1     -35.509  27.547   2.611  0.00  0.00    +0.005 C 
ATOM      5  C   UNL     1     -34.401  28.638   2.336  0.00  0.00    +0.000 C 
ATOM      6  C   UNL     1     -37.952  23.926   2.673  0.00  0.00    +0.002 C 
ATOM      7  C   UNL     1     -37.648  26.354   1.718  0.00  0.00    +0.110 C 
ATOM      8  C   UNL     1     -36.577  27.440   1.481  0.00  0.00    +0.029 C 
ATOM      9  C   UNL     1     -33.428  28.678   3.553  0.00  0.00    +0.005 C 
ATOM     10  C   UNL     1     -35.702  23.744   3.669  0.00  0.00    +0.000 C 
ATOM     11  C   UNL     1     -33.910  26.257   4.150  0.00  0.00    +0.110 C 
ATOM     12  C   UNL     1     -36.991  22.951   3.392  0.00  0.00    +0.000 C 
ATOM     13  C   UNL     1     -32.827  27.305   3.892  0.00  0.00    +0.029 C 
ATOM     14  C   UNL     1     -35.068  30.043   2.188  0.00  0.00    +0.002 C 
ATOM     15  C   UNL     1     -36.304  24.441   0.789  0.00  0.00    +0.002 C 
ATOM     16  C   UNL     1     -32.314  29.732   3.406  0.00  0.00    +0.029 C 
ATOM     17  C   UNL     1     -33.636  28.313   1.025  0.00  0.00    +0.000 C 
ATOM     18  C   UNL     1     -34.289  31.205   2.817  0.00  0.00    +0.029 C 
ATOM     19  C   UNL     1     -32.782  31.027   2.734  0.00  0.00    +0.111 C 
ENDROOT
BRANCH   7  20
ATOM     20  O   UNL     1     -38.551  26.794   2.732  0.00  0.00    -0.384 OA
ATOM     21  H   UNL     1     -38.976  26.025   3.142  0.00  0.00    +0.210 HD
ENDBRANCH   7  20
BRANCH  11  22
ATOM     22  O   UNL     1     -34.612  26.590   5.346  0.00  0.00    -0.384 OA
ATOM     23  H   UNL     1     -35.372  27.152   5.130  0.00  0.00    +0.210 HD
ENDBRANCH  11  22
BRANCH  19  24
ATOM     24  O   UNL     1     -32.152  32.144   3.355  0.00  0.00    -0.384 OA
ATOM     25  H   UNL     1     -31.744  32.703   2.676  0.00  0.00    +0.210 HD
ENDBRANCH  19  24
BRANCH   6  26
ATOM     26  C   UNL     1     -38.895  23.224   1.706  0.00  0.00    +0.002 C 
ATOM     27  C   UNL     1     -40.276  23.891   1.744  0.00  0.00    +0.000 C 
BRANCH  26  28
ATOM     28  C   UNL     1     -39.043  21.715   2.012  0.00  0.00    +0.029 C 
BRANCH  28  29
ATOM     29  C   UNL     1     -38.648  20.788   0.854  0.00  0.00    +0.113 C 
BRANCH  29  30
ATOM     30  O   UNL     1     -39.476  21.070  -0.278  0.00  0.00    -0.384 OA
ATOM     31  H   UNL     1     -40.163  20.390  -0.355  0.00  0.00    +0.210 HD
ENDBRANCH  29  30
BRANCH  29  32
ATOM     32  C   UNL     1     -37.185  20.929   0.392  0.00  0.00    +0.056 C 
BRANCH  32  33
ATOM     33  C   UNL     1     -36.124  20.062   1.100  0.00  0.00    +0.091 C 
ATOM     34  C   UNL     1     -35.800  18.843   0.228  0.00  0.00    +0.029 C 
ATOM     35  C   UNL     1     -34.841  20.835   1.410  0.00  0.00    +0.029 C 
BRANCH  33  36
ATOM     36  O   UNL     1     -36.671  19.570   2.324  0.00  0.00    -0.387 OA
ATOM     37  H   UNL     1     -36.657  18.600   2.319  0.00  0.00    +0.210 HD
ENDBRANCH  33  36
ENDBRANCH  32  33
ENDBRANCH  29  32
ENDBRANCH  28  29
ENDBRANCH  26  28
ENDBRANCH   6  26
TORSDOF 10
ENDMDL
MODEL 8
REMARK VINA RESULT:      -5.8      2.668      4.626
REMARK  Name = 5284250
REMARK  10 active torsions:
REMARK  status: ('A' for Active; 'I' for Inactive)
REMARK    1  A    between atoms: C_6  and  C_26
REMARK    2  A    between atoms: C_7  and  O_20
REMARK    3  A    between atoms: C_11  and  O_22
REMARK    4  A    between atoms: C_19  and  O_24
REMARK    5  A    between atoms: C_26  and  C_28
REMARK    6  A    between atoms: C_28  and  C_29
REMARK    7  A    between atoms: C_29  and  O_30
REMARK    8  A    between atoms: C_29  and  C_32
REMARK    9  A    between atoms: C_32  and  C_33
REMARK   10  A    between atoms: C_33  and  O_36
REMARK                            x       y       z     vdW  Elec       q    Type
REMARK                         _______ _______ _______ _____ _____    ______ ____
ROOT
ATOM      1  C   UNL     1     -37.491  21.886   0.990  0.00  0.00    +0.025 C 
ATOM      2  C   UNL     1     -37.747  20.400   0.640  0.00  0.00    +0.005 C 
ATOM      3  C   UNL     1     -36.551  19.729  -0.054  0.00  0.00    +0.027 C 
ATOM      4  C   UNL     1     -35.315  19.807   0.902  0.00  0.00    +0.005 C 
ATOM      5  C   UNL     1     -34.040  19.103   0.293  0.00  0.00    +0.000 C 
ATOM      6  C   UNL     1     -38.883  22.235   1.581  0.00  0.00    +0.002 C 
ATOM      7  C   UNL     1     -36.297  21.976   1.964  0.00  0.00    +0.110 C 
ATOM      8  C   UNL     1     -35.052  21.260   1.398  0.00  0.00    +0.029 C 
ATOM      9  C   UNL     1     -34.422  17.649  -0.118  0.00  0.00    +0.005 C 
ATOM     10  C   UNL     1     -39.092  20.427  -0.084  0.00  0.00    +0.000 C 
ATOM     11  C   UNL     1     -36.858  18.276  -0.465  0.00  0.00    +0.110 C 
ATOM     12  C   UNL     1     -39.876  21.552   0.613  0.00  0.00    +0.000 C 
ATOM     13  C   UNL     1     -35.632  17.586  -1.063  0.00  0.00    +0.029 C 
ATOM     14  C   UNL     1     -32.910  19.032   1.371  0.00  0.00    +0.002 C 
ATOM     15  C   UNL     1     -37.185  22.768  -0.253  0.00  0.00    +0.002 C 
ATOM     16  C   UNL     1     -33.240  16.853  -0.704  0.00  0.00    +0.029 C 
ATOM     17  C   UNL     1     -33.510  19.903  -0.927  0.00  0.00    +0.000 C 
ATOM     18  C   UNL     1     -32.090  17.736   1.373  0.00  0.00    +0.029 C 
ATOM     19  C   UNL     1     -31.903  17.146  -0.015  0.00  0.00    +0.111 C 
ENDROOT
BRANCH   7  20
ATOM     20  O   UNL     1     -36.608  21.438   3.248  0.00  0.00    -0.384 OA
ATOM     21  H   UNL     1     -36.459  20.480   3.242  0.00  0.00    +0.210 HD
ENDBRANCH   7  20
BRANCH  11  22
ATOM     22  O   UNL     1     -37.311  17.535   0.667  0.00  0.00    -0.384 OA
ATOM     23  H   UNL     1     -38.160  17.113   0.459  0.00  0.00    +0.210 HD
ENDBRANCH  11  22
BRANCH  19  24
ATOM     24  O   UNL     1     -31.146  15.944   0.095  0.00  0.00    -0.384 OA
ATOM     25  H   UNL     1     -31.657  15.285   0.589  0.00  0.00    +0.210 HD
ENDBRANCH  19  24
BRANCH   6  26
ATOM     26  C   UNL     1     -39.178  23.714   1.790  0.00  0.00    +0.002 C 
ATOM     27  C   UNL     1     -40.416  24.120   0.981  0.00  0.00    +0.000 C 
BRANCH  26  28
ATOM     28  C   UNL     1     -37.986  24.617   1.397  0.00  0.00    +0.029 C 
BRANCH  28  29
ATOM     29  C   UNL     1     -37.471  25.522   2.525  0.00  0.00    +0.113 C 
BRANCH  29  30
ATOM     30  O   UNL     1     -38.285  26.696   2.595  0.00  0.00    -0.384 OA
ATOM     31  H   UNL     1     -38.154  27.131   3.452  0.00  0.00    +0.210 HD
ENDBRANCH  29  30
BRANCH  29  32
ATOM     32  C   UNL     1     -37.490  24.873   3.923  0.00  0.00    +0.056 C 
BRANCH  32  33
ATOM     33  C   UNL     1     -36.147  24.743   4.669  0.00  0.00    +0.091 C 
ATOM     34  C   UNL     1     -35.006  24.655   3.648  0.00  0.00    +0.029 C 
ATOM     35  C   UNL     1     -35.892  25.902   5.634  0.00  0.00    +0.029 C 
BRANCH  33  36
ATOM     36  O   UNL     1     -36.145  23.521   5.408  0.00  0.00    -0.387 OA
ATOM     37  H   UNL     1     -36.721  23.610   6.184  0.00  0.00    +0.210 HD
ENDBRANCH  33  36
ENDBRANCH  32  33
ENDBRANCH  29  32
ENDBRANCH  28  29
ENDBRANCH  26  28
ENDBRANCH   6  26
TORSDOF 10
ENDMDL
MODEL 9
REMARK VINA RESULT:      -5.7      4.132      7.451
REMARK  Name = 5284250
REMARK  10 active torsions:
REMARK  status: ('A' for Active; 'I' for Inactive)
REMARK    1  A    between atoms: C_6  and  C_26
REMARK    2  A    between atoms: C_7  and  O_20
REMARK    3  A    between atoms: C_11  and  O_22
REMARK    4  A    between atoms: C_19  and  O_24
REMARK    5  A    between atoms: C_26  and  C_28
REMARK    6  A    between atoms: C_28  and  C_29
REMARK    7  A    between atoms: C_29  and  O_30
REMARK    8  A    between atoms: C_29  and  C_32
REMARK    9  A    between atoms: C_32  and  C_33
REMARK   10  A    between atoms: C_33  and  O_36
REMARK                            x       y       z     vdW  Elec       q    Type
REMARK                         _______ _______ _______ _____ _____    ______ ____
ROOT
ATOM      1  C   UNL     1     -35.134  28.051   1.107  0.00  0.00    +0.025 C 
ATOM      2  C   UNL     1     -34.268  27.829   2.370  0.00  0.00    +0.005 C 
ATOM      3  C   UNL     1     -34.877  26.813   3.350  0.00  0.00    +0.027 C 
ATOM      4  C   UNL     1     -35.033  25.443   2.609  0.00  0.00    +0.005 C 
ATOM      5  C   UNL     1     -35.615  24.316   3.550  0.00  0.00    +0.000 C 
ATOM      6  C   UNL     1     -34.277  29.147   0.420  0.00  0.00    +0.002 C 
ATOM      7  C   UNL     1     -35.264  26.714   0.345  0.00  0.00    +0.110 C 
ATOM      8  C   UNL     1     -35.799  25.592   1.261  0.00  0.00    +0.029 C 
ATOM      9  C   UNL     1     -34.737  24.237   4.835  0.00  0.00    +0.005 C 
ATOM     10  C   UNL     1     -33.988  29.246   2.868  0.00  0.00    +0.000 C 
ATOM     11  C   UNL     1     -34.040  26.670   4.634  0.00  0.00    +0.110 C 
ATOM     12  C   UNL     1     -33.878  30.085   1.583  0.00  0.00    +0.000 C 
ATOM     13  C   UNL     1     -34.598  25.586   5.557  0.00  0.00    +0.029 C 
ATOM     14  C   UNL     1     -35.551  22.935   2.821  0.00  0.00    +0.002 C 
ATOM     15  C   UNL     1     -36.559  28.583   1.422  0.00  0.00    +0.002 C 
ATOM     16  C   UNL     1     -35.199  23.145   5.820  0.00  0.00    +0.029 C 
ATOM     17  C   UNL     1     -37.094  24.620   3.907  0.00  0.00    +0.000 C 
ATOM     18  C   UNL     1     -35.172  21.744   3.709  0.00  0.00    +0.029 C 
ATOM     19  C   UNL     1     -35.696  21.870   5.131  0.00  0.00    +0.111 C 
ENDROOT
BRANCH   7  20
ATOM     20  O   UNL     1     -34.027  26.301  -0.235  0.00  0.00    -0.384 OA
ATOM     21  H   UNL     1     -34.153  26.139  -1.182  0.00  0.00    +0.210 HD
ENDBRANCH   7  20
BRANCH  11  22
ATOM     22  O   UNL     1     -32.688  26.357   4.304  0.00  0.00    -0.384 OA
ATOM     23  H   UNL     1     -32.664  25.552   3.763  0.00  0.00    +0.210 HD
ENDBRANCH  11  22
BRANCH  19  24
ATOM     24  O   UNL     1     -35.280  20.729   5.876  0.00  0.00    -0.384 OA
ATOM     25  H   UNL     1     -35.758  20.702   6.719  0.00  0.00    +0.210 HD
ENDBRANCH  19  24
BRANCH   6  26
ATOM     26  C   UNL     1     -34.928  29.885  -0.742  0.00  0.00    +0.002 C 
ATOM     27  C   UNL     1     -34.108  29.678  -2.020  0.00  0.00    +0.000 C 
BRANCH  26  28
ATOM     28  C   UNL     1     -35.084  31.400  -0.468  0.00  0.00    +0.029 C 
BRANCH  28  29
ATOM     29  C   UNL     1     -36.535  31.902  -0.464  0.00  0.00    +0.113 C 
BRANCH  29  30
ATOM     30  O   UNL     1     -37.403  30.835  -0.857  0.00  0.00    -0.384 OA
ATOM     31  H   UNL     1     -38.326  31.129  -0.798  0.00  0.00    +0.210 HD
ENDBRANCH  29  30
BRANCH  29  32
ATOM     32  C   UNL     1     -37.031  32.410   0.903  0.00  0.00    +0.056 C 
BRANCH  32  33
ATOM     33  C   UNL     1     -38.465  32.972   0.980  0.00  0.00    +0.091 C 
ATOM     34  C   UNL     1     -38.566  33.950   2.157  0.00  0.00    +0.029 C 
ATOM     35  C   UNL     1     -38.897  33.668  -0.312  0.00  0.00    +0.029 C 
BRANCH  33  36
ATOM     36  O   UNL     1     -39.369  31.898   1.246  0.00  0.00    -0.387 OA
ATOM     37  H   UNL     1     -39.921  32.122   2.012  0.00  0.00    +0.210 HD
ENDBRANCH  33  36
ENDBRANCH  32  33
ENDBRANCH  29  32
ENDBRANCH  28  29
ENDBRANCH  26  28
ENDBRANCH   6  26
TORSDOF 10
ENDMDL
