MODEL 1
REMARK VINA RESULT:      -6.9      0.000      0.000
REMARK  Name = 5281417
REMARK  8 active torsions:
REMARK  status: ('A' for Active; 'I' for Inactive)
REMARK    1  A    between atoms: C_2  and  O_7
REMARK    2  A    between atoms: C_3  and  O_9
REMARK    3  A    between atoms: C_4  and  O_11
REMARK    4  A    between atoms: C_5  and  C_27
REMARK    5  A    between atoms: C_6  and  O_13
REMARK    6  A    between atoms: O_13  and  C_16
REMARK    7  A    between atoms: C_18  and  O_25
REMARK    8  A    between atoms: C_27  and  O_28
REMARK                            x       y       z     vdW  Elec       q    Type
REMARK                         _______ _______ _______ _____ _____    ______ ____
ROOT
ATOM      1  O   UNL     1     -37.672  23.990   2.651  0.00  0.00    -0.316 OA
ATOM      2  C   UNL     1     -39.493  21.984   1.697  0.00  0.00    +0.173 C 
ATOM      3  C   UNL     1     -39.967  23.345   2.208  0.00  0.00    +0.169 C 
ATOM      4  C   UNL     1     -38.111  21.636   2.250  0.00  0.00    +0.210 C 
ATOM      5  C   UNL     1     -38.881  24.407   2.013  0.00  0.00    +0.177 C 
ATOM      6  C   UNL     1     -37.135  22.800   2.081  0.00  0.00    +0.318 C 
ENDROOT
BRANCH   2   7
ATOM      7  O   UNL     1     -40.437  21.000   2.121  0.00  0.00    -0.379 OA
ATOM      8  H   UNL     1     -40.678  21.161   3.047  0.00  0.00    +0.211 HD
ENDBRANCH   2   7
BRANCH   3   9
ATOM      9  O   UNL     1     -41.139  23.734   1.496  0.00  0.00    -0.379 OA
ATOM     10  H   UNL     1     -40.884  24.189   0.679  0.00  0.00    +0.211 HD
ENDBRANCH   3   9
BRANCH   4  11
ATOM     11  O   UNL     1     -37.590  20.508   1.546  0.00  0.00    -0.377 OA
ATOM     12  H   UNL     1     -36.806  20.776   1.042  0.00  0.00    +0.211 HD
ENDBRANCH   4  11
BRANCH   6  13
ATOM     13  O   UNL     1     -35.920  22.454   2.744  0.00  0.00    -0.447 OA
BRANCH  13  16
ATOM     14  O   UNL     1     -33.705  26.324   6.033  0.00  0.00    -0.421 OA
ATOM     15  O   UNL     1     -32.454  28.227   6.280  0.00  0.00    -0.244 OA
ATOM     16  C   UNL     1     -35.372  23.409   3.557  0.00  0.00    +0.175 C 
ATOM     17  C   UNL     1     -34.615  24.433   2.986  0.00  0.00    +0.043 C 
ATOM     18  C   UNL     1     -35.572  23.356   4.935  0.00  0.00    +0.171 C 
ATOM     19  C   UNL     1     -34.050  25.417   3.801  0.00  0.00    +0.038 C 
ATOM     20  C   UNL     1     -34.258  25.351   5.176  0.00  0.00    +0.152 C 
ATOM     21  C   UNL     1     -35.012  24.332   5.756  0.00  0.00    +0.077 C 
ATOM     22  C   UNL     1     -33.253  26.506   3.264  0.00  0.00    +0.010 C 
ATOM     23  C   UNL     1     -32.732  27.424   4.082  0.00  0.00    +0.082 C 
ATOM     24  C   UNL     1     -32.937  27.375   5.542  0.00  0.00    +0.346 C 
BRANCH  18  25
ATOM     25  O   UNL     1     -36.312  22.357   5.491  0.00  0.00    -0.503 OA
ATOM     26  H   UNL     1     -36.869  22.537   6.222  0.00  0.00    +0.292 HD
ENDBRANCH  18  25
ENDBRANCH  13  16
ENDBRANCH   6  13
BRANCH   5  27
ATOM     27  C   UNL     1     -39.285  25.746   2.621  0.00  0.00    +0.169 C 
BRANCH  27  28
ATOM     28  O   UNL     1     -40.103  25.500   3.750  0.00  0.00    -0.379 OA
ATOM     29  H   UNL     1     -39.546  25.396   4.536  0.00  0.00    +0.211 HD
ENDBRANCH  27  28
ENDBRANCH   5  27
TORSDOF 8
ENDMDL
MODEL 2
REMARK VINA RESULT:      -6.8      3.645      5.880
REMARK  Name = 5281417
REMARK  8 active torsions:
REMARK  status: ('A' for Active; 'I' for Inactive)
REMARK    1  A    between atoms: C_2  and  O_7
REMARK    2  A    between atoms: C_3  and  O_9
REMARK    3  A    between atoms: C_4  and  O_11
REMARK    4  A    between atoms: C_5  and  C_27
REMARK    5  A    between atoms: C_6  and  O_13
REMARK    6  A    between atoms: O_13  and  C_16
REMARK    7  A    between atoms: C_18  and  O_25
REMARK    8  A    between atoms: C_27  and  O_28
REMARK                            x       y       z     vdW  Elec       q    Type
REMARK                         _______ _______ _______ _____ _____    ______ ____
ROOT
ATOM      1  O   UNL     1     -35.932  23.298   3.608  0.00  0.00    -0.316 OA
ATOM      2  C   UNL     1     -37.384  25.735   3.160  0.00  0.00    +0.173 C 
ATOM      3  C   UNL     1     -36.876  25.327   4.543  0.00  0.00    +0.169 C 
ATOM      4  C   UNL     1     -37.521  24.522   2.240  0.00  0.00    +0.210 C 
ATOM      5  C   UNL     1     -35.638  24.434   4.424  0.00  0.00    +0.177 C 
ATOM      6  C   UNL     1     -36.261  23.657   2.270  0.00  0.00    +0.318 C 
ENDROOT
BRANCH   2   7
ATOM      7  O   UNL     1     -38.660  26.355   3.325  0.00  0.00    -0.379 OA
ATOM      8  H   UNL     1     -38.581  27.102   3.938  0.00  0.00    +0.211 HD
ENDBRANCH   2   7
BRANCH   3   9
ATOM      9  O   UNL     1     -36.543  26.496   5.288  0.00  0.00    -0.379 OA
ATOM     10  H   UNL     1     -36.664  27.279   4.730  0.00  0.00    +0.211 HD
ENDBRANCH   3   9
BRANCH   4  11
ATOM     11  O   UNL     1     -37.728  24.967   0.899  0.00  0.00    -0.377 OA
ATOM     12  H   UNL     1     -38.446  25.619   0.882  0.00  0.00    +0.211 HD
ENDBRANCH   4  11
BRANCH   6  13
ATOM     13  O   UNL     1     -36.519  22.480   1.505  0.00  0.00    -0.447 OA
BRANCH  13  16
ATOM     14  O   UNL     1     -32.231  19.069   0.687  0.00  0.00    -0.421 OA
ATOM     15  O   UNL     1     -30.174  18.667  -0.236  0.00  0.00    -0.244 OA
ATOM     16  C   UNL     1     -35.461  21.637   1.302  0.00  0.00    +0.175 C 
ATOM     17  C   UNL     1     -34.379  22.077   0.537  0.00  0.00    +0.043 C 
ATOM     18  C   UNL     1     -35.467  20.358   1.856  0.00  0.00    +0.171 C 
ATOM     19  C   UNL     1     -33.290  21.229   0.322  0.00  0.00    +0.038 C 
ATOM     20  C   UNL     1     -33.310  19.954   0.881  0.00  0.00    +0.152 C 
ATOM     21  C   UNL     1     -34.386  19.506   1.646  0.00  0.00    +0.077 C 
ATOM     22  C   UNL     1     -32.137  21.631  -0.465  0.00  0.00    +0.010 C 
ATOM     23  C   UNL     1     -31.119  20.787  -0.645  0.00  0.00    +0.082 C 
ATOM     24  C   UNL     1     -31.117  19.431  -0.064  0.00  0.00    +0.346 C 
BRANCH  18  25
ATOM     25  O   UNL     1     -36.522  19.930   2.604  0.00  0.00    -0.503 OA
ATOM     26  H   UNL     1     -37.358  20.344   2.514  0.00  0.00    +0.292 HD
ENDBRANCH  18  25
ENDBRANCH  13  16
ENDBRANCH   6  13
BRANCH   5  27
ATOM     27  C   UNL     1     -35.181  23.917   5.785  0.00  0.00    +0.169 C 
BRANCH  27  28
ATOM     28  O   UNL     1     -35.924  22.754   6.098  0.00  0.00    -0.379 OA
ATOM     29  H   UNL     1     -35.694  22.047   5.475  0.00  0.00    +0.211 HD
ENDBRANCH  27  28
ENDBRANCH   5  27
TORSDOF 8
ENDMDL
MODEL 3
REMARK VINA RESULT:      -6.7      2.163      3.063
REMARK  Name = 5281417
REMARK  8 active torsions:
REMARK  status: ('A' for Active; 'I' for Inactive)
REMARK    1  A    between atoms: C_2  and  O_7
REMARK    2  A    between atoms: C_3  and  O_9
REMARK    3  A    between atoms: C_4  and  O_11
REMARK    4  A    between atoms: C_5  and  C_27
REMARK    5  A    between atoms: C_6  and  O_13
REMARK    6  A    between atoms: O_13  and  C_16
REMARK    7  A    between atoms: C_18  and  O_25
REMARK    8  A    between atoms: C_27  and  O_28
REMARK                            x       y       z     vdW  Elec       q    Type
REMARK                         _______ _______ _______ _____ _____    ______ ____
ROOT
ATOM      1  O   UNL     1     -37.833  20.940   1.868  0.00  0.00    -0.316 OA
ATOM      2  C   UNL     1     -36.826  19.478  -0.390  0.00  0.00    +0.173 C 
ATOM      3  C   UNL     1     -38.301  19.853  -0.248  0.00  0.00    +0.169 C 
ATOM      4  C   UNL     1     -36.125  19.467   0.968  0.00  0.00    +0.210 C 
ATOM      5  C   UNL     1     -38.461  21.120   0.597  0.00  0.00    +0.177 C 
ATOM      6  C   UNL     1     -36.427  20.740   1.760  0.00  0.00    +0.318 C 
ENDROOT
BRANCH   2   7
ATOM      7  O   UNL     1     -36.756  18.176  -0.972  0.00  0.00    -0.379 OA
ATOM      8  H   UNL     1     -37.648  17.800  -1.032  0.00  0.00    +0.211 HD
ENDBRANCH   2   7
BRANCH   3   9
ATOM      9  O   UNL     1     -38.858  20.078  -1.542  0.00  0.00    -0.379 OA
ATOM     10  H   UNL     1     -39.506  20.797  -1.493  0.00  0.00    +0.211 HD
ENDBRANCH   3   9
BRANCH   4  11
ATOM     11  O   UNL     1     -34.713  19.386   0.771  0.00  0.00    -0.377 OA
ATOM     12  H   UNL     1     -34.516  18.694   0.120  0.00  0.00    +0.211 HD
ENDBRANCH   4  11
BRANCH   6  13
ATOM     13  O   UNL     1     -35.859  20.592   3.061  0.00  0.00    -0.447 OA
BRANCH  13  16
ATOM     14  O   UNL     1     -34.173  25.234   5.572  0.00  0.00    -0.421 OA
ATOM     15  O   UNL     1     -33.509  27.422   5.439  0.00  0.00    -0.244 OA
ATOM     16  C   UNL     1     -35.442  21.738   3.681  0.00  0.00    +0.175 C 
ATOM     17  C   UNL     1     -35.169  22.867   2.908  0.00  0.00    +0.043 C 
ATOM     18  C   UNL     1     -35.295  21.772   5.067  0.00  0.00    +0.171 C 
ATOM     19  C   UNL     1     -34.743  24.045   3.525  0.00  0.00    +0.038 C 
ATOM     20  C   UNL     1     -34.600  24.065   4.911  0.00  0.00    +0.152 C 
ATOM     21  C   UNL     1     -34.870  22.942   5.691  0.00  0.00    +0.077 C 
ATOM     22  C   UNL     1     -34.444  25.252   2.773  0.00  0.00    +0.010 C 
ATOM     23  C   UNL     1     -34.039  26.355   3.406  0.00  0.00    +0.082 C 
ATOM     24  C   UNL     1     -33.880  26.400   4.872  0.00  0.00    +0.346 C 
BRANCH  18  25
ATOM     25  O   UNL     1     -35.564  20.669   5.821  0.00  0.00    -0.503 OA
ATOM     26  H   UNL     1     -35.506  20.714   6.754  0.00  0.00    +0.292 HD
ENDBRANCH  18  25
ENDBRANCH  13  16
ENDBRANCH   6  13
BRANCH   5  27
ATOM     27  C   UNL     1     -39.929  21.449   0.851  0.00  0.00    +0.169 C 
BRANCH  27  28
ATOM     28  O   UNL     1     -40.274  20.997   2.147  0.00  0.00    -0.379 OA
ATOM     29  H   UNL     1     -39.838  21.554   2.810  0.00  0.00    +0.211 HD
ENDBRANCH  27  28
ENDBRANCH   5  27
TORSDOF 8
ENDMDL
MODEL 4
REMARK VINA RESULT:      -6.4      3.437      7.008
REMARK  Name = 5281417
REMARK  8 active torsions:
REMARK  status: ('A' for Active; 'I' for Inactive)
REMARK    1  A    between atoms: C_2  and  O_7
REMARK    2  A    between atoms: C_3  and  O_9
REMARK    3  A    between atoms: C_4  and  O_11
REMARK    4  A    between atoms: C_5  and  C_27
REMARK    5  A    between atoms: C_6  and  O_13
REMARK    6  A    between atoms: O_13  and  C_16
REMARK    7  A    between atoms: C_18  and  O_25
REMARK    8  A    between atoms: C_27  and  O_28
REMARK                            x       y       z     vdW  Elec       q    Type
REMARK                         _______ _______ _______ _____ _____    ______ ____
ROOT
ATOM      1  O   UNL     1     -36.247  22.225   4.099  0.00  0.00    -0.316 OA
ATOM      2  C   UNL     1     -36.362  25.080   3.812  0.00  0.00    +0.173 C 
ATOM      3  C   UNL     1     -36.032  24.403   5.142  0.00  0.00    +0.169 C 
ATOM      4  C   UNL     1     -37.124  24.135   2.883  0.00  0.00    +0.210 C 
ATOM      5  C   UNL     1     -35.391  23.033   4.910  0.00  0.00    +0.177 C 
ATOM      6  C   UNL     1     -36.441  22.770   2.797  0.00  0.00    +0.318 C 
ENDROOT
BRANCH   2   7
ATOM      7  O   UNL     1     -37.167  26.227   4.088  0.00  0.00    -0.379 OA
ATOM      8  H   UNL     1     -36.594  26.980   4.302  0.00  0.00    +0.211 HD
ENDBRANCH   2   7
BRANCH   3   9
ATOM      9  O   UNL     1     -35.131  25.226   5.880  0.00  0.00    -0.379 OA
ATOM     10  H   UNL     1     -35.610  25.663   6.600  0.00  0.00    +0.211 HD
ENDBRANCH   3   9
BRANCH   4  11
ATOM     11  O   UNL     1     -37.171  24.696   1.571  0.00  0.00    -0.377 OA
ATOM     12  H   UNL     1     -38.068  24.608   1.214  0.00  0.00    +0.211 HD
ENDBRANCH   4  11
BRANCH   6  13
ATOM     13  O   UNL     1     -37.282  21.906   2.034  0.00  0.00    -0.447 OA
BRANCH  13  16
ATOM     14  O   UNL     1     -34.875  17.445  -0.203  0.00  0.00    -0.421 OA
ATOM     15  O   UNL     1     -33.009  16.154  -0.514  0.00  0.00    -0.244 OA
ATOM     16  C   UNL     1     -36.687  20.805   1.480  0.00  0.00    +0.175 C 
ATOM     17  C   UNL     1     -35.332  20.573   1.718  0.00  0.00    +0.043 C 
ATOM     18  C   UNL     1     -37.431  19.927   0.692  0.00  0.00    +0.171 C 
ATOM     19  C   UNL     1     -34.710  19.453   1.162  0.00  0.00    +0.038 C 
ATOM     20  C   UNL     1     -35.465  18.586   0.376  0.00  0.00    +0.152 C 
ATOM     21  C   UNL     1     -36.819  18.808   0.133  0.00  0.00    +0.077 C 
ATOM     22  C   UNL     1     -33.303  19.161   1.374  0.00  0.00    +0.010 C 
ATOM     23  C   UNL     1     -32.751  18.078   0.822  0.00  0.00    +0.082 C 
ATOM     24  C   UNL     1     -33.530  17.145  -0.014  0.00  0.00    +0.346 C 
BRANCH  18  25
ATOM     25  O   UNL     1     -38.755  20.153   0.463  0.00  0.00    -0.503 OA
ATOM     26  H   UNL     1     -39.147  19.868  -0.338  0.00  0.00    +0.292 HD
ENDBRANCH  18  25
ENDBRANCH  13  16
ENDBRANCH   6  13
BRANCH   5  27
ATOM     27  C   UNL     1     -35.160  22.287   6.221  0.00  0.00    +0.169 C 
BRANCH  27  28
ATOM     28  O   UNL     1     -35.300  20.899   5.981  0.00  0.00    -0.379 OA
ATOM     29  H   UNL     1     -34.888  20.675   5.133  0.00  0.00    +0.211 HD
ENDBRANCH  27  28
ENDBRANCH   5  27
TORSDOF 8
ENDMDL
MODEL 5
REMARK VINA RESULT:      -6.4      2.820      4.540
REMARK  Name = 5281417
REMARK  8 active torsions:
REMARK  status: ('A' for Active; 'I' for Inactive)
REMARK    1  A    between atoms: C_2  and  O_7
REMARK    2  A    between atoms: C_3  and  O_9
REMARK    3  A    between atoms: C_4  and  O_11
REMARK    4  A    between atoms: C_5  and  C_27
REMARK    5  A    between atoms: C_6  and  O_13
REMARK    6  A    between atoms: O_13  and  C_16
REMARK    7  A    between atoms: C_18  and  O_25
REMARK    8  A    between atoms: C_27  and  O_28
REMARK                            x       y       z     vdW  Elec       q    Type
REMARK                         _______ _______ _______ _____ _____    ______ ____
ROOT
ATOM      1  O   UNL     1     -34.158  21.810   0.771  0.00  0.00    -0.316 OA
ATOM      2  C   UNL     1     -35.128  19.111   0.922  0.00  0.00    +0.173 C 
ATOM      3  C   UNL     1     -34.114  19.560  -0.130  0.00  0.00    +0.169 C 
ATOM      4  C   UNL     1     -35.927  20.297   1.463  0.00  0.00    +0.210 C 
ATOM      5  C   UNL     1     -33.289  20.745   0.381  0.00  0.00    +0.177 C 
ATOM      6  C   UNL     1     -35.007  21.453   1.858  0.00  0.00    +0.318 C 
ENDROOT
BRANCH   2   7
ATOM      7  O   UNL     1     -36.018  18.178   0.308  0.00  0.00    -0.379 OA
ATOM      8  H   UNL     1     -36.504  18.618  -0.407  0.00  0.00    +0.211 HD
ENDBRANCH   2   7
BRANCH   3   9
ATOM      9  O   UNL     1     -33.240  18.476  -0.436  0.00  0.00    -0.379 OA
ATOM     10  H   UNL     1     -33.488  17.703   0.094  0.00  0.00    +0.211 HD
ENDBRANCH   3   9
BRANCH   4  11
ATOM     11  O   UNL     1     -36.656  19.889   2.620  0.00  0.00    -0.377 OA
ATOM     12  H   UNL     1     -37.398  20.496   2.766  0.00  0.00    +0.211 HD
ENDBRANCH   4  11
BRANCH   6  13
ATOM     13  O   UNL     1     -35.828  22.565   2.214  0.00  0.00    -0.447 OA
BRANCH  13  16
ATOM     14  O   UNL     1     -33.815  26.011   6.056  0.00  0.00    -0.421 OA
ATOM     15  O   UNL     1     -32.637  27.901   6.593  0.00  0.00    -0.244 OA
ATOM     16  C   UNL     1     -35.330  23.415   3.163  0.00  0.00    +0.175 C 
ATOM     17  C   UNL     1     -34.600  24.533   2.757  0.00  0.00    +0.043 C 
ATOM     18  C   UNL     1     -35.554  23.164   4.516  0.00  0.00    +0.171 C 
ATOM     19  C   UNL     1     -34.086  25.412   3.713  0.00  0.00    +0.038 C 
ATOM     20  C   UNL     1     -34.317  25.149   5.061  0.00  0.00    +0.152 C 
ATOM     21  C   UNL     1     -35.045  24.035   5.476  0.00  0.00    +0.077 C 
ATOM     22  C   UNL     1     -33.318  26.590   3.350  0.00  0.00    +0.010 C 
ATOM     23  C   UNL     1     -32.846  27.402   4.299  0.00  0.00    +0.082 C 
ATOM     24  C   UNL     1     -33.077  27.145   5.733  0.00  0.00    +0.346 C 
BRANCH  18  25
ATOM     25  O   UNL     1     -36.269  22.074   4.911  0.00  0.00    -0.503 OA
ATOM     26  H   UNL     1     -35.971  21.554   5.631  0.00  0.00    +0.292 HD
ENDBRANCH  18  25
ENDBRANCH  13  16
ENDBRANCH   6  13
BRANCH   5  27
ATOM     27  C   UNL     1     -32.352  21.286  -0.694  0.00  0.00    +0.169 C 
BRANCH  27  28
ATOM     28  O   UNL     1     -31.096  20.646  -0.561  0.00  0.00    -0.379 OA
ATOM     29  H   UNL     1     -31.114  19.799  -1.031  0.00  0.00    +0.211 HD
ENDBRANCH  27  28
ENDBRANCH   5  27
TORSDOF 8
ENDMDL
MODEL 6
REMARK VINA RESULT:      -6.3      2.549      3.818
REMARK  Name = 5281417
REMARK  8 active torsions:
REMARK  status: ('A' for Active; 'I' for Inactive)
REMARK    1  A    between atoms: C_2  and  O_7
REMARK    2  A    between atoms: C_3  and  O_9
REMARK    3  A    between atoms: C_4  and  O_11
REMARK    4  A    between atoms: C_5  and  C_27
REMARK    5  A    between atoms: C_6  and  O_13
REMARK    6  A    between atoms: O_13  and  C_16
REMARK    7  A    between atoms: C_18  and  O_25
REMARK    8  A    between atoms: C_27  and  O_28
REMARK                            x       y       z     vdW  Elec       q    Type
REMARK                         _______ _______ _______ _____ _____    ______ ____
ROOT
ATOM      1  O   UNL     1     -34.864  22.961   1.134  0.00  0.00    -0.316 OA
ATOM      2  C   UNL     1     -35.779  20.570   2.435  0.00  0.00    +0.173 C 
ATOM      3  C   UNL     1     -35.273  20.575   0.992  0.00  0.00    +0.169 C 
ATOM      4  C   UNL     1     -36.243  21.961   2.865  0.00  0.00    +0.210 C 
ATOM      5  C   UNL     1     -34.271  21.712   0.772  0.00  0.00    +0.177 C 
ATOM      6  C   UNL     1     -35.203  23.026   2.516  0.00  0.00    +0.318 C 
ENDROOT
BRANCH   2   7
ATOM      7  O   UNL     1     -36.875  19.657   2.515  0.00  0.00    -0.379 OA
ATOM      8  H   UNL     1     -36.609  18.877   3.026  0.00  0.00    +0.211 HD
ENDBRANCH   2   7
BRANCH   3   9
ATOM      9  O   UNL     1     -34.641  19.329   0.708  0.00  0.00    -0.379 OA
ATOM     10  H   UNL     1     -34.833  19.072  -0.207  0.00  0.00    +0.211 HD
ENDBRANCH   3   9
BRANCH   4  11
ATOM     11  O   UNL     1     -36.444  21.977   4.278  0.00  0.00    -0.377 OA
ATOM     12  H   UNL     1     -35.633  22.280   4.717  0.00  0.00    +0.211 HD
ENDBRANCH   4  11
BRANCH   6  13
ATOM     13  O   UNL     1     -35.765  24.303   2.815  0.00  0.00    -0.447 OA
BRANCH  13  16
ATOM     14  O   UNL     1     -32.818  27.594   6.158  0.00  0.00    -0.421 OA
ATOM     15  O   UNL     1     -31.146  29.135   6.442  0.00  0.00    -0.244 OA
ATOM     16  C   UNL     1     -35.037  25.115   3.641  0.00  0.00    +0.175 C 
ATOM     17  C   UNL     1     -34.023  25.904   3.096  0.00  0.00    +0.043 C 
ATOM     18  C   UNL     1     -35.309  25.151   5.008  0.00  0.00    +0.171 C 
ATOM     19  C   UNL     1     -33.271  26.740   3.925  0.00  0.00    +0.038 C 
ATOM     20  C   UNL     1     -33.554  26.765   5.288  0.00  0.00    +0.152 C 
ATOM     21  C   UNL     1     -34.564  25.981   5.842  0.00  0.00    +0.077 C 
ATOM     22  C   UNL     1     -32.204  27.583   3.415  0.00  0.00    +0.010 C 
ATOM     23  C   UNL     1     -31.511  28.365   4.245  0.00  0.00    +0.082 C 
ATOM     24  C   UNL     1     -31.791  28.409   5.693  0.00  0.00    +0.346 C 
BRANCH  18  25
ATOM     25  O   UNL     1     -36.300  24.382   5.538  0.00  0.00    -0.503 OA
ATOM     26  H   UNL     1     -36.380  24.296   6.467  0.00  0.00    +0.292 HD
ENDBRANCH  18  25
ENDBRANCH  13  16
ENDBRANCH   6  13
BRANCH   5  27
ATOM     27  C   UNL     1     -33.841  21.812  -0.688  0.00  0.00    +0.169 C 
BRANCH  27  28
ATOM     28  O   UNL     1     -34.866  21.266  -1.498  0.00  0.00    -0.379 OA
ATOM     29  H   UNL     1     -35.278  20.519  -1.038  0.00  0.00    +0.211 HD
ENDBRANCH  27  28
ENDBRANCH   5  27
TORSDOF 8
ENDMDL
MODEL 7
REMARK VINA RESULT:      -6.3      3.350      6.679
REMARK  Name = 5281417
REMARK  8 active torsions:
REMARK  status: ('A' for Active; 'I' for Inactive)
REMARK    1  A    between atoms: C_2  and  O_7
REMARK    2  A    between atoms: C_3  and  O_9
REMARK    3  A    between atoms: C_4  and  O_11
REMARK    4  A    between atoms: C_5  and  C_27
REMARK    5  A    between atoms: C_6  and  O_13
REMARK    6  A    between atoms: O_13  and  C_16
REMARK    7  A    between atoms: C_18  and  O_25
REMARK    8  A    between atoms: C_27  and  O_28
REMARK                            x       y       z     vdW  Elec       q    Type
REMARK                         _______ _______ _______ _____ _____    ______ ____
ROOT
ATOM      1  O   UNL     1     -35.676  23.413   4.139  0.00  0.00    -0.316 OA
ATOM      2  C   UNL     1     -37.386  25.469   3.089  0.00  0.00    +0.173 C 
ATOM      3  C   UNL     1     -36.351  25.742   4.181  0.00  0.00    +0.169 C 
ATOM      4  C   UNL     1     -37.766  23.989   3.044  0.00  0.00    +0.210 C 
ATOM      5  C   UNL     1     -35.185  24.754   4.083  0.00  0.00    +0.177 C 
ATOM      6  C   UNL     1     -36.525  23.096   3.039  0.00  0.00    +0.318 C 
ENDROOT
BRANCH   2   7
ATOM      7  O   UNL     1     -38.546  26.250   3.376  0.00  0.00    -0.379 OA
ATOM      8  H   UNL     1     -38.458  26.649   4.256  0.00  0.00    +0.211 HD
ENDBRANCH   2   7
BRANCH   3   9
ATOM      9  O   UNL     1     -35.855  27.071   4.039  0.00  0.00    -0.379 OA
ATOM     10  H   UNL     1     -35.287  27.285   4.795  0.00  0.00    +0.211 HD
ENDBRANCH   3   9
BRANCH   4  11
ATOM     11  O   UNL     1     -38.511  23.728   1.855  0.00  0.00    -0.377 OA
ATOM     12  H   UNL     1     -37.999  24.018   1.083  0.00  0.00    +0.211 HD
ENDBRANCH   4  11
BRANCH   6  13
ATOM     13  O   UNL     1     -36.960  21.740   3.141  0.00  0.00    -0.447 OA
BRANCH  13  16
ATOM     14  O   UNL     1     -34.916  18.189  -0.587  0.00  0.00    -0.421 OA
ATOM     15  O   UNL     1     -33.170  16.923  -1.360  0.00  0.00    -0.244 OA
ATOM     16  C   UNL     1     -36.455  20.864   2.220  0.00  0.00    +0.175 C 
ATOM     17  C   UNL     1     -35.135  20.429   2.349  0.00  0.00    +0.043 C 
ATOM     18  C   UNL     1     -37.253  20.414   1.169  0.00  0.00    +0.171 C 
ATOM     19  C   UNL     1     -34.605  19.534   1.417  0.00  0.00    +0.038 C 
ATOM     20  C   UNL     1     -35.413  19.093   0.373  0.00  0.00    +0.152 C 
ATOM     21  C   UNL     1     -36.732  19.521   0.236  0.00  0.00    +0.077 C 
ATOM     22  C   UNL     1     -33.239  19.046   1.500  0.00  0.00    +0.010 C 
ATOM     23  C   UNL     1     -32.774  18.191   0.586  0.00  0.00    +0.082 C 
ATOM     24  C   UNL     1     -33.611  17.710  -0.530  0.00  0.00    +0.346 C 
BRANCH  18  25
ATOM     25  O   UNL     1     -38.542  20.838   1.046  0.00  0.00    -0.503 OA
ATOM     26  H   UNL     1     -39.187  20.272   0.672  0.00  0.00    +0.292 HD
ENDBRANCH  18  25
ENDBRANCH  13  16
ENDBRANCH   6  13
BRANCH   5  27
ATOM     27  C   UNL     1     -34.197  24.931   5.232  0.00  0.00    +0.169 C 
BRANCH  27  28
ATOM     28  O   UNL     1     -33.315  25.989   4.910  0.00  0.00    -0.379 OA
ATOM     29  H   UNL     1     -33.663  26.820   5.266  0.00  0.00    +0.211 HD
ENDBRANCH  27  28
ENDBRANCH   5  27
TORSDOF 8
ENDMDL
MODEL 8
REMARK VINA RESULT:      -6.1      2.647      4.370
REMARK  Name = 5281417
REMARK  8 active torsions:
REMARK  status: ('A' for Active; 'I' for Inactive)
REMARK    1  A    between atoms: C_2  and  O_7
REMARK    2  A    between atoms: C_3  and  O_9
REMARK    3  A    between atoms: C_4  and  O_11
REMARK    4  A    between atoms: C_5  and  C_27
REMARK    5  A    between atoms: C_6  and  O_13
REMARK    6  A    between atoms: O_13  and  C_16
REMARK    7  A    between atoms: C_18  and  O_25
REMARK    8  A    between atoms: C_27  and  O_28
REMARK                            x       y       z     vdW  Elec       q    Type
REMARK                         _______ _______ _______ _____ _____    ______ ____
ROOT
ATOM      1  O   UNL     1     -34.686  22.685   1.023  0.00  0.00    -0.316 OA
ATOM      2  C   UNL     1     -35.840  20.573   2.591  0.00  0.00    +0.173 C 
ATOM      3  C   UNL     1     -35.228  20.330   1.211  0.00  0.00    +0.169 C 
ATOM      4  C   UNL     1     -36.249  22.036   2.765  0.00  0.00    +0.210 C 
ATOM      5  C   UNL     1     -34.145  21.368   0.906  0.00  0.00    +0.177 C 
ATOM      6  C   UNL     1     -35.123  22.982   2.346  0.00  0.00    +0.318 C 
ENDROOT
BRANCH   2   7
ATOM      7  O   UNL     1     -36.992  19.739   2.717  0.00  0.00    -0.379 OA
ATOM      8  H   UNL     1     -37.793  20.285   2.674  0.00  0.00    +0.211 HD
ENDBRANCH   2   7
BRANCH   3   9
ATOM      9  O   UNL     1     -34.654  19.025   1.173  0.00  0.00    -0.379 OA
ATOM     10  H   UNL     1     -34.775  18.645   0.289  0.00  0.00    +0.211 HD
ENDBRANCH   3   9
BRANCH   4  11
ATOM     11  O   UNL     1     -36.554  22.282   4.137  0.00  0.00    -0.377 OA
ATOM     12  H   UNL     1     -35.748  22.554   4.604  0.00  0.00    +0.211 HD
ENDBRANCH   4  11
BRANCH   6  13
ATOM     13  O   UNL     1     -35.627  24.315   2.400  0.00  0.00    -0.447 OA
BRANCH  13  16
ATOM     14  O   UNL     1     -32.310  28.127   4.671  0.00  0.00    -0.421 OA
ATOM     15  O   UNL     1     -31.346  29.051   6.533  0.00  0.00    -0.244 OA
ATOM     16  C   UNL     1     -34.808  25.258   2.961  0.00  0.00    +0.175 C 
ATOM     17  C   UNL     1     -34.633  25.266   4.345  0.00  0.00    +0.043 C 
ATOM     18  C   UNL     1     -34.160  26.192   2.155  0.00  0.00    +0.171 C 
ATOM     19  C   UNL     1     -33.799  26.221   4.934  0.00  0.00    +0.038 C 
ATOM     20  C   UNL     1     -33.158  27.149   4.117  0.00  0.00    +0.152 C 
ATOM     21  C   UNL     1     -33.327  27.148   2.733  0.00  0.00    +0.077 C 
ATOM     22  C   UNL     1     -33.578  26.280   6.368  0.00  0.00    +0.010 C 
ATOM     23  C   UNL     1     -32.773  27.210   6.886  0.00  0.00    +0.082 C 
ATOM     24  C   UNL     1     -32.083  28.204   6.042  0.00  0.00    +0.346 C 
BRANCH  18  25
ATOM     25  O   UNL     1     -34.331  26.181   0.804  0.00  0.00    -0.503 OA
ATOM     26  H   UNL     1     -35.193  26.134   0.441  0.00  0.00    +0.292 HD
ENDBRANCH  18  25
ENDBRANCH  13  16
ENDBRANCH   6  13
BRANCH   5  27
ATOM     27  C   UNL     1     -33.602  21.217  -0.512  0.00  0.00    +0.169 C 
BRANCH  27  28
ATOM     28  O   UNL     1     -34.619  20.666  -1.328  0.00  0.00    -0.379 OA
ATOM     29  H   UNL     1     -35.372  21.275  -1.363  0.00  0.00    +0.211 HD
ENDBRANCH  27  28
ENDBRANCH   5  27
TORSDOF 8
ENDMDL
MODEL 9
REMARK VINA RESULT:      -6.1      4.004      6.366
REMARK  Name = 5281417
REMARK  8 active torsions:
REMARK  status: ('A' for Active; 'I' for Inactive)
REMARK    1  A    between atoms: C_2  and  O_7
REMARK    2  A    between atoms: C_3  and  O_9
REMARK    3  A    between atoms: C_4  and  O_11
REMARK    4  A    between atoms: C_5  and  C_27
REMARK    5  A    between atoms: C_6  and  O_13
REMARK    6  A    between atoms: O_13  and  C_16
REMARK    7  A    between atoms: C_18  and  O_25
REMARK    8  A    between atoms: C_27  and  O_28
REMARK                            x       y       z     vdW  Elec       q    Type
REMARK                         _______ _______ _______ _____ _____    ______ ____
ROOT
ATOM      1  O   UNL     1     -35.739  23.290   3.275  0.00  0.00    -0.316 OA
ATOM      2  C   UNL     1     -37.002  25.850   2.958  0.00  0.00    +0.173 C 
ATOM      3  C   UNL     1     -36.810  25.195   4.326  0.00  0.00    +0.169 C 
ATOM      4  C   UNL     1     -36.970  24.811   1.837  0.00  0.00    +0.210 C 
ATOM      5  C   UNL     1     -35.597  24.260   4.315  0.00  0.00    +0.177 C 
ATOM      6  C   UNL     1     -35.766  23.879   1.978  0.00  0.00    +0.318 C 
ENDROOT
BRANCH   2   7
ATOM      7  O   UNL     1     -38.269  26.510   2.958  0.00  0.00    -0.379 OA
ATOM      8  H   UNL     1     -38.564  26.642   3.873  0.00  0.00    +0.211 HD
ENDBRANCH   2   7
BRANCH   3   9
ATOM      9  O   UNL     1     -36.616  26.207   5.311  0.00  0.00    -0.379 OA
ATOM     10  H   UNL     1     -36.076  25.853   6.034  0.00  0.00    +0.211 HD
ENDBRANCH   3   9
BRANCH   4  11
ATOM     11  O   UNL     1     -36.875  25.477   0.577  0.00  0.00    -0.377 OA
ATOM     12  H   UNL     1     -35.949  25.702   0.399  0.00  0.00    +0.211 HD
ENDBRANCH   4  11
BRANCH   6  13
ATOM     13  O   UNL     1     -35.884  22.858   0.988  0.00  0.00    -0.447 OA
BRANCH  13  16
ATOM     14  O   UNL     1     -31.312  19.930  -0.117  0.00  0.00    -0.421 OA
ATOM     15  O   UNL     1     -30.090  18.008   0.126  0.00  0.00    -0.244 OA
ATOM     16  C   UNL     1     -34.754  22.135   0.716  0.00  0.00    +0.175 C 
ATOM     17  C   UNL     1     -34.624  20.853   1.250  0.00  0.00    +0.043 C 
ATOM     18  C   UNL     1     -33.751  22.677  -0.087  0.00  0.00    +0.171 C 
ATOM     19  C   UNL     1     -33.478  20.101   0.981  0.00  0.00    +0.038 C 
ATOM     20  C   UNL     1     -32.483  20.656   0.178  0.00  0.00    +0.152 C 
ATOM     21  C   UNL     1     -32.605  21.935  -0.360  0.00  0.00    +0.077 C 
ATOM     22  C   UNL     1     -33.286  18.762   1.509  0.00  0.00    +0.010 C 
ATOM     23  C   UNL     1     -32.173  18.081   1.226  0.00  0.00    +0.082 C 
ATOM     24  C   UNL     1     -31.106  18.647   0.379  0.00  0.00    +0.346 C 
BRANCH  18  25
ATOM     25  O   UNL     1     -33.881  23.929  -0.609  0.00  0.00    -0.503 OA
ATOM     26  H   UNL     1     -33.119  24.418  -0.848  0.00  0.00    +0.292 HD
ENDBRANCH  18  25
ENDBRANCH  13  16
ENDBRANCH   6  13
BRANCH   5  27
ATOM     27  C   UNL     1     -35.454  23.505   5.633  0.00  0.00    +0.169 C 
BRANCH  27  28
ATOM     28  O   UNL     1     -36.258  22.342   5.575  0.00  0.00    -0.379 OA
ATOM     29  H   UNL     1     -35.698  21.571   5.396  0.00  0.00    +0.211 HD
ENDBRANCH  27  28
ENDBRANCH   5  27
TORSDOF 8
ENDMDL
