MODEL 1
REMARK VINA RESULT:      -6.2      0.000      0.000
REMARK  Name = 194403
REMARK  6 active torsions:
REMARK  status: ('A' for Active; 'I' for Inactive)
REMARK    1  A    between atoms: C_5  and  O_18
REMARK    2  A    between atoms: C_7  and  O_26
REMARK    3  A    between atoms: C_14  and  O_20
REMARK    4  A    between atoms: C_15  and  O_22
REMARK    5  A    between atoms: C_16  and  O_24
REMARK    6  A    between atoms: O_26  and  C_27
REMARK                            x       y       z     vdW  Elec       q    Type
REMARK                         _______ _______ _______ _____ _____    ______ ____
ROOT
ATOM      1  O   UNL     1     -40.273  21.647   1.083  0.00  0.00    -0.331 OA
ATOM      2  O   UNL     1     -37.829  25.307   1.486  0.00  0.00    -0.291 OA
ATOM      3  O   UNL     1     -36.225  20.320   2.603  0.00  0.00    -0.289 OA
ATOM      4  C   UNL     1     -37.730  23.013   0.740  0.00  0.00    +0.101 C 
ATOM      5  C   UNL     1     -37.849  21.642   1.405  0.00  0.00    +0.177 C 
ATOM      6  C   UNL     1     -38.952  23.272  -0.162  0.00  0.00    +0.067 C 
ATOM      7  C   UNL     1     -40.286  22.971   0.542  0.00  0.00    +0.188 C 
ATOM      8  C   UNL     1     -39.228  21.422   2.030  0.00  0.00    +0.179 C 
ATOM      9  C   UNL     1     -37.505  24.148   1.734  0.00  0.00    +0.179 C 
ATOM     10  C   UNL     1     -36.774  21.408   2.451  0.00  0.00    +0.203 C 
ATOM     11  C   UNL     1     -36.801  23.845   3.002  0.00  0.00    +0.077 C 
ATOM     12  C   UNL     1     -36.427  22.541   3.332  0.00  0.00    +0.077 C 
ATOM     13  C   UNL     1     -41.431  23.034  -0.472  0.00  0.00    +0.061 C 
ATOM     14  C   UNL     1     -36.482  24.897   3.871  0.00  0.00    +0.171 C 
ATOM     15  C   UNL     1     -35.724  22.291   4.518  0.00  0.00    +0.140 C 
ATOM     16  C   UNL     1     -35.787  24.643   5.055  0.00  0.00    +0.175 C 
ATOM     17  C   UNL     1     -35.408  23.343   5.377  0.00  0.00    +0.077 C 
ENDROOT
BRANCH   5  18
ATOM     18  O   UNL     1     -37.672  20.627   0.413  0.00  0.00    -0.377 OA
ATOM     19  H   UNL     1     -38.538  20.286   0.141  0.00  0.00    +0.211 HD
ENDBRANCH   5  18
BRANCH  14  20
ATOM     20  O   UNL     1     -36.821  26.193   3.608  0.00  0.00    -0.503 OA
ATOM     21  H   UNL     1     -36.171  26.866   3.656  0.00  0.00    +0.292 HD
ENDBRANCH  14  20
BRANCH  15  22
ATOM     22  O   UNL     1     -35.345  21.038   4.900  0.00  0.00    -0.505 OA
ATOM     23  H   UNL     1     -34.597  20.634   4.505  0.00  0.00    +0.292 HD
ENDBRANCH  15  22
BRANCH  16  24
ATOM     24  O   UNL     1     -35.471  25.658   5.909  0.00  0.00    -0.468 OA
ATOM     25  C   UNL     1     -34.129  26.139   5.873  0.00  0.00    +0.253 C 
ENDBRANCH  16  24
BRANCH   7  26
ATOM     26  O   UNL     1     -40.524  23.956   1.548  0.00  0.00    -0.334 OA
BRANCH  26  27
ATOM     27  C   UNL     1     -41.358  24.997   1.064  0.00  0.00    +0.145 C 
ATOM     28  C   UNL     1     -41.303  26.162   2.029  0.00  0.00    +0.035 C 
ENDBRANCH  26  27
ENDBRANCH   7  26
TORSDOF 6
ENDMDL
MODEL 2
REMARK VINA RESULT:      -5.9      3.221      6.109
REMARK  Name = 194403
REMARK  6 active torsions:
REMARK  status: ('A' for Active; 'I' for Inactive)
REMARK    1  A    between atoms: C_5  and  O_18
REMARK    2  A    between atoms: C_7  and  O_26
REMARK    3  A    between atoms: C_14  and  O_20
REMARK    4  A    between atoms: C_15  and  O_22
REMARK    5  A    between atoms: C_16  and  O_24
REMARK    6  A    between atoms: O_26  and  C_27
REMARK                            x       y       z     vdW  Elec       q    Type
REMARK                         _______ _______ _______ _____ _____    ______ ____
ROOT
ATOM      1  O   UNL     1     -33.917  27.040   4.439  0.00  0.00    -0.331 OA
ATOM      2  O   UNL     1     -35.797  25.110   0.935  0.00  0.00    -0.291 OA
ATOM      3  O   UNL     1     -36.083  23.389   6.000  0.00  0.00    -0.289 OA
ATOM      4  C   UNL     1     -36.203  25.704   3.240  0.00  0.00    +0.101 C 
ATOM      5  C   UNL     1     -35.622  25.294   4.593  0.00  0.00    +0.177 C 
ATOM      6  C   UNL     1     -35.815  27.159   2.916  0.00  0.00    +0.067 C 
ATOM      7  C   UNL     1     -34.316  27.436   3.123  0.00  0.00    +0.188 C 
ATOM      8  C   UNL     1     -34.140  25.658   4.718  0.00  0.00    +0.179 C 
ATOM      9  C   UNL     1     -35.832  24.750   2.110  0.00  0.00    +0.179 C 
ATOM     10  C   UNL     1     -35.808  23.815   4.881  0.00  0.00    +0.203 C 
ATOM     11  C   UNL     1     -35.587  23.326   2.441  0.00  0.00    +0.077 C 
ATOM     12  C   UNL     1     -35.602  22.874   3.762  0.00  0.00    +0.077 C 
ATOM     13  C   UNL     1     -34.046  28.937   3.000  0.00  0.00    +0.061 C 
ATOM     14  C   UNL     1     -35.361  22.415   1.400  0.00  0.00    +0.171 C 
ATOM     15  C   UNL     1     -35.408  21.516   4.041  0.00  0.00    +0.140 C 
ATOM     16  C   UNL     1     -35.162  21.063   1.683  0.00  0.00    +0.175 C 
ATOM     17  C   UNL     1     -35.188  20.614   3.001  0.00  0.00    +0.077 C 
ENDROOT
BRANCH   5  18
ATOM     18  O   UNL     1     -36.313  25.995   5.629  0.00  0.00    -0.377 OA
ATOM     19  H   UNL     1     -36.169  26.948   5.527  0.00  0.00    +0.211 HD
ENDBRANCH   5  18
BRANCH  14  20
ATOM     20  O   UNL     1     -35.331  22.793   0.089  0.00  0.00    -0.503 OA
ATOM     21  H   UNL     1     -34.515  23.008  -0.318  0.00  0.00    +0.292 HD
ENDBRANCH  14  20
BRANCH  15  22
ATOM     22  O   UNL     1     -35.399  21.017   5.310  0.00  0.00    -0.505 OA
ATOM     23  H   UNL     1     -36.167  20.610   5.659  0.00  0.00    +0.292 HD
ENDBRANCH  15  22
BRANCH  16  24
ATOM     24  O   UNL     1     -34.942  20.166   0.680  0.00  0.00    -0.468 OA
ATOM     25  C   UNL     1     -34.003  19.125   0.938  0.00  0.00    +0.253 C 
ENDBRANCH  16  24
BRANCH   7  26
ATOM     26  O   UNL     1     -33.565  26.761   2.113  0.00  0.00    -0.334 OA
BRANCH  26  27
ATOM     27  C   UNL     1     -32.380  27.470   1.791  0.00  0.00    +0.145 C 
ATOM     28  C   UNL     1     -31.182  26.626   2.169  0.00  0.00    +0.035 C 
ENDBRANCH  26  27
ENDBRANCH   7  26
TORSDOF 6
ENDMDL
MODEL 3
REMARK VINA RESULT:      -5.7      1.988      6.205
REMARK  Name = 194403
REMARK  6 active torsions:
REMARK  status: ('A' for Active; 'I' for Inactive)
REMARK    1  A    between atoms: C_5  and  O_18
REMARK    2  A    between atoms: C_7  and  O_26
REMARK    3  A    between atoms: C_14  and  O_20
REMARK    4  A    between atoms: C_15  and  O_22
REMARK    5  A    between atoms: C_16  and  O_24
REMARK    6  A    between atoms: O_26  and  C_27
REMARK                            x       y       z     vdW  Elec       q    Type
REMARK                         _______ _______ _______ _____ _____    ______ ____
ROOT
ATOM      1  O   UNL     1     -37.873  24.700   3.925  0.00  0.00    -0.331 OA
ATOM      2  O   UNL     1     -34.949  21.846   2.239  0.00  0.00    -0.291 OA
ATOM      3  O   UNL     1     -39.249  23.799  -0.289  0.00  0.00    -0.289 OA
ATOM      4  C   UNL     1     -36.238  23.813   1.692  0.00  0.00    +0.101 C 
ATOM      5  C   UNL     1     -37.723  24.142   1.549  0.00  0.00    +0.177 C 
ATOM      6  C   UNL     1     -35.656  24.519   2.931  0.00  0.00    +0.067 C 
ATOM      7  C   UNL     1     -36.519  24.320   4.189  0.00  0.00    +0.188 C 
ATOM      8  C   UNL     1     -38.483  23.962   2.866  0.00  0.00    +0.179 C 
ATOM      9  C   UNL     1     -35.949  22.315   1.700  0.00  0.00    +0.179 C 
ATOM     10  C   UNL     1     -38.397  23.327   0.459  0.00  0.00    +0.203 C 
ATOM     11  C   UNL     1     -36.867  21.417   0.962  0.00  0.00    +0.077 C 
ATOM     12  C   UNL     1     -38.022  21.903   0.346  0.00  0.00    +0.077 C 
ATOM     13  C   UNL     1     -36.008  25.222   5.314  0.00  0.00    +0.061 C 
ATOM     14  C   UNL     1     -36.551  20.055   0.862  0.00  0.00    +0.171 C 
ATOM     15  C   UNL     1     -38.848  21.037  -0.380  0.00  0.00    +0.140 C 
ATOM     16  C   UNL     1     -37.380  19.193   0.142  0.00  0.00    +0.175 C 
ATOM     17  C   UNL     1     -38.526  19.683  -0.479  0.00  0.00    +0.077 C 
ENDROOT
BRANCH   5  18
ATOM     18  O   UNL     1     -37.863  25.513   1.170  0.00  0.00    -0.377 OA
ATOM     19  H   UNL     1     -37.002  25.954   1.228  0.00  0.00    +0.211 HD
ENDBRANCH   5  18
BRANCH  14  20
ATOM     20  O   UNL     1     -35.439  19.516   1.443  0.00  0.00    -0.503 OA
ATOM     21  H   UNL     1     -34.589  19.719   1.104  0.00  0.00    +0.292 HD
ENDBRANCH  14  20
BRANCH  15  22
ATOM     22  O   UNL     1     -39.995  21.450  -0.991  0.00  0.00    -0.505 OA
ATOM     23  H   UNL     1     -40.285  22.336  -0.893  0.00  0.00    +0.292 HD
ENDBRANCH  15  22
BRANCH  16  24
ATOM     24  O   UNL     1     -37.083  17.867   0.036  0.00  0.00    -0.468 OA
ATOM     25  C   UNL     1     -38.097  17.018  -0.498  0.00  0.00    +0.253 C 
ENDBRANCH  16  24
BRANCH   7  26
ATOM     26  O   UNL     1     -36.421  22.963   4.623  0.00  0.00    -0.334 OA
BRANCH  26  27
ATOM     27  C   UNL     1     -35.636  22.853   5.799  0.00  0.00    +0.145 C 
ATOM     28  C   UNL     1     -35.016  21.473   5.852  0.00  0.00    +0.035 C 
ENDBRANCH  26  27
ENDBRANCH   7  26
TORSDOF 6
ENDMDL
MODEL 4
REMARK VINA RESULT:      -5.6      3.830      7.811
REMARK  Name = 194403
REMARK  6 active torsions:
REMARK  status: ('A' for Active; 'I' for Inactive)
REMARK    1  A    between atoms: C_5  and  O_18
REMARK    2  A    between atoms: C_7  and  O_26
REMARK    3  A    between atoms: C_14  and  O_20
REMARK    4  A    between atoms: C_15  and  O_22
REMARK    5  A    between atoms: C_16  and  O_24
REMARK    6  A    between atoms: O_26  and  C_27
REMARK                            x       y       z     vdW  Elec       q    Type
REMARK                         _______ _______ _______ _____ _____    ______ ____
ROOT
ATOM      1  O   UNL     1     -34.046  31.129   3.124  0.00  0.00    -0.331 OA
ATOM      2  O   UNL     1     -32.444  27.084   3.906  0.00  0.00    -0.291 OA
ATOM      3  O   UNL     1     -36.895  28.222   1.151  0.00  0.00    -0.289 OA
ATOM      4  C   UNL     1     -33.449  28.445   2.182  0.00  0.00    +0.101 C 
ATOM      5  C   UNL     1     -34.807  29.112   1.970  0.00  0.00    +0.177 C 
ATOM      6  C   UNL     1     -32.365  29.513   2.418  0.00  0.00    +0.067 C 
ATOM      7  C   UNL     1     -32.778  30.560   3.466  0.00  0.00    +0.188 C 
ATOM      8  C   UNL     1     -35.101  30.172   3.034  0.00  0.00    +0.179 C 
ATOM      9  C   UNL     1     -33.460  27.391   3.286  0.00  0.00    +0.179 C 
ATOM     10  C   UNL     1     -35.946  28.109   1.923  0.00  0.00    +0.203 C 
ATOM     11  C   UNL     1     -34.723  26.665   3.554  0.00  0.00    +0.077 C 
ATOM     12  C   UNL     1     -35.904  26.989   2.884  0.00  0.00    +0.077 C 
ATOM     13  C   UNL     1     -31.761  31.703   3.485  0.00  0.00    +0.061 C 
ATOM     14  C   UNL     1     -34.719  25.614   4.481  0.00  0.00    +0.171 C 
ATOM     15  C   UNL     1     -37.073  26.256   3.127  0.00  0.00    +0.140 C 
ATOM     16  C   UNL     1     -35.888  24.890   4.726  0.00  0.00    +0.175 C 
ATOM     17  C   UNL     1     -37.062  25.210   4.049  0.00  0.00    +0.077 C 
ENDROOT
BRANCH   5  18
ATOM     18  O   UNL     1     -34.806  29.779   0.705  0.00  0.00    -0.377 OA
ATOM     19  H   UNL     1     -34.282  30.592   0.768  0.00  0.00    +0.211 HD
ENDBRANCH   5  18
BRANCH  14  20
ATOM     20  O   UNL     1     -33.599  25.249   5.171  0.00  0.00    -0.503 OA
ATOM     21  H   UNL     1     -33.428  25.618   6.015  0.00  0.00    +0.292 HD
ENDBRANCH  14  20
BRANCH  15  22
ATOM     22  O   UNL     1     -38.259  26.534   2.515  0.00  0.00    -0.505 OA
ATOM     23  H   UNL     1     -38.649  25.903   1.942  0.00  0.00    +0.292 HD
ENDBRANCH  15  22
BRANCH  16  24
ATOM     24  O   UNL     1     -35.897  23.866   5.625  0.00  0.00    -0.468 OA
ATOM     25  C   UNL     1     -35.660  22.555   5.115  0.00  0.00    +0.253 C 
ENDBRANCH  16  24
BRANCH   7  26
ATOM     26  O   UNL     1     -32.796  29.955   4.759  0.00  0.00    -0.334 OA
BRANCH  26  27
ATOM     27  C   UNL     1     -31.529  30.048   5.390  0.00  0.00    +0.145 C 
ATOM     28  C   UNL     1     -31.660  29.593   6.828  0.00  0.00    +0.035 C 
ENDBRANCH  26  27
ENDBRANCH   7  26
TORSDOF 6
ENDMDL
MODEL 5
REMARK VINA RESULT:      -5.6      1.958      5.496
REMARK  Name = 194403
REMARK  6 active torsions:
REMARK  status: ('A' for Active; 'I' for Inactive)
REMARK    1  A    between atoms: C_5  and  O_18
REMARK    2  A    between atoms: C_7  and  O_26
REMARK    3  A    between atoms: C_14  and  O_20
REMARK    4  A    between atoms: C_15  and  O_22
REMARK    5  A    between atoms: C_16  and  O_24
REMARK    6  A    between atoms: O_26  and  C_27
REMARK                            x       y       z     vdW  Elec       q    Type
REMARK                         _______ _______ _______ _____ _____    ______ ____
ROOT
ATOM      1  O   UNL     1     -33.801  25.417   3.145  0.00  0.00    -0.331 OA
ATOM      2  O   UNL     1     -38.174  25.960   3.484  0.00  0.00    -0.291 OA
ATOM      3  O   UNL     1     -35.542  21.317   3.932  0.00  0.00    -0.289 OA
ATOM      4  C   UNL     1     -36.308  24.796   4.479  0.00  0.00    +0.101 C 
ATOM      5  C   UNL     1     -35.324  23.718   4.024  0.00  0.00    +0.177 C 
ATOM      6  C   UNL     1     -35.578  26.142   4.646  0.00  0.00    +0.067 C 
ATOM      7  C   UNL     1     -34.696  26.495   3.436  0.00  0.00    +0.188 C 
ATOM      8  C   UNL     1     -34.460  24.185   2.851  0.00  0.00    +0.179 C 
ATOM      9  C   UNL     1     -37.530  24.918   3.575  0.00  0.00    +0.179 C 
ATOM     10  C   UNL     1     -36.016  22.416   3.659  0.00  0.00    +0.203 C 
ATOM     11  C   UNL     1     -37.994  23.712   2.850  0.00  0.00    +0.077 C 
ATOM     12  C   UNL     1     -37.286  22.509   2.912  0.00  0.00    +0.077 C 
ATOM     13  C   UNL     1     -33.838  27.719   3.761  0.00  0.00    +0.061 C 
ATOM     14  C   UNL     1     -39.182  23.777   2.109  0.00  0.00    +0.171 C 
ATOM     15  C   UNL     1     -37.771  21.374   2.250  0.00  0.00    +0.140 C 
ATOM     16  C   UNL     1     -39.659  22.646   1.446  0.00  0.00    +0.175 C 
ATOM     17  C   UNL     1     -38.956  21.446   1.518  0.00  0.00    +0.077 C 
ENDROOT
BRANCH   5  18
ATOM     18  O   UNL     1     -34.436  23.412   5.102  0.00  0.00    -0.377 OA
ATOM     19  H   UNL     1     -34.139  24.235   5.520  0.00  0.00    +0.211 HD
ENDBRANCH   5  18
BRANCH  14  20
ATOM     20  O   UNL     1     -39.918  24.922   2.006  0.00  0.00    -0.503 OA
ATOM     21  H   UNL     1     -40.291  25.309   2.774  0.00  0.00    +0.292 HD
ENDBRANCH  14  20
BRANCH  15  22
ATOM     22  O   UNL     1     -37.118  20.177   2.262  0.00  0.00    -0.505 OA
ATOM     23  H   UNL     1     -36.181  20.155   2.238  0.00  0.00    +0.292 HD
ENDBRANCH  15  22
BRANCH  16  24
ATOM     24  O   UNL     1     -40.813  22.697   0.723  0.00  0.00    -0.468 OA
ATOM     25  C   UNL     1     -40.686  22.849  -0.689  0.00  0.00    +0.253 C 
ENDBRANCH  16  24
BRANCH   7  26
ATOM     26  O   UNL     1     -35.527  26.814   2.319  0.00  0.00    -0.334 OA
BRANCH  26  27
ATOM     27  C   UNL     1     -35.562  28.213   2.086  0.00  0.00    +0.145 C 
ATOM     28  C   UNL     1     -36.652  28.518   1.081  0.00  0.00    +0.035 C 
ENDBRANCH  26  27
ENDBRANCH   7  26
TORSDOF 6
ENDMDL
MODEL 6
REMARK VINA RESULT:      -5.6      2.117      4.507
REMARK  Name = 194403
REMARK  6 active torsions:
REMARK  status: ('A' for Active; 'I' for Inactive)
REMARK    1  A    between atoms: C_5  and  O_18
REMARK    2  A    between atoms: C_7  and  O_26
REMARK    3  A    between atoms: C_14  and  O_20
REMARK    4  A    between atoms: C_15  and  O_22
REMARK    5  A    between atoms: C_16  and  O_24
REMARK    6  A    between atoms: O_26  and  C_27
REMARK                            x       y       z     vdW  Elec       q    Type
REMARK                         _______ _______ _______ _____ _____    ______ ____
ROOT
ATOM      1  O   UNL     1     -37.588  23.032   0.157  0.00  0.00    -0.331 OA
ATOM      2  O   UNL     1     -36.589  22.985   4.462  0.00  0.00    -0.291 OA
ATOM      3  O   UNL     1     -37.702  27.337   1.543  0.00  0.00    -0.289 OA
ATOM      4  C   UNL     1     -38.077  24.000   2.853  0.00  0.00    +0.101 C 
ATOM      5  C   UNL     1     -37.916  24.936   1.656  0.00  0.00    +0.177 C 
ATOM      6  C   UNL     1     -38.492  22.596   2.377  0.00  0.00    +0.067 C 
ATOM      7  C   UNL     1     -37.618  22.077   1.221  0.00  0.00    +0.188 C 
ATOM      8  C   UNL     1     -37.075  24.308   0.542  0.00  0.00    +0.179 C 
ATOM      9  C   UNL     1     -36.846  23.956   3.753  0.00  0.00    +0.179 C 
ATOM     10  C   UNL     1     -37.325  26.280   2.043  0.00  0.00    +0.203 C 
ATOM     11  C   UNL     1     -35.984  25.159   3.828  0.00  0.00    +0.077 C 
ATOM     12  C   UNL     1     -36.228  26.279   3.031  0.00  0.00    +0.077 C 
ATOM     13  C   UNL     1     -38.221  20.789   0.656  0.00  0.00    +0.061 C 
ATOM     14  C   UNL     1     -34.918  25.177   4.738  0.00  0.00    +0.171 C 
ATOM     15  C   UNL     1     -35.422  27.417   3.154  0.00  0.00    +0.140 C 
ATOM     16  C   UNL     1     -34.112  26.311   4.853  0.00  0.00    +0.175 C 
ATOM     17  C   UNL     1     -34.365  27.430   4.064  0.00  0.00    +0.077 C 
ENDROOT
BRANCH   5  18
ATOM     18  O   UNL     1     -39.206  25.209   1.102  0.00  0.00    -0.377 OA
ATOM     19  H   UNL     1     -39.351  24.646   0.326  0.00  0.00    +0.211 HD
ENDBRANCH   5  18
BRANCH  14  20
ATOM     20  O   UNL     1     -34.624  24.114   5.543  0.00  0.00    -0.503 OA
ATOM     21  H   UNL     1     -33.937  24.182   6.176  0.00  0.00    +0.292 HD
ENDBRANCH  14  20
BRANCH  15  22
ATOM     22  O   UNL     1     -35.603  28.536   2.394  0.00  0.00    -0.505 OA
ATOM     23  H   UNL     1     -36.136  28.497   1.624  0.00  0.00    +0.292 HD
ENDBRANCH  15  22
BRANCH  16  24
ATOM     24  O   UNL     1     -33.073  26.340   5.734  0.00  0.00    -0.468 OA
ATOM     25  C   UNL     1     -32.484  27.612   5.997  0.00  0.00    +0.253 C 
ENDBRANCH  16  24
BRANCH   7  26
ATOM     26  O   UNL     1     -36.310  21.782   1.711  0.00  0.00    -0.334 OA
BRANCH  26  27
ATOM     27  C   UNL     1     -36.179  20.407   2.036  0.00  0.00    +0.145 C 
ATOM     28  C   UNL     1     -34.758  19.968   1.756  0.00  0.00    +0.035 C 
ENDBRANCH  26  27
ENDBRANCH   7  26
TORSDOF 6
ENDMDL
MODEL 7
REMARK VINA RESULT:      -5.6      3.313      5.698
REMARK  Name = 194403
REMARK  6 active torsions:
REMARK  status: ('A' for Active; 'I' for Inactive)
REMARK    1  A    between atoms: C_5  and  O_18
REMARK    2  A    between atoms: C_7  and  O_26
REMARK    3  A    between atoms: C_14  and  O_20
REMARK    4  A    between atoms: C_15  and  O_22
REMARK    5  A    between atoms: C_16  and  O_24
REMARK    6  A    between atoms: O_26  and  C_27
REMARK                            x       y       z     vdW  Elec       q    Type
REMARK                         _______ _______ _______ _____ _____    ______ ____
ROOT
ATOM      1  O   UNL     1     -35.972  23.545   5.035  0.00  0.00    -0.331 OA
ATOM      2  O   UNL     1     -34.375  24.875   1.134  0.00  0.00    -0.291 OA
ATOM      3  O   UNL     1     -36.626  20.122   2.152  0.00  0.00    -0.289 OA
ATOM      4  C   UNL     1     -36.230  23.704   2.144  0.00  0.00    +0.101 C 
ATOM      5  C   UNL     1     -36.406  22.399   2.919  0.00  0.00    +0.177 C 
ATOM      6  C   UNL     1     -36.460  24.909   3.075  0.00  0.00    +0.067 C 
ATOM      7  C   UNL     1     -35.685  24.795   4.399  0.00  0.00    +0.188 C 
ATOM      8  C   UNL     1     -35.637  22.406   4.242  0.00  0.00    +0.179 C 
ATOM      9  C   UNL     1     -34.894  23.796   1.414  0.00  0.00    +0.179 C 
ATOM     10  C   UNL     1     -36.006  21.181   2.106  0.00  0.00    +0.203 C 
ATOM     11  C   UNL     1     -34.250  22.541   0.961  0.00  0.00    +0.077 C 
ATOM     12  C   UNL     1     -34.796  21.292   1.268  0.00  0.00    +0.077 C 
ATOM     13  C   UNL     1     -36.131  25.902   5.357  0.00  0.00    +0.061 C 
ATOM     14  C   UNL     1     -33.084  22.615   0.186  0.00  0.00    +0.171 C 
ATOM     15  C   UNL     1     -34.188  20.125   0.790  0.00  0.00    +0.140 C 
ATOM     16  C   UNL     1     -32.478  21.448  -0.282  0.00  0.00    +0.175 C 
ATOM     17  C   UNL     1     -33.030  20.206   0.017  0.00  0.00    +0.077 C 
ENDROOT
BRANCH   5  18
ATOM     18  O   UNL     1     -37.789  22.231   3.240  0.00  0.00    -0.377 OA
ATOM     19  H   UNL     1     -37.897  21.453   3.809  0.00  0.00    +0.211 HD
ENDBRANCH   5  18
BRANCH  14  20
ATOM     20  O   UNL     1     -32.500  23.803  -0.146  0.00  0.00    -0.503 OA
ATOM     21  H   UNL     1     -32.059  24.307   0.509  0.00  0.00    +0.292 HD
ENDBRANCH  14  20
BRANCH  15  22
ATOM     22  O   UNL     1     -34.666  18.877   1.068  0.00  0.00    -0.505 OA
ATOM     23  H   UNL     1     -34.832  18.627   1.956  0.00  0.00    +0.292 HD
ENDBRANCH  15  22
BRANCH  16  24
ATOM     24  O   UNL     1     -31.344  21.507  -1.037  0.00  0.00    -0.468 OA
ATOM     25  C   UNL     1     -30.322  20.557  -0.743  0.00  0.00    +0.253 C 
ENDBRANCH  16  24
BRANCH   7  26
ATOM     26  O   UNL     1     -34.289  24.957   4.147  0.00  0.00    -0.334 OA
BRANCH  26  27
ATOM     27  C   UNL     1     -33.811  26.190   4.660  0.00  0.00    +0.145 C 
ATOM     28  C   UNL     1     -33.039  26.910   3.576  0.00  0.00    +0.035 C 
ENDBRANCH  26  27
ENDBRANCH   7  26
TORSDOF 6
ENDMDL
MODEL 8
REMARK VINA RESULT:      -5.5      2.730      5.687
REMARK  Name = 194403
REMARK  6 active torsions:
REMARK  status: ('A' for Active; 'I' for Inactive)
REMARK    1  A    between atoms: C_5  and  O_18
REMARK    2  A    between atoms: C_7  and  O_26
REMARK    3  A    between atoms: C_14  and  O_20
REMARK    4  A    between atoms: C_15  and  O_22
REMARK    5  A    between atoms: C_16  and  O_24
REMARK    6  A    between atoms: O_26  and  C_27
REMARK                            x       y       z     vdW  Elec       q    Type
REMARK                         _______ _______ _______ _____ _____    ______ ____
ROOT
ATOM      1  O   UNL     1     -36.523  24.095   1.473  0.00  0.00    -0.331 OA
ATOM      2  O   UNL     1     -35.473  25.222   5.616  0.00  0.00    -0.291 OA
ATOM      3  O   UNL     1     -35.731  28.548   1.425  0.00  0.00    -0.289 OA
ATOM      4  C   UNL     1     -36.753  25.947   3.701  0.00  0.00    +0.101 C 
ATOM      5  C   UNL     1     -36.428  26.402   2.279  0.00  0.00    +0.177 C 
ATOM      6  C   UNL     1     -37.455  24.577   3.673  0.00  0.00    +0.067 C 
ATOM      7  C   UNL     1     -36.728  23.554   2.782  0.00  0.00    +0.188 C 
ATOM      8  C   UNL     1     -35.754  25.298   1.461  0.00  0.00    +0.179 C 
ATOM      9  C   UNL     1     -35.540  25.947   4.626  0.00  0.00    +0.179 C 
ATOM     10  C   UNL     1     -35.568  27.653   2.250  0.00  0.00    +0.203 C 
ATOM     11  C   UNL     1     -34.449  26.914   4.358  0.00  0.00    +0.077 C 
ATOM     12  C   UNL     1     -34.476  27.748   3.239  0.00  0.00    +0.077 C 
ATOM     13  C   UNL     1     -37.591  22.301   2.624  0.00  0.00    +0.061 C 
ATOM     14  C   UNL     1     -33.385  27.008   5.265  0.00  0.00    +0.171 C 
ATOM     15  C   UNL     1     -33.452  28.681   3.034  0.00  0.00    +0.140 C 
ATOM     16  C   UNL     1     -32.363  27.935   5.055  0.00  0.00    +0.175 C 
ATOM     17  C   UNL     1     -32.397  28.771   3.942  0.00  0.00    +0.077 C 
ENDROOT
BRANCH   5  18
ATOM     18  O   UNL     1     -37.646  26.736   1.607  0.00  0.00    -0.377 OA
ATOM     19  H   UNL     1     -37.457  27.352   0.883  0.00  0.00    +0.211 HD
ENDBRANCH   5  18
BRANCH  14  20
ATOM     20  O   UNL     1     -33.299  26.220   6.377  0.00  0.00    -0.503 OA
ATOM     21  H   UNL     1     -32.463  25.916   6.671  0.00  0.00    +0.292 HD
ENDBRANCH  14  20
BRANCH  15  22
ATOM     22  O   UNL     1     -33.416  29.512   1.953  0.00  0.00    -0.505 OA
ATOM     23  H   UNL     1     -32.806  29.352   1.259  0.00  0.00    +0.292 HD
ENDBRANCH  15  22
BRANCH  16  24
ATOM     24  O   UNL     1     -31.323  28.036   5.930  0.00  0.00    -0.468 OA
ATOM     25  C   UNL     1     -31.218  29.248   6.673  0.00  0.00    +0.253 C 
ENDBRANCH  16  24
BRANCH   7  26
ATOM     26  O   UNL     1     -35.498  23.176   3.401  0.00  0.00    -0.334 OA
BRANCH  26  27
ATOM     27  C   UNL     1     -35.563  21.855   3.914  0.00  0.00    +0.145 C 
ATOM     28  C   UNL     1     -35.187  21.875   5.380  0.00  0.00    +0.035 C 
ENDBRANCH  26  27
ENDBRANCH   7  26
TORSDOF 6
ENDMDL
MODEL 9
REMARK VINA RESULT:      -5.5      1.767      4.356
REMARK  Name = 194403
REMARK  6 active torsions:
REMARK  status: ('A' for Active; 'I' for Inactive)
REMARK    1  A    between atoms: C_5  and  O_18
REMARK    2  A    between atoms: C_7  and  O_26
REMARK    3  A    between atoms: C_14  and  O_20
REMARK    4  A    between atoms: C_15  and  O_22
REMARK    5  A    between atoms: C_16  and  O_24
REMARK    6  A    between atoms: O_26  and  C_27
REMARK                            x       y       z     vdW  Elec       q    Type
REMARK                         _______ _______ _______ _____ _____    ______ ____
ROOT
ATOM      1  O   UNL     1     -39.439  26.690   0.802  0.00  0.00    -0.331 OA
ATOM      2  O   UNL     1     -40.176  22.370   1.380  0.00  0.00    -0.291 OA
ATOM      3  O   UNL     1     -36.984  25.443   4.390  0.00  0.00    -0.289 OA
ATOM      4  C   UNL     1     -39.940  24.450   2.585  0.00  0.00    +0.101 C 
ATOM      5  C   UNL     1     -38.814  25.456   2.818  0.00  0.00    +0.177 C 
ATOM      6  C   UNL     1     -41.029  25.071   1.690  0.00  0.00    +0.067 C 
ATOM      7  C   UNL     1     -40.453  25.749   0.435  0.00  0.00    +0.188 C 
ATOM      8  C   UNL     1     -38.347  26.111   1.516  0.00  0.00    +0.179 C 
ATOM      9  C   UNL     1     -39.451  23.111   2.040  0.00  0.00    +0.179 C 
ATOM     10  C   UNL     1     -37.624  24.841   3.533  0.00  0.00    +0.203 C 
ATOM     11  C   UNL     1     -38.083  22.665   2.393  0.00  0.00    +0.077 C 
ATOM     12  C   UNL     1     -37.220  23.479   3.129  0.00  0.00    +0.077 C 
ATOM     13  C   UNL     1     -41.556  26.530  -0.283  0.00  0.00    +0.061 C 
ATOM     14  C   UNL     1     -37.662  21.387   2.000  0.00  0.00    +0.171 C 
ATOM     15  C   UNL     1     -35.948  23.013   3.484  0.00  0.00    +0.140 C 
ATOM     16  C   UNL     1     -36.391  20.929   2.350  0.00  0.00    +0.175 C 
ATOM     17  C   UNL     1     -35.536  21.740   3.092  0.00  0.00    +0.077 C 
ENDROOT
BRANCH   5  18
ATOM     18  O   UNL     1     -39.293  26.504   3.665  0.00  0.00    -0.377 OA
ATOM     19  H   UNL     1     -39.947  26.146   4.285  0.00  0.00    +0.211 HD
ENDBRANCH   5  18
BRANCH  14  20
ATOM     20  O   UNL     1     -38.456  20.544   1.277  0.00  0.00    -0.503 OA
ATOM     21  H   UNL     1     -38.939  19.869   1.712  0.00  0.00    +0.292 HD
ENDBRANCH  14  20
BRANCH  15  22
ATOM     22  O   UNL     1     -35.056  23.767   4.189  0.00  0.00    -0.505 OA
ATOM     23  H   UNL     1     -35.275  24.644   4.435  0.00  0.00    +0.292 HD
ENDBRANCH  15  22
BRANCH  16  24
ATOM     24  O   UNL     1     -35.969  19.688   1.974  0.00  0.00    -0.468 OA
ATOM     25  C   UNL     1     -34.770  19.618   1.205  0.00  0.00    +0.253 C 
ENDBRANCH  16  24
BRANCH   7  26
ATOM     26  O   UNL     1     -39.957  24.751  -0.458  0.00  0.00    -0.334 OA
BRANCH  26  27
ATOM     27  C   UNL     1     -40.914  24.427  -1.452  0.00  0.00    +0.145 C 
ATOM     28  C   UNL     1     -40.568  23.080  -2.051  0.00  0.00    +0.035 C 
ENDBRANCH  26  27
ENDBRANCH   7  26
TORSDOF 6
ENDMDL
