MODEL 1
REMARK VINA RESULT:      -6.5      0.000      0.000
REMARK  Name = 54833
REMARK  5 active torsions:
REMARK  status: ('A' for Active; 'I' for Inactive)
REMARK    1  A    between atoms: C_3  and  C_6
REMARK    2  A    between atoms: C_4  and  N_16
REMARK    3  A    between atoms: C_5  and  C_20
REMARK    4  A    between atoms: C_8  and  C_15
REMARK    5  A    between atoms: C_20  and  O_21
REMARK                            x       y       z     vdW  Elec       q    Type
REMARK                         _______ _______ _______ _____ _____    ______ ____
ROOT
ATOM      1  S   UNL     1     -34.996  19.562   0.689  0.00  0.00    +0.021 S 
ATOM      2  N   UNL     1     -34.584  20.444   2.035  0.00  0.00    -0.208 NA
ATOM      3  C   UNL     1     -35.701  20.945   2.571  0.00  0.00    +0.103 A 
ATOM      4  C   UNL     1     -36.927  20.628   1.903  0.00  0.00    +0.074 A 
ATOM      5  C   UNL     1     -36.683  19.837   0.801  0.00  0.00    +0.137 A 
ENDROOT
BRANCH   3   6
ATOM      6  C   UNL     1     -35.588  21.750   3.754  0.00  0.00    +0.019 C 
ATOM      7  C   UNL     1     -35.888  23.112   3.704  0.00  0.00    +0.005 C 
ATOM      8  C   UNL     1     -35.776  23.893   4.854  0.00  0.00    +0.071 C 
ATOM      9  C   UNL     1     -35.175  21.171   4.954  0.00  0.00    +0.002 C 
ATOM     10  C   UNL     1     -35.364  23.314   6.053  0.00  0.00    +0.004 C 
ATOM     11  C   UNL     1     -35.063  21.953   6.104  0.00  0.00    -0.000 C 
BRANCH   8  15
ATOM     12  F   UNL     1     -35.169  26.090   4.128  0.00  0.00    -0.166 F 
ATOM     13  F   UNL     1     -37.286  25.623   4.185  0.00  0.00    -0.166 F 
ATOM     14  F   UNL     1     -36.189  25.912   6.041  0.00  0.00    -0.166 F 
ATOM     15  C   UNL     1     -36.098  25.348   4.801  0.00  0.00    +0.419 C 
ENDBRANCH   8  15
ENDBRANCH   3   6
BRANCH   4  16
ATOM     16  N   UNL     1     -38.156  21.041   2.292  0.00  0.00    -0.355 N 
ATOM     17  H   UNL     1     -38.481  20.833   3.198  0.00  0.00    +0.142 HD
ATOM     18  H   UNL     1     -38.724  21.550   1.670  0.00  0.00    +0.142 HD
ENDBRANCH   4  16
BRANCH   5  20
ATOM     19  O   UNL     1     -37.250  18.524  -1.117  0.00  0.00    -0.244 OA
ATOM     20  C   UNL     1     -37.567  19.273  -0.164  0.00  0.00    +0.347 C 
BRANCH  20  21
ATOM     21  O   UNL     1     -38.881  19.622   0.025  0.00  0.00    -0.477 OA
ATOM     22  H   UNL     1     -39.107  20.272   0.660  0.00  0.00    +0.295 HD
ENDBRANCH  20  21
ENDBRANCH   5  20
TORSDOF 5
ENDMDL
MODEL 2
REMARK VINA RESULT:      -6.2      5.193      6.510
REMARK  Name = 54833
REMARK  5 active torsions:
REMARK  status: ('A' for Active; 'I' for Inactive)
REMARK    1  A    between atoms: C_3  and  C_6
REMARK    2  A    between atoms: C_4  and  N_16
REMARK    3  A    between atoms: C_5  and  C_20
REMARK    4  A    between atoms: C_8  and  C_15
REMARK    5  A    between atoms: C_20  and  O_21
REMARK                            x       y       z     vdW  Elec       q    Type
REMARK                         _______ _______ _______ _____ _____    ______ ____
ROOT
ATOM      1  S   UNL     1     -33.100  27.460   3.626  0.00  0.00    +0.021 S 
ATOM      2  N   UNL     1     -33.215  25.863   4.071  0.00  0.00    -0.208 NA
ATOM      3  C   UNL     1     -34.495  25.489   3.977  0.00  0.00    +0.103 A 
ATOM      4  C   UNL     1     -35.421  26.488   3.542  0.00  0.00    +0.074 A 
ATOM      5  C   UNL     1     -34.768  27.678   3.300  0.00  0.00    +0.137 A 
ENDROOT
BRANCH   3   6
ATOM      6  C   UNL     1     -34.835  24.136   4.317  0.00  0.00    +0.019 C 
ATOM      7  C   UNL     1     -34.992  23.182   3.310  0.00  0.00    +0.005 C 
ATOM      8  C   UNL     1     -35.324  21.869   3.641  0.00  0.00    +0.071 C 
ATOM      9  C   UNL     1     -35.010  23.776   5.653  0.00  0.00    +0.002 C 
ATOM     10  C   UNL     1     -35.498  21.508   4.977  0.00  0.00    +0.004 C 
ATOM     11  C   UNL     1     -35.341  22.461   5.983  0.00  0.00    -0.000 C 
BRANCH   8  15
ATOM     12  F   UNL     1     -34.526  19.882   2.574  0.00  0.00    -0.166 F 
ATOM     13  F   UNL     1     -36.675  20.170   2.635  0.00  0.00    -0.166 F 
ATOM     14  F   UNL     1     -35.453  21.393   1.314  0.00  0.00    -0.166 F 
ATOM     15  C   UNL     1     -35.491  20.849   2.566  0.00  0.00    +0.419 C 
ENDBRANCH   8  15
ENDBRANCH   3   6
BRANCH   4  16
ATOM     16  N   UNL     1     -36.753  26.302   3.386  0.00  0.00    -0.355 N 
ATOM     17  H   UNL     1     -37.231  25.662   3.962  0.00  0.00    +0.142 HD
ATOM     18  H   UNL     1     -37.244  26.805   2.697  0.00  0.00    +0.142 HD
ENDBRANCH   4  16
BRANCH   5  20
ATOM     19  O   UNL     1     -34.819  30.067   3.195  0.00  0.00    -0.244 OA
ATOM     20  C   UNL     1     -35.253  28.942   2.856  0.00  0.00    +0.347 C 
BRANCH  20  21
ATOM     21  O   UNL     1     -36.297  28.850   1.970  0.00  0.00    -0.477 OA
ATOM     22  H   UNL     1     -36.151  28.520   1.106  0.00  0.00    +0.295 HD
ENDBRANCH  20  21
ENDBRANCH   5  20
TORSDOF 5
ENDMDL
MODEL 3
REMARK VINA RESULT:      -6.0      4.628      5.419
REMARK  Name = 54833
REMARK  5 active torsions:
REMARK  status: ('A' for Active; 'I' for Inactive)
REMARK    1  A    between atoms: C_3  and  C_6
REMARK    2  A    between atoms: C_4  and  N_16
REMARK    3  A    between atoms: C_5  and  C_20
REMARK    4  A    between atoms: C_8  and  C_15
REMARK    5  A    between atoms: C_20  and  O_21
REMARK                            x       y       z     vdW  Elec       q    Type
REMARK                         _______ _______ _______ _____ _____    ______ ____
ROOT
ATOM      1  S   UNL     1     -37.762  26.799   0.764  0.00  0.00    +0.021 S 
ATOM      2  N   UNL     1     -36.556  26.377   1.827  0.00  0.00    -0.208 NA
ATOM      3  C   UNL     1     -37.117  25.815   2.902  0.00  0.00    +0.103 A 
ATOM      4  C   UNL     1     -38.544  25.710   2.895  0.00  0.00    +0.074 A 
ATOM      5  C   UNL     1     -39.060  26.233   1.730  0.00  0.00    +0.137 A 
ENDROOT
BRANCH   3   6
ATOM      6  C   UNL     1     -36.258  25.368   3.962  0.00  0.00    +0.019 C 
ATOM      7  C   UNL     1     -36.196  24.012   4.286  0.00  0.00    +0.005 C 
ATOM      8  C   UNL     1     -35.363  23.580   5.317  0.00  0.00    +0.071 C 
ATOM      9  C   UNL     1     -35.488  26.291   4.671  0.00  0.00    +0.002 C 
ATOM     10  C   UNL     1     -34.592  24.502   6.024  0.00  0.00    +0.004 C 
ATOM     11  C   UNL     1     -34.655  25.857   5.702  0.00  0.00    -0.000 C 
BRANCH   8  15
ATOM     12  F   UNL     1     -36.173  21.759   6.640  0.00  0.00    -0.166 F 
ATOM     13  F   UNL     1     -35.564  21.304   4.609  0.00  0.00    -0.166 F 
ATOM     14  F   UNL     1     -34.062  21.756   6.117  0.00  0.00    -0.166 F 
ATOM     15  C   UNL     1     -35.294  22.131   5.663  0.00  0.00    +0.419 C 
ENDBRANCH   8  15
ENDBRANCH   3   6
BRANCH   4  16
ATOM     16  N   UNL     1     -39.290  25.173   3.889  0.00  0.00    -0.355 N 
ATOM     17  H   UNL     1     -39.080  25.379   4.829  0.00  0.00    +0.142 HD
ATOM     18  H   UNL     1     -40.043  24.577   3.673  0.00  0.00    +0.142 HD
ENDBRANCH   4  16
BRANCH   5  20
ATOM     19  O   UNL     1     -40.864  25.906   0.193  0.00  0.00    -0.244 OA
ATOM     20  C   UNL     1     -40.402  26.354   1.268  0.00  0.00    +0.347 C 
BRANCH  20  21
ATOM     21  O   UNL     1     -41.221  27.039   2.131  0.00  0.00    -0.477 OA
ATOM     22  H   UNL     1     -41.902  27.588   1.795  0.00  0.00    +0.295 HD
ENDBRANCH  20  21
ENDBRANCH   5  20
TORSDOF 5
ENDMDL
MODEL 4
REMARK VINA RESULT:      -5.9      4.899      6.498
REMARK  Name = 54833
REMARK  5 active torsions:
REMARK  status: ('A' for Active; 'I' for Inactive)
REMARK    1  A    between atoms: C_3  and  C_6
REMARK    2  A    between atoms: C_4  and  N_16
REMARK    3  A    between atoms: C_5  and  C_20
REMARK    4  A    between atoms: C_8  and  C_15
REMARK    5  A    between atoms: C_20  and  O_21
REMARK                            x       y       z     vdW  Elec       q    Type
REMARK                         _______ _______ _______ _____ _____    ______ ____
ROOT
ATOM      1  S   UNL     1     -35.543  23.073   5.793  0.00  0.00    +0.021 S 
ATOM      2  N   UNL     1     -35.375  21.736   4.821  0.00  0.00    -0.208 NA
ATOM      3  C   UNL     1     -35.694  22.080   3.569  0.00  0.00    +0.103 A 
ATOM      4  C   UNL     1     -36.084  23.441   3.362  0.00  0.00    +0.074 A 
ATOM      5  C   UNL     1     -36.047  24.139   4.550  0.00  0.00    +0.137 A 
ENDROOT
BRANCH   3   6
ATOM      6  C   UNL     1     -35.621  21.074   2.547  0.00  0.00    +0.019 C 
ATOM      7  C   UNL     1     -34.398  20.473   2.244  0.00  0.00    +0.005 C 
ATOM      8  C   UNL     1     -34.329  19.498   1.251  0.00  0.00    +0.071 C 
ATOM      9  C   UNL     1     -36.773  20.700   1.855  0.00  0.00    +0.002 C 
ATOM     10  C   UNL     1     -35.481  19.122   0.560  0.00  0.00    +0.004 C 
ATOM     11  C   UNL     1     -36.703  19.723   0.861  0.00  0.00    -0.000 C 
BRANCH   8  15
ATOM     12  F   UNL     1     -33.043  18.126  -0.228  0.00  0.00    -0.166 F 
ATOM     13  F   UNL     1     -31.999  19.744   0.770  0.00  0.00    -0.166 F 
ATOM     14  F   UNL     1     -32.610  17.987   1.899  0.00  0.00    -0.166 F 
ATOM     15  C   UNL     1     -33.023  18.854   0.928  0.00  0.00    +0.419 C 
ENDBRANCH   8  15
ENDBRANCH   3   6
BRANCH   4  16
ATOM     16  N   UNL     1     -36.441  23.976   2.171  0.00  0.00    -0.355 N 
ATOM     17  H   UNL     1     -35.988  24.785   1.839  0.00  0.00    +0.142 HD
ATOM     18  H   UNL     1     -37.154  23.557   1.636  0.00  0.00    +0.142 HD
ENDBRANCH   4  16
BRANCH   5  20
ATOM     19  O   UNL     1     -35.687  26.259   5.598  0.00  0.00    -0.244 OA
ATOM     20  C   UNL     1     -36.345  25.500   4.849  0.00  0.00    +0.347 C 
BRANCH  20  21
ATOM     21  O   UNL     1     -37.474  25.966   4.224  0.00  0.00    -0.477 OA
ATOM     22  H   UNL     1     -37.440  26.219   3.323  0.00  0.00    +0.295 HD
ENDBRANCH  20  21
ENDBRANCH   5  20
TORSDOF 5
ENDMDL
MODEL 5
REMARK VINA RESULT:      -5.7      2.284      2.973
REMARK  Name = 54833
REMARK  5 active torsions:
REMARK  status: ('A' for Active; 'I' for Inactive)
REMARK    1  A    between atoms: C_3  and  C_6
REMARK    2  A    between atoms: C_4  and  N_16
REMARK    3  A    between atoms: C_5  and  C_20
REMARK    4  A    between atoms: C_8  and  C_15
REMARK    5  A    between atoms: C_20  and  O_21
REMARK                            x       y       z     vdW  Elec       q    Type
REMARK                         _______ _______ _______ _____ _____    ______ ____
ROOT
ATOM      1  S   UNL     1     -33.568  19.616  -0.398  0.00  0.00    +0.021 S 
ATOM      2  N   UNL     1     -33.860  20.894   0.625  0.00  0.00    -0.208 NA
ATOM      3  C   UNL     1     -35.027  20.684   1.241  0.00  0.00    +0.103 A 
ATOM      4  C   UNL     1     -35.721  19.480   0.901  0.00  0.00    +0.074 A 
ATOM      5  C   UNL     1     -35.006  18.759  -0.031  0.00  0.00    +0.137 A 
ENDROOT
BRANCH   3   6
ATOM      6  C   UNL     1     -35.487  21.668   2.181  0.00  0.00    +0.019 C 
ATOM      7  C   UNL     1     -35.168  21.545   3.533  0.00  0.00    +0.005 C 
ATOM      8  C   UNL     1     -35.616  22.500   4.444  0.00  0.00    +0.071 C 
ATOM      9  C   UNL     1     -36.255  22.746   1.740  0.00  0.00    +0.002 C 
ATOM     10  C   UNL     1     -36.383  23.579   4.004  0.00  0.00    +0.004 C 
ATOM     11  C   UNL     1     -36.703  23.701   2.653  0.00  0.00    -0.000 C 
BRANCH   8  15
ATOM     12  F   UNL     1     -35.016  23.564   6.502  0.00  0.00    -0.166 F 
ATOM     13  F   UNL     1     -36.264  21.795   6.637  0.00  0.00    -0.166 F 
ATOM     14  F   UNL     1     -34.164  21.603   6.101  0.00  0.00    -0.166 F 
ATOM     15  C   UNL     1     -35.274  22.370   5.891  0.00  0.00    +0.419 C 
ENDBRANCH   8  15
ENDBRANCH   3   6
BRANCH   4  16
ATOM     16  N   UNL     1     -36.912  19.095   1.417  0.00  0.00    -0.355 N 
ATOM     17  H   UNL     1     -37.716  19.092   0.849  0.00  0.00    +0.142 HD
ATOM     18  H   UNL     1     -36.974  18.816   2.359  0.00  0.00    +0.142 HD
ENDBRANCH   4  16
BRANCH   5  20
ATOM     19  O   UNL     1     -34.935  17.177  -1.824  0.00  0.00    -0.244 OA
ATOM     20  C   UNL     1     -35.280  17.515  -0.668  0.00  0.00    +0.347 C 
BRANCH  20  21
ATOM     21  O   UNL     1     -35.994  16.642   0.115  0.00  0.00    -0.477 OA
ATOM     22  H   UNL     1     -36.881  16.837   0.345  0.00  0.00    +0.295 HD
ENDBRANCH  20  21
ENDBRANCH   5  20
TORSDOF 5
ENDMDL
MODEL 6
REMARK VINA RESULT:      -5.7      1.278      1.856
REMARK  Name = 54833
REMARK  5 active torsions:
REMARK  status: ('A' for Active; 'I' for Inactive)
REMARK    1  A    between atoms: C_3  and  C_6
REMARK    2  A    between atoms: C_4  and  N_16
REMARK    3  A    between atoms: C_5  and  C_20
REMARK    4  A    between atoms: C_8  and  C_15
REMARK    5  A    between atoms: C_20  and  O_21
REMARK                            x       y       z     vdW  Elec       q    Type
REMARK                         _______ _______ _______ _____ _____    ______ ____
ROOT
ATOM      1  S   UNL     1     -38.065  21.308   0.837  0.00  0.00    +0.021 S 
ATOM      2  N   UNL     1     -37.653  22.153   2.208  0.00  0.00    -0.208 NA
ATOM      3  C   UNL     1     -36.504  21.659   2.680  0.00  0.00    +0.103 A 
ATOM      4  C   UNL     1     -35.924  20.578   1.943  0.00  0.00    +0.074 A 
ATOM      5  C   UNL     1     -36.708  20.262   0.854  0.00  0.00    +0.137 A 
ENDROOT
BRANCH   3   6
ATOM      6  C   UNL     1     -35.952  22.240   3.871  0.00  0.00    +0.019 C 
ATOM      7  C   UNL     1     -35.892  23.628   4.008  0.00  0.00    +0.005 C 
ATOM      8  C   UNL     1     -35.354  24.190   5.164  0.00  0.00    +0.071 C 
ATOM      9  C   UNL     1     -35.472  21.417   4.890  0.00  0.00    +0.002 C 
ATOM     10  C   UNL     1     -34.876  23.368   6.184  0.00  0.00    +0.004 C 
ATOM     11  C   UNL     1     -34.934  21.982   6.047  0.00  0.00    -0.000 C 
BRANCH   8  15
ATOM     12  F   UNL     1     -34.313  26.098   6.165  0.00  0.00    -0.166 F 
ATOM     13  F   UNL     1     -35.050  26.331   4.139  0.00  0.00    -0.166 F 
ATOM     14  F   UNL     1     -36.453  26.203   5.796  0.00  0.00    -0.166 F 
ATOM     15  C   UNL     1     -35.292  25.674   5.312  0.00  0.00    +0.419 C 
ENDBRANCH   8  15
ENDBRANCH   3   6
BRANCH   4  16
ATOM     16  N   UNL     1     -34.769  19.948   2.263  0.00  0.00    -0.355 N 
ATOM     17  H   UNL     1     -34.752  19.297   3.002  0.00  0.00    +0.142 HD
ATOM     18  H   UNL     1     -33.947  20.140   1.758  0.00  0.00    +0.142 HD
ENDBRANCH   4  16
BRANCH   5  20
ATOM     19  O   UNL     1     -36.798  19.416  -1.382  0.00  0.00    -0.244 OA
ATOM     20  C   UNL     1     -36.551  19.275  -0.161  0.00  0.00    +0.347 C 
BRANCH  20  21
ATOM     21  O   UNL     1     -36.078  18.075   0.308  0.00  0.00    -0.477 OA
ATOM     22  H   UNL     1     -36.344  17.275  -0.101  0.00  0.00    +0.295 HD
ENDBRANCH  20  21
ENDBRANCH   5  20
TORSDOF 5
ENDMDL
MODEL 7
REMARK VINA RESULT:      -5.7      4.029      4.838
REMARK  Name = 54833
REMARK  5 active torsions:
REMARK  status: ('A' for Active; 'I' for Inactive)
REMARK    1  A    between atoms: C_3  and  C_6
REMARK    2  A    between atoms: C_4  and  N_16
REMARK    3  A    between atoms: C_5  and  C_20
REMARK    4  A    between atoms: C_8  and  C_15
REMARK    5  A    between atoms: C_20  and  O_21
REMARK                            x       y       z     vdW  Elec       q    Type
REMARK                         _______ _______ _______ _____ _____    ______ ____
ROOT
ATOM      1  S   UNL     1     -39.300  25.996   1.521  0.00  0.00    +0.021 S 
ATOM      2  N   UNL     1     -37.947  25.182   2.039  0.00  0.00    -0.208 NA
ATOM      3  C   UNL     1     -38.272  23.900   2.232  0.00  0.00    +0.103 A 
ATOM      4  C   UNL     1     -39.631  23.540   1.964  0.00  0.00    +0.074 A 
ATOM      5  C   UNL     1     -40.348  24.640   1.546  0.00  0.00    +0.137 A 
ENDROOT
BRANCH   3   6
ATOM      6  C   UNL     1     -37.250  22.999   2.685  0.00  0.00    +0.019 C 
ATOM      7  C   UNL     1     -36.728  23.126   3.972  0.00  0.00    +0.005 C 
ATOM      8  C   UNL     1     -35.735  22.251   4.411  0.00  0.00    +0.071 C 
ATOM      9  C   UNL     1     -36.779  21.997   1.837  0.00  0.00    +0.002 C 
ATOM     10  C   UNL     1     -35.264  21.249   3.563  0.00  0.00    +0.004 C 
ATOM     11  C   UNL     1     -35.785  21.122   2.276  0.00  0.00    -0.000 C 
BRANCH   8  15
ATOM     12  F   UNL     1     -34.090  21.591   6.018  0.00  0.00    -0.166 F 
ATOM     13  F   UNL     1     -34.762  23.653   6.088  0.00  0.00    -0.166 F 
ATOM     14  F   UNL     1     -36.082  22.058   6.756  0.00  0.00    -0.166 F 
ATOM     15  C   UNL     1     -35.177  22.386   5.788  0.00  0.00    +0.419 C 
ENDBRANCH   8  15
ENDBRANCH   3   6
BRANCH   4  16
ATOM     16  N   UNL     1     -40.149  22.296   2.100  0.00  0.00    -0.355 N 
ATOM     17  H   UNL     1     -41.102  22.181   2.316  0.00  0.00    +0.142 HD
ATOM     18  H   UNL     1     -39.572  21.507   1.982  0.00  0.00    +0.142 HD
ENDBRANCH   4  16
BRANCH   5  20
ATOM     19  O   UNL     1     -42.464  25.751   1.435  0.00  0.00    -0.244 OA
ATOM     20  C   UNL     1     -41.714  24.783   1.168  0.00  0.00    +0.347 C 
BRANCH  20  21
ATOM     21  O   UNL     1     -42.197  23.724   0.441  0.00  0.00    -0.477 OA
ATOM     22  H   UNL     1     -42.862  23.172   0.802  0.00  0.00    +0.295 HD
ENDBRANCH  20  21
ENDBRANCH   5  20
TORSDOF 5
ENDMDL
MODEL 8
REMARK VINA RESULT:      -5.5      5.782      7.159
REMARK  Name = 54833
REMARK  5 active torsions:
REMARK  status: ('A' for Active; 'I' for Inactive)
REMARK    1  A    between atoms: C_3  and  C_6
REMARK    2  A    between atoms: C_4  and  N_16
REMARK    3  A    between atoms: C_5  and  C_20
REMARK    4  A    between atoms: C_8  and  C_15
REMARK    5  A    between atoms: C_20  and  O_21
REMARK                            x       y       z     vdW  Elec       q    Type
REMARK                         _______ _______ _______ _____ _____    ______ ____
ROOT
ATOM      1  S   UNL     1     -32.238  28.213   3.738  0.00  0.00    +0.021 S 
ATOM      2  N   UNL     1     -32.556  26.581   3.725  0.00  0.00    -0.208 NA
ATOM      3  C   UNL     1     -33.832  26.402   3.369  0.00  0.00    +0.103 A 
ATOM      4  C   UNL     1     -34.590  27.585   3.096  0.00  0.00    +0.074 A 
ATOM      5  C   UNL     1     -33.809  28.707   3.266  0.00  0.00    +0.137 A 
ENDROOT
BRANCH   3   6
ATOM      6  C   UNL     1     -34.334  25.059   3.290  0.00  0.00    +0.019 C 
ATOM      7  C   UNL     1     -34.497  24.305   4.453  0.00  0.00    +0.005 C 
ATOM      8  C   UNL     1     -34.984  23.001   4.375  0.00  0.00    +0.071 C 
ATOM      9  C   UNL     1     -34.658  24.509   2.051  0.00  0.00    +0.002 C 
ATOM     10  C   UNL     1     -35.309  22.451   3.136  0.00  0.00    +0.004 C 
ATOM     11  C   UNL     1     -35.146  23.204   1.973  0.00  0.00    -0.000 C 
BRANCH   8  15
ATOM     12  F   UNL     1     -35.792  22.870   6.623  0.00  0.00    -0.166 F 
ATOM     13  F   UNL     1     -35.897  21.059   5.433  0.00  0.00    -0.166 F 
ATOM     14  F   UNL     1     -33.972  21.780   6.147  0.00  0.00    -0.166 F 
ATOM     15  C   UNL     1     -35.160  22.195   5.618  0.00  0.00    +0.419 C 
ENDBRANCH   8  15
ENDBRANCH   3   6
BRANCH   4  16
ATOM     16  N   UNL     1     -35.891  27.607   2.724  0.00  0.00    -0.355 N 
ATOM     17  H   UNL     1     -36.395  26.765   2.645  0.00  0.00    +0.142 HD
ATOM     18  H   UNL     1     -36.334  28.465   2.532  0.00  0.00    +0.142 HD
ENDBRANCH   4  16
BRANCH   5  20
ATOM     19  O   UNL     1     -33.388  30.954   2.560  0.00  0.00    -0.244 OA
ATOM     20  C   UNL     1     -34.108  30.092   3.114  0.00  0.00    +0.347 C 
BRANCH  20  21
ATOM     21  O   UNL     1     -35.321  30.453   3.646  0.00  0.00    -0.477 OA
ATOM     22  H   UNL     1     -35.428  31.298   4.038  0.00  0.00    +0.295 HD
ENDBRANCH  20  21
ENDBRANCH   5  20
TORSDOF 5
ENDMDL
MODEL 9
REMARK VINA RESULT:      -5.5      4.968      6.300
REMARK  Name = 54833
REMARK  5 active torsions:
REMARK  status: ('A' for Active; 'I' for Inactive)
REMARK    1  A    between atoms: C_3  and  C_6
REMARK    2  A    between atoms: C_4  and  N_16
REMARK    3  A    between atoms: C_5  and  C_20
REMARK    4  A    between atoms: C_8  and  C_15
REMARK    5  A    between atoms: C_20  and  O_21
REMARK                            x       y       z     vdW  Elec       q    Type
REMARK                         _______ _______ _______ _____ _____    ______ ____
ROOT
ATOM      1  S   UNL     1     -34.793  24.413   2.694  0.00  0.00    +0.021 S 
ATOM      2  N   UNL     1     -33.650  25.448   3.313  0.00  0.00    -0.208 NA
ATOM      3  C   UNL     1     -34.202  26.137   4.317  0.00  0.00    +0.103 A 
ATOM      4  C   UNL     1     -35.571  25.845   4.613  0.00  0.00    +0.074 A 
ATOM      5  C   UNL     1     -36.051  24.872   3.763  0.00  0.00    +0.137 A 
ENDROOT
BRANCH   3   6
ATOM      6  C   UNL     1     -33.392  27.101   5.007  0.00  0.00    +0.019 C 
ATOM      7  C   UNL     1     -32.985  28.266   4.356  0.00  0.00    +0.005 C 
ATOM      8  C   UNL     1     -32.198  29.200   5.028  0.00  0.00    +0.071 C 
ATOM      9  C   UNL     1     -33.011  26.871   6.329  0.00  0.00    +0.002 C 
ATOM     10  C   UNL     1     -31.818  28.971   6.350  0.00  0.00    +0.004 C 
ATOM     11  C   UNL     1     -32.223  27.807   7.001  0.00  0.00    -0.000 C 
BRANCH   8  15
ATOM     12  F   UNL     1     -30.987  30.217   3.233  0.00  0.00    -0.166 F 
ATOM     13  F   UNL     1     -32.802  31.211   3.881  0.00  0.00    -0.166 F 
ATOM     14  F   UNL     1     -31.026  31.267   5.136  0.00  0.00    -0.166 F 
ATOM     15  C   UNL     1     -31.764  30.446   4.332  0.00  0.00    +0.419 C 
ENDBRANCH   8  15
ENDBRANCH   3   6
BRANCH   4  16
ATOM     16  N   UNL     1     -36.300  26.437   5.589  0.00  0.00    -0.355 N 
ATOM     17  H   UNL     1     -35.847  26.859   6.354  0.00  0.00    +0.142 HD
ATOM     18  H   UNL     1     -37.283  26.444   5.533  0.00  0.00    +0.142 HD
ENDBRANCH   4  16
BRANCH   5  20
ATOM     19  O   UNL     1     -37.573  23.091   3.278  0.00  0.00    -0.244 OA
ATOM     20  C   UNL     1     -37.333  24.258   3.667  0.00  0.00    +0.347 C 
BRANCH  20  21
ATOM     21  O   UNL     1     -38.365  25.076   4.055  0.00  0.00    -0.477 OA
ATOM     22  H   UNL     1     -38.236  25.698   4.743  0.00  0.00    +0.295 HD
ENDBRANCH  20  21
ENDBRANCH   5  20
TORSDOF 5
ENDMDL
