MODEL 1
REMARK VINA RESULT:      -7.4      0.000      0.000
REMARK  Name = 5481968
REMARK  8 active torsions:
REMARK  status: ('A' for Active; 'I' for Inactive)
REMARK    1  A    between atoms: C_4  and  C_30
REMARK    2  A    between atoms: C_9  and  C_18
REMARK    3  A    between atoms: C_14  and  O_28
REMARK    4  A    between atoms: C_19  and  O_24
REMARK    5  A    between atoms: C_23  and  O_26
REMARK    6  A    between atoms: C_30  and  C_31
REMARK    7  A    between atoms: C_31  and  C_32
REMARK    8  A    between atoms: C_32  and  O_35
REMARK                            x       y       z     vdW  Elec       q    Type
REMARK                         _______ _______ _______ _____ _____    ______ ____
ROOT
ATOM      1  O   UNL     1     -33.965  17.292  -0.737  0.00  0.00    -0.478 OA
ATOM      2  O   UNL     1     -35.027  21.144   1.968  0.00  0.00    -0.453 OA
ATOM      3  O   UNL     1     -38.975  20.691   1.115  0.00  0.00    -0.287 OA
ATOM      4  C   UNL     1     -37.299  21.941   2.247  0.00  0.00    +0.052 A 
ATOM      5  C   UNL     1     -32.554  17.418  -0.472  0.00  0.00    +0.152 C 
ATOM      6  C   UNL     1     -35.430  20.115   1.154  0.00  0.00    +0.154 A 
ATOM      7  C   UNL     1     -36.773  19.918   0.832  0.00  0.00    +0.107 A 
ATOM      8  C   UNL     1     -34.446  19.249   0.642  0.00  0.00    +0.069 C 
ATOM      9  C   UNL     1     -35.974  22.009   2.481  0.00  0.00    +0.147 A 
ATOM     10  C   UNL     1     -37.786  20.838   1.374  0.00  0.00    +0.200 A 
ATOM     11  C   UNL     1     -34.835  18.193  -0.187  0.00  0.00    +0.145 C 
ATOM     12  C   UNL     1     -32.154  18.559   0.429  0.00  0.00    +0.013 C 
ATOM     13  C   UNL     1     -33.032  19.416   0.953  0.00  0.00    +0.005 C 
ATOM     14  C   UNL     1     -37.153  18.863   0.003  0.00  0.00    +0.143 C 
ATOM     15  C   UNL     1     -36.183  18.002  -0.505  0.00  0.00    +0.074 C 
ATOM     16  C   UNL     1     -32.115  16.094   0.163  0.00  0.00    +0.048 C 
ATOM     17  C   UNL     1     -31.873  17.587  -1.835  0.00  0.00    +0.048 C 
ENDROOT
BRANCH   9  18
ATOM     18  C   UNL     1     -35.369  23.044   3.331  0.00  0.00    +0.068 C 
ATOM     19  C   UNL     1     -35.419  22.957   4.724  0.00  0.00    +0.140 C 
ATOM     20  C   UNL     1     -34.734  24.130   2.726  0.00  0.00    +0.009 C 
ATOM     21  C   UNL     1     -34.837  23.952   5.508  0.00  0.00    +0.073 C 
ATOM     22  C   UNL     1     -34.151  25.125   3.511  0.00  0.00    +0.037 C 
ATOM     23  C   UNL     1     -34.202  25.036   4.902  0.00  0.00    +0.137 C 
BRANCH  19  24
ATOM     24  O   UNL     1     -36.033  21.907   5.341  0.00  0.00    -0.505 OA
ATOM     25  H   UNL     1     -36.611  22.060   6.062  0.00  0.00    +0.292 HD
ENDBRANCH  19  24
BRANCH  23  26
ATOM     26  O   UNL     1     -33.635  26.008   5.667  0.00  0.00    -0.505 OA
ATOM     27  H   UNL     1     -32.977  26.567   5.304  0.00  0.00    +0.292 HD
ENDBRANCH  23  26
ENDBRANCH   9  18
BRANCH  14  28
ATOM     28  O   UNL     1     -38.450  18.626  -0.344  0.00  0.00    -0.505 OA
ATOM     29  H   UNL     1     -38.936  17.955   0.093  0.00  0.00    +0.292 HD
ENDBRANCH  14  28
BRANCH   4  30
ATOM     30  C   UNL     1     -38.352  22.877   2.766  0.00  0.00    +0.035 C 
BRANCH  30  31
ATOM     31  C   UNL     1     -38.416  24.161   1.935  0.00  0.00    +0.032 C 
BRANCH  31  32
ATOM     32  C   UNL     1     -38.465  25.454   2.777  0.00  0.00    +0.089 C 
ATOM     33  C   UNL     1     -37.517  26.532   2.249  0.00  0.00    +0.029 C 
ATOM     34  C   UNL     1     -39.897  25.998   2.814  0.00  0.00    +0.029 C 
BRANCH  32  35
ATOM     35  O   UNL     1     -38.073  25.161   4.120  0.00  0.00    -0.387 OA
ATOM     36  H   UNL     1     -38.581  24.402   4.447  0.00  0.00    +0.210 HD
ENDBRANCH  32  35
ENDBRANCH  31  32
ENDBRANCH  30  31
ENDBRANCH   4  30
TORSDOF 8
ENDMDL
MODEL 2
REMARK VINA RESULT:      -7.0      1.385      1.661
REMARK  Name = 5481968
REMARK  8 active torsions:
REMARK  status: ('A' for Active; 'I' for Inactive)
REMARK    1  A    between atoms: C_4  and  C_30
REMARK    2  A    between atoms: C_9  and  C_18
REMARK    3  A    between atoms: C_14  and  O_28
REMARK    4  A    between atoms: C_19  and  O_24
REMARK    5  A    between atoms: C_23  and  O_26
REMARK    6  A    between atoms: C_30  and  C_31
REMARK    7  A    between atoms: C_31  and  C_32
REMARK    8  A    between atoms: C_32  and  O_35
REMARK                            x       y       z     vdW  Elec       q    Type
REMARK                         _______ _______ _______ _____ _____    ______ ____
ROOT
ATOM      1  O   UNL     1     -35.153  18.035  -0.535  0.00  0.00    -0.478 OA
ATOM      2  O   UNL     1     -35.832  21.946   2.208  0.00  0.00    -0.453 OA
ATOM      3  O   UNL     1     -39.802  21.902   1.340  0.00  0.00    -0.287 OA
ATOM      4  C   UNL     1     -38.013  22.965   2.490  0.00  0.00    +0.052 A 
ATOM      5  C   UNL     1     -33.738  18.016  -0.265  0.00  0.00    +0.152 C 
ATOM      6  C   UNL     1     -36.333  20.971   1.382  0.00  0.00    +0.154 A 
ATOM      7  C   UNL     1     -37.688  20.914   1.055  0.00  0.00    +0.107 A 
ATOM      8  C   UNL     1     -35.440  20.016   0.864  0.00  0.00    +0.069 C 
ATOM      9  C   UNL     1     -36.689  22.897   2.729  0.00  0.00    +0.147 A 
ATOM     10  C   UNL     1     -38.605  21.925   1.604  0.00  0.00    +0.200 A 
ATOM     11  C   UNL     1     -35.929  19.014   0.022  0.00  0.00    +0.145 C 
ATOM     12  C   UNL     1     -33.228  19.101   0.649  0.00  0.00    +0.013 C 
ATOM     13  C   UNL     1     -34.017  20.037   1.180  0.00  0.00    +0.005 C 
ATOM     14  C   UNL     1     -38.170  19.911   0.213  0.00  0.00    +0.143 C 
ATOM     15  C   UNL     1     -37.289  18.962  -0.301  0.00  0.00    +0.074 C 
ATOM     16  C   UNL     1     -33.436  16.647   0.357  0.00  0.00    +0.048 C 
ATOM     17  C   UNL     1     -33.037  18.130  -1.624  0.00  0.00    +0.048 C 
ENDROOT
BRANCH   9  18
ATOM     18  C   UNL     1     -35.986  23.856   3.590  0.00  0.00    +0.068 C 
ATOM     19  C   UNL     1     -35.737  23.574   4.935  0.00  0.00    +0.140 C 
ATOM     20  C   UNL     1     -35.562  25.070   3.047  0.00  0.00    +0.009 C 
ATOM     21  C   UNL     1     -35.067  24.501   5.733  0.00  0.00    +0.073 C 
ATOM     22  C   UNL     1     -34.891  25.998   3.845  0.00  0.00    +0.037 C 
ATOM     23  C   UNL     1     -34.644  25.713   5.188  0.00  0.00    +0.137 C 
BRANCH  19  24
ATOM     24  O   UNL     1     -36.140  22.396   5.493  0.00  0.00    -0.505 OA
ATOM     25  H   UNL     1     -35.630  21.620   5.368  0.00  0.00    +0.292 HD
ENDBRANCH  19  24
BRANCH  23  26
ATOM     26  O   UNL     1     -33.991  26.618   5.967  0.00  0.00    -0.505 OA
ATOM     27  H   UNL     1     -34.477  27.232   6.482  0.00  0.00    +0.292 HD
ENDBRANCH  23  26
ENDBRANCH   9  18
BRANCH  14  28
ATOM     28  O   UNL     1     -39.482  19.809  -0.139  0.00  0.00    -0.505 OA
ATOM     29  H   UNL     1     -39.896  20.505  -0.611  0.00  0.00    +0.292 HD
ENDBRANCH  14  28
BRANCH   4  30
ATOM     30  C   UNL     1     -38.968  23.997   3.017  0.00  0.00    +0.035 C 
BRANCH  30  31
ATOM     31  C   UNL     1     -39.168  25.136   2.014  0.00  0.00    +0.032 C 
BRANCH  31  32
ATOM     32  C   UNL     1     -40.646  25.503   1.765  0.00  0.00    +0.089 C 
ATOM     33  C   UNL     1     -41.297  26.165   2.980  0.00  0.00    +0.029 C 
ATOM     34  C   UNL     1     -40.755  26.431   0.551  0.00  0.00    +0.029 C 
BRANCH  32  35
ATOM     35  O   UNL     1     -41.388  24.316   1.476  0.00  0.00    -0.387 OA
ATOM     36  H   UNL     1     -41.226  23.657   2.169  0.00  0.00    +0.210 HD
ENDBRANCH  32  35
ENDBRANCH  31  32
ENDBRANCH  30  31
ENDBRANCH   4  30
TORSDOF 8
ENDMDL
MODEL 3
REMARK VINA RESULT:      -7.0      4.148      8.181
REMARK  Name = 5481968
REMARK  8 active torsions:
REMARK  status: ('A' for Active; 'I' for Inactive)
REMARK    1  A    between atoms: C_4  and  C_30
REMARK    2  A    between atoms: C_9  and  C_18
REMARK    3  A    between atoms: C_14  and  O_28
REMARK    4  A    between atoms: C_19  and  O_24
REMARK    5  A    between atoms: C_23  and  O_26
REMARK    6  A    between atoms: C_30  and  C_31
REMARK    7  A    between atoms: C_31  and  C_32
REMARK    8  A    between atoms: C_32  and  O_35
REMARK                            x       y       z     vdW  Elec       q    Type
REMARK                         _______ _______ _______ _____ _____    ______ ____
ROOT
ATOM      1  O   UNL     1     -32.299  30.740   3.121  0.00  0.00    -0.478 OA
ATOM      2  O   UNL     1     -34.610  26.525   3.541  0.00  0.00    -0.453 OA
ATOM      3  O   UNL     1     -37.568  27.870   1.100  0.00  0.00    -0.287 OA
ATOM      4  C   UNL     1     -36.719  26.090   2.428  0.00  0.00    +0.052 A 
ATOM      5  C   UNL     1     -31.232  30.311   3.990  0.00  0.00    +0.152 C 
ATOM      6  C   UNL     1     -34.537  27.795   3.027  0.00  0.00    +0.154 A 
ATOM      7  C   UNL     1     -35.528  28.301   2.185  0.00  0.00    +0.107 A 
ATOM      8  C   UNL     1     -33.428  28.588   3.370  0.00  0.00    +0.069 C 
ATOM      9  C   UNL     1     -35.691  25.726   3.220  0.00  0.00    +0.147 A 
ATOM     10  C   UNL     1     -36.682  27.457   1.841  0.00  0.00    +0.200 A 
ATOM     11  C   UNL     1     -33.333  29.884   2.855  0.00  0.00    +0.145 C 
ATOM     12  C   UNL     1     -31.348  28.909   4.531  0.00  0.00    +0.013 C 
ATOM     13  C   UNL     1     -32.370  28.099   4.245  0.00  0.00    +0.005 C 
ATOM     14  C   UNL     1     -35.427  29.596   1.675  0.00  0.00    +0.143 C 
ATOM     15  C   UNL     1     -34.329  30.385   2.011  0.00  0.00    +0.074 C 
ATOM     16  C   UNL     1     -29.938  30.434   3.177  0.00  0.00    +0.048 C 
ATOM     17  C   UNL     1     -31.203  31.304   5.158  0.00  0.00    +0.048 C 
ENDROOT
BRANCH   9  18
ATOM     18  C   UNL     1     -35.604  24.404   3.854  0.00  0.00    +0.068 C 
ATOM     19  C   UNL     1     -35.559  24.269   5.243  0.00  0.00    +0.140 C 
ATOM     20  C   UNL     1     -35.566  23.267   3.045  0.00  0.00    +0.009 C 
ATOM     21  C   UNL     1     -35.476  23.003   5.820  0.00  0.00    +0.073 C 
ATOM     22  C   UNL     1     -35.483  22.000   3.623  0.00  0.00    +0.037 C 
ATOM     23  C   UNL     1     -35.439  21.867   5.011  0.00  0.00    +0.137 C 
BRANCH  19  24
ATOM     24  O   UNL     1     -35.595  25.362   6.057  0.00  0.00    -0.505 OA
ATOM     25  H   UNL     1     -35.000  26.072   5.916  0.00  0.00    +0.292 HD
ENDBRANCH  19  24
BRANCH  23  26
ATOM     26  O   UNL     1     -35.357  20.631   5.574  0.00  0.00    -0.505 OA
ATOM     27  H   UNL     1     -35.926  19.946   5.285  0.00  0.00    +0.292 HD
ENDBRANCH  23  26
ENDBRANCH   9  18
BRANCH  14  28
ATOM     28  O   UNL     1     -36.365  30.141   0.849  0.00  0.00    -0.505 OA
ATOM     29  H   UNL     1     -36.099  30.603   0.079  0.00  0.00    +0.292 HD
ENDBRANCH  14  28
BRANCH   4  30
ATOM     30  C   UNL     1     -37.921  25.259   2.079  0.00  0.00    +0.035 C 
BRANCH  30  31
ATOM     31  C   UNL     1     -39.068  25.496   3.064  0.00  0.00    +0.032 C 
BRANCH  31  32
ATOM     32  C   UNL     1     -40.390  25.934   2.397  0.00  0.00    +0.089 C 
ATOM     33  C   UNL     1     -41.006  24.827   1.540  0.00  0.00    +0.029 C 
ATOM     34  C   UNL     1     -41.392  26.376   3.468  0.00  0.00    +0.029 C 
BRANCH  32  35
ATOM     35  O   UNL     1     -40.142  27.051   1.541  0.00  0.00    -0.387 OA
ATOM     36  H   UNL     1     -39.689  27.747   2.040  0.00  0.00    +0.210 HD
ENDBRANCH  32  35
ENDBRANCH  31  32
ENDBRANCH  30  31
ENDBRANCH   4  30
TORSDOF 8
ENDMDL
MODEL 4
REMARK VINA RESULT:      -6.7      2.683      6.752
REMARK  Name = 5481968
REMARK  8 active torsions:
REMARK  status: ('A' for Active; 'I' for Inactive)
REMARK    1  A    between atoms: C_4  and  C_30
REMARK    2  A    between atoms: C_9  and  C_18
REMARK    3  A    between atoms: C_14  and  O_28
REMARK    4  A    between atoms: C_19  and  O_24
REMARK    5  A    between atoms: C_23  and  O_26
REMARK    6  A    between atoms: C_30  and  C_31
REMARK    7  A    between atoms: C_31  and  C_32
REMARK    8  A    between atoms: C_32  and  O_35
REMARK                            x       y       z     vdW  Elec       q    Type
REMARK                         _______ _______ _______ _____ _____    ______ ____
ROOT
ATOM      1  O   UNL     1     -42.261  23.700  -0.030  0.00  0.00    -0.478 OA
ATOM      2  O   UNL     1     -37.729  22.507   1.119  0.00  0.00    -0.453 OA
ATOM      3  O   UNL     1     -37.782  25.158   4.200  0.00  0.00    -0.287 OA
ATOM      4  C   UNL     1     -36.552  23.535   2.973  0.00  0.00    +0.052 A 
ATOM      5  C   UNL     1     -42.287  22.782  -1.140  0.00  0.00    +0.152 C 
ATOM      6  C   UNL     1     -38.859  23.250   1.353  0.00  0.00    +0.154 A 
ATOM      7  C   UNL     1     -38.926  24.172   2.398  0.00  0.00    +0.107 A 
ATOM      8  C   UNL     1     -39.966  23.060   0.507  0.00  0.00    +0.069 C 
ATOM      9  C   UNL     1     -36.628  22.677   1.937  0.00  0.00    +0.147 A 
ATOM     10  C   UNL     1     -37.756  24.359   3.270  0.00  0.00    +0.200 A 
ATOM     11  C   UNL     1     -41.128  23.805   0.728  0.00  0.00    +0.145 C 
ATOM     12  C   UNL     1     -41.028  21.982  -1.361  0.00  0.00    +0.013 C 
ATOM     13  C   UNL     1     -39.941  22.107  -0.596  0.00  0.00    +0.005 C 
ATOM     14  C   UNL     1     -40.088  24.913   2.613  0.00  0.00    +0.143 C 
ATOM     15  C   UNL     1     -41.188  24.727   1.778  0.00  0.00    +0.074 C 
ATOM     16  C   UNL     1     -43.455  21.823  -0.880  0.00  0.00    +0.048 C 
ATOM     17  C   UNL     1     -42.578  23.622  -2.389  0.00  0.00    +0.048 C 
ENDROOT
BRANCH   9  18
ATOM     18  C   UNL     1     -35.515  21.802   1.545  0.00  0.00    +0.068 C 
ATOM     19  C   UNL     1     -35.461  20.469   1.959  0.00  0.00    +0.140 C 
ATOM     20  C   UNL     1     -34.496  22.321   0.744  0.00  0.00    +0.009 C 
ATOM     21  C   UNL     1     -34.393  19.660   1.574  0.00  0.00    +0.073 C 
ATOM     22  C   UNL     1     -33.428  21.511   0.359  0.00  0.00    +0.037 C 
ATOM     23  C   UNL     1     -33.376  20.180   0.773  0.00  0.00    +0.137 C 
BRANCH  19  24
ATOM     24  O   UNL     1     -36.443  19.936   2.742  0.00  0.00    -0.505 OA
ATOM     25  H   UNL     1     -36.224  19.321   3.413  0.00  0.00    +0.292 HD
ENDBRANCH  19  24
BRANCH  23  26
ATOM     26  O   UNL     1     -32.334  19.389   0.398  0.00  0.00    -0.505 OA
ATOM     27  H   UNL     1     -31.841  18.924   1.045  0.00  0.00    +0.292 HD
ENDBRANCH  23  26
ENDBRANCH   9  18
BRANCH  14  28
ATOM     28  O   UNL     1     -40.207  25.827   3.618  0.00  0.00    -0.505 OA
ATOM     29  H   UNL     1     -39.578  26.516   3.700  0.00  0.00    +0.292 HD
ENDBRANCH  14  28
BRANCH   4  30
ATOM     30  C   UNL     1     -35.366  23.763   3.864  0.00  0.00    +0.035 C 
BRANCH  30  31
ATOM     31  C   UNL     1     -34.533  24.957   3.390  0.00  0.00    +0.032 C 
BRANCH  31  32
ATOM     32  C   UNL     1     -34.479  26.126   4.397  0.00  0.00    +0.089 C 
ATOM     33  C   UNL     1     -34.561  25.652   5.849  0.00  0.00    +0.029 C 
ATOM     34  C   UNL     1     -33.194  26.933   4.189  0.00  0.00    +0.029 C 
BRANCH  32  35
ATOM     35  O   UNL     1     -35.587  27.000   4.169  0.00  0.00    -0.387 OA
ATOM     36  H   UNL     1     -35.467  27.815   4.681  0.00  0.00    +0.210 HD
ENDBRANCH  32  35
ENDBRANCH  31  32
ENDBRANCH  30  31
ENDBRANCH   4  30
TORSDOF 8
ENDMDL
MODEL 5
REMARK VINA RESULT:      -6.6      3.191      8.571
REMARK  Name = 5481968
REMARK  8 active torsions:
REMARK  status: ('A' for Active; 'I' for Inactive)
REMARK    1  A    between atoms: C_4  and  C_30
REMARK    2  A    between atoms: C_9  and  C_18
REMARK    3  A    between atoms: C_14  and  O_28
REMARK    4  A    between atoms: C_19  and  O_24
REMARK    5  A    between atoms: C_23  and  O_26
REMARK    6  A    between atoms: C_30  and  C_31
REMARK    7  A    between atoms: C_31  and  C_32
REMARK    8  A    between atoms: C_32  and  O_35
REMARK                            x       y       z     vdW  Elec       q    Type
REMARK                         _______ _______ _______ _____ _____    ______ ____
ROOT
ATOM      1  O   UNL     1     -44.267  26.915   2.806  0.00  0.00    -0.478 OA
ATOM      2  O   UNL     1     -39.485  26.272   2.768  0.00  0.00    -0.453 OA
ATOM      3  O   UNL     1     -39.878  23.289   0.036  0.00  0.00    -0.287 OA
ATOM      4  C   UNL     1     -38.418  24.590   1.386  0.00  0.00    +0.052 A 
ATOM      5  C   UNL     1     -44.179  27.971   3.782  0.00  0.00    +0.152 C 
ATOM      6  C   UNL     1     -40.735  25.927   2.318  0.00  0.00    +0.154 A 
ATOM      7  C   UNL     1     -40.921  24.911   1.381  0.00  0.00    +0.107 A 
ATOM      8  C   UNL     1     -41.842  26.630   2.827  0.00  0.00    +0.069 C 
ATOM      9  C   UNL     1     -38.382  25.594   2.284  0.00  0.00    +0.147 A 
ATOM     10  C   UNL     1     -39.751  24.185   0.863  0.00  0.00    +0.200 A 
ATOM     11  C   UNL     1     -43.124  26.297   2.380  0.00  0.00    +0.145 C 
ATOM     12  C   UNL     1     -42.789  28.321   4.249  0.00  0.00    +0.013 C 
ATOM     13  C   UNL     1     -41.693  27.700   3.806  0.00  0.00    +0.005 C 
ATOM     14  C   UNL     1     -42.204  24.582   0.940  0.00  0.00    +0.143 C 
ATOM     15  C   UNL     1     -43.302  25.278   1.440  0.00  0.00    +0.074 C 
ATOM     16  C   UNL     1     -44.823  29.206   3.141  0.00  0.00    +0.048 C 
ATOM     17  C   UNL     1     -45.017  27.518   4.984  0.00  0.00    +0.048 C 
ENDROOT
BRANCH   9  18
ATOM     18  C   UNL     1     -37.131  26.094   2.870  0.00  0.00    +0.068 C 
ATOM     19  C   UNL     1     -36.711  25.683   4.137  0.00  0.00    +0.140 C 
ATOM     20  C   UNL     1     -36.355  26.996   2.141  0.00  0.00    +0.009 C 
ATOM     21  C   UNL     1     -35.520  26.172   4.671  0.00  0.00    +0.073 C 
ATOM     22  C   UNL     1     -35.162  27.485   2.675  0.00  0.00    +0.037 C 
ATOM     23  C   UNL     1     -34.744  27.072   3.941  0.00  0.00    +0.137 C 
BRANCH  19  24
ATOM     24  O   UNL     1     -37.450  24.803   4.872  0.00  0.00    -0.505 OA
ATOM     25  H   UNL     1     -37.793  25.060   5.704  0.00  0.00    +0.292 HD
ENDBRANCH  19  24
BRANCH  23  26
ATOM     26  O   UNL     1     -33.582  27.550   4.463  0.00  0.00    -0.505 OA
ATOM     27  H   UNL     1     -33.538  27.791   5.367  0.00  0.00    +0.292 HD
ENDBRANCH  23  26
ENDBRANCH   9  18
BRANCH  14  28
ATOM     28  O   UNL     1     -42.442  23.599   0.027  0.00  0.00    -0.505 OA
ATOM     29  H   UNL     1     -43.109  22.961   0.189  0.00  0.00    +0.292 HD
ENDBRANCH  14  28
BRANCH   4  30
ATOM     30  C   UNL     1     -37.244  23.817   0.858  0.00  0.00    +0.035 C 
BRANCH  30  31
ATOM     31  C   UNL     1     -37.229  22.386   1.402  0.00  0.00    +0.032 C 
BRANCH  31  32
ATOM     32  C   UNL     1     -36.154  22.135   2.482  0.00  0.00    +0.089 C 
ATOM     33  C   UNL     1     -35.571  20.722   2.409  0.00  0.00    +0.029 C 
ATOM     34  C   UNL     1     -35.028  23.165   2.346  0.00  0.00    +0.029 C 
BRANCH  32  35
ATOM     35  O   UNL     1     -36.737  22.291   3.777  0.00  0.00    -0.387 OA
ATOM     36  H   UNL     1     -36.094  22.029   4.455  0.00  0.00    +0.210 HD
ENDBRANCH  32  35
ENDBRANCH  31  32
ENDBRANCH  30  31
ENDBRANCH   4  30
TORSDOF 8
ENDMDL
MODEL 6
REMARK VINA RESULT:      -6.5      2.142      6.804
REMARK  Name = 5481968
REMARK  8 active torsions:
REMARK  status: ('A' for Active; 'I' for Inactive)
REMARK    1  A    between atoms: C_4  and  C_30
REMARK    2  A    between atoms: C_9  and  C_18
REMARK    3  A    between atoms: C_14  and  O_28
REMARK    4  A    between atoms: C_19  and  O_24
REMARK    5  A    between atoms: C_23  and  O_26
REMARK    6  A    between atoms: C_30  and  C_31
REMARK    7  A    between atoms: C_31  and  C_32
REMARK    8  A    between atoms: C_32  and  O_35
REMARK                            x       y       z     vdW  Elec       q    Type
REMARK                         _______ _______ _______ _____ _____    ______ ____
ROOT
ATOM      1  O   UNL     1     -42.292  23.863   0.127  0.00  0.00    -0.478 OA
ATOM      2  O   UNL     1     -37.940  23.675   2.202  0.00  0.00    -0.453 OA
ATOM      3  O   UNL     1     -37.385  19.915   0.764  0.00  0.00    -0.287 OA
ATOM      4  C   UNL     1     -36.511  21.724   2.034  0.00  0.00    +0.052 A 
ATOM      5  C   UNL     1     -42.539  25.193   0.624  0.00  0.00    +0.152 C 
ATOM      6  C   UNL     1     -38.924  23.087   1.447  0.00  0.00    +0.154 A 
ATOM      7  C   UNL     1     -38.780  21.799   0.932  0.00  0.00    +0.107 A 
ATOM      8  C   UNL     1     -40.098  23.821   1.200  0.00  0.00    +0.069 C 
ATOM      9  C   UNL     1     -36.778  22.974   2.461  0.00  0.00    +0.147 A 
ATOM     10  C   UNL     1     -37.546  21.047   1.205  0.00  0.00    +0.200 A 
ATOM     11  C   UNL     1     -41.112  23.241   0.431  0.00  0.00    +0.145 C 
ATOM     12  C   UNL     1     -41.433  25.804   1.446  0.00  0.00    +0.013 C 
ATOM     13  C   UNL     1     -40.291  25.170   1.718  0.00  0.00    +0.005 C 
ATOM     14  C   UNL     1     -39.796  21.227   0.166  0.00  0.00    +0.143 C 
ATOM     15  C   UNL     1     -40.961  21.950  -0.083  0.00  0.00    +0.074 C 
ATOM     16  C   UNL     1     -42.800  26.071  -0.606  0.00  0.00    +0.048 C 
ATOM     17  C   UNL     1     -43.812  25.107   1.474  0.00  0.00    +0.048 C 
ENDROOT
BRANCH   9  18
ATOM     18  C   UNL     1     -35.838  23.753   3.278  0.00  0.00    +0.068 C 
ATOM     19  C   UNL     1     -35.681  23.498   4.642  0.00  0.00    +0.140 C 
ATOM     20  C   UNL     1     -35.092  24.766   2.671  0.00  0.00    +0.009 C 
ATOM     21  C   UNL     1     -34.782  24.252   5.396  0.00  0.00    +0.073 C 
ATOM     22  C   UNL     1     -34.192  25.519   3.426  0.00  0.00    +0.037 C 
ATOM     23  C   UNL     1     -34.037  25.263   4.788  0.00  0.00    +0.137 C 
BRANCH  19  24
ATOM     24  O   UNL     1     -36.397  22.516   5.261  0.00  0.00    -0.505 OA
ATOM     25  H   UNL     1     -36.841  21.868   4.751  0.00  0.00    +0.292 HD
ENDBRANCH  19  24
BRANCH  23  26
ATOM     26  O   UNL     1     -33.161  25.999   5.524  0.00  0.00    -0.505 OA
ATOM     27  H   UNL     1     -32.902  25.707   6.376  0.00  0.00    +0.292 HD
ENDBRANCH  23  26
ENDBRANCH   9  18
BRANCH  14  28
ATOM     28  O   UNL     1     -39.708  19.973  -0.361  0.00  0.00    -0.505 OA
ATOM     29  H   UNL     1     -39.521  19.243   0.196  0.00  0.00    +0.292 HD
ENDBRANCH  14  28
BRANCH   4  30
ATOM     30  C   UNL     1     -35.272  20.925   2.317  0.00  0.00    +0.035 C 
BRANCH  30  31
ATOM     31  C   UNL     1     -34.233  21.093   1.205  0.00  0.00    +0.032 C 
BRANCH  31  32
ATOM     32  C   UNL     1     -33.915  19.792   0.438  0.00  0.00    +0.089 C 
ATOM     33  C   UNL     1     -34.255  19.892  -1.050  0.00  0.00    +0.029 C 
ATOM     34  C   UNL     1     -32.435  19.436   0.607  0.00  0.00    +0.029 C 
BRANCH  32  35
ATOM     35  O   UNL     1     -34.688  18.720   0.982  0.00  0.00    -0.387 OA
ATOM     36  H   UNL     1     -34.600  18.715   1.948  0.00  0.00    +0.210 HD
ENDBRANCH  32  35
ENDBRANCH  31  32
ENDBRANCH  30  31
ENDBRANCH   4  30
TORSDOF 8
ENDMDL
MODEL 7
REMARK VINA RESULT:      -6.4      1.906      7.411
REMARK  Name = 5481968
REMARK  8 active torsions:
REMARK  status: ('A' for Active; 'I' for Inactive)
REMARK    1  A    between atoms: C_4  and  C_30
REMARK    2  A    between atoms: C_9  and  C_18
REMARK    3  A    between atoms: C_14  and  O_28
REMARK    4  A    between atoms: C_19  and  O_24
REMARK    5  A    between atoms: C_23  and  O_26
REMARK    6  A    between atoms: C_30  and  C_31
REMARK    7  A    between atoms: C_31  and  C_32
REMARK    8  A    between atoms: C_32  and  O_35
REMARK                            x       y       z     vdW  Elec       q    Type
REMARK                         _______ _______ _______ _____ _____    ______ ____
ROOT
ATOM      1  O   UNL     1     -34.626  27.533   4.110  0.00  0.00    -0.478 OA
ATOM      2  O   UNL     1     -34.536  23.139   2.119  0.00  0.00    -0.453 OA
ATOM      3  O   UNL     1     -38.469  22.624   3.004  0.00  0.00    -0.287 OA
ATOM      4  C   UNL     1     -36.494  21.712   2.046  0.00  0.00    +0.052 A 
ATOM      5  C   UNL     1     -33.232  27.757   3.827  0.00  0.00    +0.152 C 
ATOM      6  C   UNL     1     -35.221  24.139   2.762  0.00  0.00    +0.154 A 
ATOM      7  C   UNL     1     -36.571  24.009   3.087  0.00  0.00    +0.107 A 
ATOM      8  C   UNL     1     -34.524  25.316   3.092  0.00  0.00    +0.069 C 
ATOM      9  C   UNL     1     -35.198  21.973   1.786  0.00  0.00    +0.147 A 
ATOM     10  C   UNL     1     -37.281  22.769   2.737  0.00  0.00    +0.200 A 
ATOM     11  C   UNL     1     -35.204  26.348   3.745  0.00  0.00    +0.145 C 
ATOM     12  C   UNL     1     -32.516  26.636   3.117  0.00  0.00    +0.013 C 
ATOM     13  C   UNL     1     -33.113  25.494   2.770  0.00  0.00    +0.005 C 
ATOM     14  C   UNL     1     -37.243  25.043   3.740  0.00  0.00    +0.143 C 
ATOM     15  C   UNL     1     -36.557  26.211   4.067  0.00  0.00    +0.074 C 
ATOM     16  C   UNL     1     -33.164  29.025   2.967  0.00  0.00    +0.048 C 
ATOM     17  C   UNL     1     -32.553  28.015   5.178  0.00  0.00    +0.048 C 
ENDROOT
BRANCH   9  18
ATOM     18  C   UNL     1     -34.315  21.017   1.103  0.00  0.00    +0.068 C 
ATOM     19  C   UNL     1     -33.668  21.353  -0.088  0.00  0.00    +0.140 C 
ATOM     20  C   UNL     1     -34.126  19.752   1.661  0.00  0.00    +0.009 C 
ATOM     21  C   UNL     1     -32.836  20.429  -0.717  0.00  0.00    +0.073 C 
ATOM     22  C   UNL     1     -33.293  18.827   1.032  0.00  0.00    +0.037 C 
ATOM     23  C   UNL     1     -32.647  19.165  -0.157  0.00  0.00    +0.137 C 
BRANCH  19  24
ATOM     24  O   UNL     1     -33.835  22.582  -0.656  0.00  0.00    -0.505 OA
ATOM     25  H   UNL     1     -34.665  23.014  -0.604  0.00  0.00    +0.292 HD
ENDBRANCH  19  24
BRANCH  23  26
ATOM     26  O   UNL     1     -31.835  18.262  -0.772  0.00  0.00    -0.505 OA
ATOM     27  H   UNL     1     -30.936  18.472  -0.930  0.00  0.00    +0.292 HD
ENDBRANCH  23  26
ENDBRANCH   9  18
BRANCH  14  28
ATOM     28  O   UNL     1     -38.560  24.969   4.081  0.00  0.00    -0.505 OA
ATOM     29  H   UNL     1     -38.865  25.381   4.866  0.00  0.00    +0.292 HD
ENDBRANCH  14  28
BRANCH   4  30
ATOM     30  C   UNL     1     -37.238  20.448   1.722  0.00  0.00    +0.035 C 
BRANCH  30  31
ATOM     31  C   UNL     1     -37.599  20.379   0.236  0.00  0.00    +0.032 C 
BRANCH  31  32
ATOM     32  C   UNL     1     -37.439  18.975  -0.386  0.00  0.00    +0.089 C 
ATOM     33  C   UNL     1     -38.709  18.500  -1.093  0.00  0.00    +0.029 C 
ATOM     34  C   UNL     1     -36.267  18.972  -1.373  0.00  0.00    +0.029 C 
BRANCH  32  35
ATOM     35  O   UNL     1     -37.145  18.030   0.646  0.00  0.00    -0.387 OA
ATOM     36  H   UNL     1     -37.492  17.160   0.396  0.00  0.00    +0.210 HD
ENDBRANCH  32  35
ENDBRANCH  31  32
ENDBRANCH  30  31
ENDBRANCH   4  30
TORSDOF 8
ENDMDL
MODEL 8
REMARK VINA RESULT:      -6.3      3.561      9.064
REMARK  Name = 5481968
REMARK  8 active torsions:
REMARK  status: ('A' for Active; 'I' for Inactive)
REMARK    1  A    between atoms: C_4  and  C_30
REMARK    2  A    between atoms: C_9  and  C_18
REMARK    3  A    between atoms: C_14  and  O_28
REMARK    4  A    between atoms: C_19  and  O_24
REMARK    5  A    between atoms: C_23  and  O_26
REMARK    6  A    between atoms: C_30  and  C_31
REMARK    7  A    between atoms: C_31  and  C_32
REMARK    8  A    between atoms: C_32  and  O_35
REMARK                            x       y       z     vdW  Elec       q    Type
REMARK                         _______ _______ _______ _____ _____    ______ ____
ROOT
ATOM      1  O   UNL     1     -34.665  31.343   0.150  0.00  0.00    -0.478 OA
ATOM      2  O   UNL     1     -36.629  27.194   1.637  0.00  0.00    -0.453 OA
ATOM      3  O   UNL     1     -34.103  27.105   4.820  0.00  0.00    -0.287 OA
ATOM      4  C   UNL     1     -35.869  26.045   3.632  0.00  0.00    +0.052 A 
ATOM      5  C   UNL     1     -35.532  31.412  -0.999  0.00  0.00    +0.152 C 
ATOM      6  C   UNL     1     -35.716  28.205   1.805  0.00  0.00    +0.154 A 
ATOM      7  C   UNL     1     -34.829  28.219   2.881  0.00  0.00    +0.107 A 
ATOM      8  C   UNL     1     -35.693  29.243   0.856  0.00  0.00    +0.069 C 
ATOM      9  C   UNL     1     -36.670  26.161   2.555  0.00  0.00    +0.147 A 
ATOM     10  C   UNL     1     -34.866  27.122   3.860  0.00  0.00    +0.200 A 
ATOM     11  C   UNL     1     -34.773  30.284   1.009  0.00  0.00    +0.145 C 
ATOM     12  C   UNL     1     -36.522  30.285  -1.146  0.00  0.00    +0.013 C 
ATOM     13  C   UNL     1     -36.603  29.269  -0.283  0.00  0.00    +0.005 C 
ATOM     14  C   UNL     1     -33.912  29.261   3.027  0.00  0.00    +0.143 C 
ATOM     15  C   UNL     1     -33.887  30.292   2.091  0.00  0.00    +0.074 C 
ATOM     16  C   UNL     1     -36.291  32.740  -0.887  0.00  0.00    +0.048 C 
ATOM     17  C   UNL     1     -34.616  31.444  -2.229  0.00  0.00    +0.048 C 
ENDROOT
BRANCH   9  18
ATOM     18  C   UNL     1     -37.704  25.173   2.222  0.00  0.00    +0.068 C 
ATOM     19  C   UNL     1     -39.001  25.286   2.726  0.00  0.00    +0.140 C 
ATOM     20  C   UNL     1     -37.375  24.103   1.387  0.00  0.00    +0.009 C 
ATOM     21  C   UNL     1     -39.965  24.334   2.396  0.00  0.00    +0.073 C 
ATOM     22  C   UNL     1     -38.340  23.152   1.056  0.00  0.00    +0.037 C 
ATOM     23  C   UNL     1     -39.635  23.267   1.560  0.00  0.00    +0.137 C 
BRANCH  19  24
ATOM     24  O   UNL     1     -39.351  26.320   3.544  0.00  0.00    -0.505 OA
ATOM     25  H   UNL     1     -40.157  26.775   3.405  0.00  0.00    +0.292 HD
ENDBRANCH  19  24
BRANCH  23  26
ATOM     26  O   UNL     1     -40.576  22.338   1.238  0.00  0.00    -0.505 OA
ATOM     27  H   UNL     1     -40.317  21.512   0.879  0.00  0.00    +0.292 HD
ENDBRANCH  23  26
ENDBRANCH   9  18
BRANCH  14  28
ATOM     28  O   UNL     1     -33.023  29.324   4.058  0.00  0.00    -0.505 OA
ATOM     29  H   UNL     1     -32.141  29.595   3.900  0.00  0.00    +0.292 HD
ENDBRANCH  14  28
BRANCH   4  30
ATOM     30  C   UNL     1     -35.868  24.927   4.634  0.00  0.00    +0.035 C 
BRANCH  30  31
ATOM     31  C   UNL     1     -34.952  23.783   4.191  0.00  0.00    +0.032 C 
BRANCH  31  32
ATOM     32  C   UNL     1     -35.607  22.386   4.270  0.00  0.00    +0.089 C 
ATOM     33  C   UNL     1     -35.228  21.496   3.085  0.00  0.00    +0.029 C 
ATOM     34  C   UNL     1     -35.211  21.698   5.580  0.00  0.00    +0.029 C 
BRANCH  32  35
ATOM     35  O   UNL     1     -37.029  22.528   4.261  0.00  0.00    -0.387 OA
ATOM     36  H   UNL     1     -37.370  22.308   3.380  0.00  0.00    +0.210 HD
ENDBRANCH  32  35
ENDBRANCH  31  32
ENDBRANCH  30  31
ENDBRANCH   4  30
TORSDOF 8
ENDMDL
MODEL 9
REMARK VINA RESULT:      -6.3      4.120      9.578
REMARK  Name = 5481968
REMARK  8 active torsions:
REMARK  status: ('A' for Active; 'I' for Inactive)
REMARK    1  A    between atoms: C_4  and  C_30
REMARK    2  A    between atoms: C_9  and  C_18
REMARK    3  A    between atoms: C_14  and  O_28
REMARK    4  A    between atoms: C_19  and  O_24
REMARK    5  A    between atoms: C_23  and  O_26
REMARK    6  A    between atoms: C_30  and  C_31
REMARK    7  A    between atoms: C_31  and  C_32
REMARK    8  A    between atoms: C_32  and  O_35
REMARK                            x       y       z     vdW  Elec       q    Type
REMARK                         _______ _______ _______ _____ _____    ______ ____
ROOT
ATOM      1  O   UNL     1     -31.228  31.626   3.335  0.00  0.00    -0.478 OA
ATOM      2  O   UNL     1     -34.201  27.830   3.161  0.00  0.00    -0.453 OA
ATOM      3  O   UNL     1     -32.925  26.625   6.826  0.00  0.00    -0.287 OA
ATOM      4  C   UNL     1     -34.339  26.212   4.960  0.00  0.00    +0.052 A 
ATOM      5  C   UNL     1     -31.641  32.088   2.034  0.00  0.00    +0.152 C 
ATOM      6  C   UNL     1     -33.250  28.566   3.822  0.00  0.00    +0.154 A 
ATOM      7  C   UNL     1     -32.780  28.193   5.081  0.00  0.00    +0.107 A 
ATOM      8  C   UNL     1     -32.749  29.721   3.194  0.00  0.00    +0.069 C 
ATOM      9  C   UNL     1     -34.707  26.690   3.756  0.00  0.00    +0.147 A 
ATOM     10  C   UNL     1     -33.313  26.979   5.719  0.00  0.00    +0.200 A 
ATOM     11  C   UNL     1     -31.781  30.486   3.850  0.00  0.00    +0.145 C 
ATOM     12  C   UNL     1     -32.690  31.254   1.344  0.00  0.00    +0.013 C 
ATOM     13  C   UNL     1     -33.212  30.149   1.880  0.00  0.00    +0.005 C 
ATOM     14  C   UNL     1     -31.812  28.961   5.730  0.00  0.00    +0.143 C 
ATOM     15  C   UNL     1     -31.315  30.107   5.113  0.00  0.00    +0.074 C 
ATOM     16  C   UNL     1     -32.175  33.511   2.231  0.00  0.00    +0.048 C 
ATOM     17  C   UNL     1     -30.376  32.127   1.169  0.00  0.00    +0.048 C 
ENDROOT
BRANCH   9  18
ATOM     18  C   UNL     1     -35.714  26.032   2.913  0.00  0.00    +0.068 C 
ATOM     19  C   UNL     1     -35.340  25.198   1.857  0.00  0.00    +0.140 C 
ATOM     20  C   UNL     1     -37.067  26.250   3.178  0.00  0.00    +0.009 C 
ATOM     21  C   UNL     1     -36.314  24.585   1.070  0.00  0.00    +0.073 C 
ATOM     22  C   UNL     1     -38.042  25.636   2.391  0.00  0.00    +0.037 C 
ATOM     23  C   UNL     1     -37.666  24.803   1.338  0.00  0.00    +0.137 C 
BRANCH  19  24
ATOM     24  O   UNL     1     -34.025  24.967   1.574  0.00  0.00    -0.505 OA
ATOM     25  H   UNL     1     -33.416  25.679   1.564  0.00  0.00    +0.292 HD
ENDBRANCH  19  24
BRANCH  23  26
ATOM     26  O   UNL     1     -38.617  24.205   0.570  0.00  0.00    -0.505 OA
ATOM     27  H   UNL     1     -38.885  24.599  -0.237  0.00  0.00    +0.292 HD
ENDBRANCH  23  26
ENDBRANCH   9  18
BRANCH  14  28
ATOM     28  O   UNL     1     -31.318  28.642   6.960  0.00  0.00    -0.505 OA
ATOM     29  H   UNL     1     -30.674  27.968   7.045  0.00  0.00    +0.292 HD
ENDBRANCH  14  28
BRANCH   4  30
ATOM     30  C   UNL     1     -34.847  24.965   5.625  0.00  0.00    +0.035 C 
BRANCH  30  31
ATOM     31  C   UNL     1     -34.329  23.708   4.922  0.00  0.00    +0.032 C 
BRANCH  31  32
ATOM     32  C   UNL     1     -35.378  22.583   4.790  0.00  0.00    +0.089 C 
ATOM     33  C   UNL     1     -35.211  21.775   3.502  0.00  0.00    +0.029 C 
ATOM     34  C   UNL     1     -35.295  21.648   6.000  0.00  0.00    +0.029 C 
BRANCH  32  35
ATOM     35  O   UNL     1     -36.687  23.156   4.768  0.00  0.00    -0.387 OA
ATOM     36  H   UNL     1     -36.665  24.030   5.188  0.00  0.00    +0.210 HD
ENDBRANCH  32  35
ENDBRANCH  31  32
ENDBRANCH  30  31
ENDBRANCH   4  30
TORSDOF 8
ENDMDL
