MODEL 1
REMARK VINA RESULT:      -6.7      0.000      0.000
REMARK  Name = 196284
REMARK  7 active torsions:
REMARK  status: ('A' for Active; 'I' for Inactive)
REMARK    1  A    between atoms: C_2  and  O_6
REMARK    2  A    between atoms: C_3  and  O_8
REMARK    3  A    between atoms: C_4  and  C_15
REMARK    4  A    between atoms: O_8  and  P_9
REMARK    5  A    between atoms: P_9  and  O_11
REMARK    6  A    between atoms: P_9  and  O_13
REMARK    7  A    between atoms: C_15  and  N_16
REMARK                            x       y       z     vdW  Elec       q    Type
REMARK                         _______ _______ _______ _____ _____    ______ ____
ROOT
ATOM      1  O   UNL     1     -36.085  22.845   3.748  0.00  0.00    -0.329 OA
ATOM      2  C   UNL     1     -34.844  21.521   5.316  0.00  0.00    +0.170 C 
ATOM      3  C   UNL     1     -35.215  21.695   3.840  0.00  0.00    +0.272 C 
ATOM      4  C   UNL     1     -35.763  23.571   4.893  0.00  0.00    +0.140 C 
ATOM      5  C   UNL     1     -35.067  22.900   5.810  0.00  0.00    +0.066 C 
ENDROOT
BRANCH   2   6
ATOM      6  O   UNL     1     -35.733  20.638   5.984  0.00  0.00    -0.379 OA
ATOM      7  H   UNL     1     -36.046  19.962   5.362  0.00  0.00    +0.211 HD
ENDBRANCH   2   6
BRANCH   3   8
ATOM      8  O   UNL     1     -35.825  20.523   3.322  0.00  0.00    -0.245 OA
BRANCH   8   9
ATOM      9  P   UNL     1     -36.587  20.622   1.901  0.00  0.00    +0.475 P 
ATOM     10  O   UNL     1     -35.910  21.484   0.875  0.00  0.00    -0.227 OA
BRANCH   9  11
ATOM     11  O   UNL     1     -38.088  21.070   2.298  0.00  0.00    -0.303 OA
ATOM     12  H   UNL     1     -38.057  21.906   2.791  0.00  0.00    +0.222 HD
ENDBRANCH   9  11
BRANCH   9  13
ATOM     13  O   UNL     1     -36.759  19.070   1.483  0.00  0.00    -0.303 OA
ATOM     14  H   UNL     1     -37.598  18.732   1.833  0.00  0.00    +0.222 HD
ENDBRANCH   9  13
ENDBRANCH   8   9
ENDBRANCH   3   8
BRANCH   4  15
ATOM     15  C   UNL     1     -36.262  24.966   4.975  0.00  0.00    +0.124 C 
BRANCH  15  16
ATOM     16  N   UNL     1     -35.334  25.920   4.372  0.00  0.00    -0.269 N 
ATOM     17  N   UNL     1     -34.418  27.221   2.836  0.00  0.00    -0.242 NA
ATOM     18  N   UNL     1     -33.858  26.346   6.249  0.00  0.00    -0.228 NA
ATOM     19  N   UNL     1     -32.112  27.938   5.637  0.00  0.00    -0.229 NA
ATOM     20  C   UNL     1     -34.278  26.505   4.984  0.00  0.00    +0.151 C 
ATOM     21  C   UNL     1     -33.716  27.316   4.010  0.00  0.00    +0.140 C 
ATOM     22  C   UNL     1     -35.388  26.367   3.090  0.00  0.00    +0.221 C 
ATOM     23  C   UNL     1     -32.593  28.051   4.375  0.00  0.00    +0.143 C 
ATOM     24  C   UNL     1     -32.765  27.105   6.483  0.00  0.00    +0.253 C 
ATOM     25  N   UNL     1     -31.959  28.900   3.451  0.00  0.00    -0.342 N 
ATOM     26  H   UNL     1     -31.164  29.415   3.719  0.00  0.00    +0.144 HD
ATOM     27  H   UNL     1     -32.311  28.979   2.535  0.00  0.00    +0.144 HD
ENDBRANCH  15  16
ENDBRANCH   4  15
TORSDOF 7
ENDMDL
MODEL 2
REMARK VINA RESULT:      -6.3      4.969      7.437
REMARK  Name = 196284
REMARK  7 active torsions:
REMARK  status: ('A' for Active; 'I' for Inactive)
REMARK    1  A    between atoms: C_2  and  O_6
REMARK    2  A    between atoms: C_3  and  O_8
REMARK    3  A    between atoms: C_4  and  C_15
REMARK    4  A    between atoms: O_8  and  P_9
REMARK    5  A    between atoms: P_9  and  O_11
REMARK    6  A    between atoms: P_9  and  O_13
REMARK    7  A    between atoms: C_15  and  N_16
REMARK                            x       y       z     vdW  Elec       q    Type
REMARK                         _______ _______ _______ _____ _____    ______ ____
ROOT
ATOM      1  O   UNL     1     -34.221  26.729   5.485  0.00  0.00    -0.329 OA
ATOM      2  C   UNL     1     -34.106  27.786   3.336  0.00  0.00    +0.170 C 
ATOM      3  C   UNL     1     -33.304  27.373   4.574  0.00  0.00    +0.272 C 
ATOM      4  C   UNL     1     -35.244  26.295   4.643  0.00  0.00    +0.140 C 
ATOM      5  C   UNL     1     -35.240  26.836   3.426  0.00  0.00    +0.066 C 
ENDROOT
BRANCH   2   6
ATOM      6  O   UNL     1     -34.599  29.113   3.444  0.00  0.00    -0.379 OA
ATOM      7  H   UNL     1     -34.491  29.425   4.356  0.00  0.00    +0.211 HD
ENDBRANCH   2   6
BRANCH   3   8
ATOM      8  O   UNL     1     -32.661  28.491   5.166  0.00  0.00    -0.245 OA
BRANCH   8   9
ATOM      9  P   UNL     1     -31.494  28.217   6.249  0.00  0.00    +0.475 P 
ATOM     10  O   UNL     1     -30.117  28.060   5.674  0.00  0.00    -0.227 OA
BRANCH   9  11
ATOM     11  O   UNL     1     -32.040  26.950   7.092  0.00  0.00    -0.303 OA
ATOM     12  H   UNL     1     -31.459  26.187   6.942  0.00  0.00    +0.222 HD
ENDBRANCH   9  11
BRANCH   9  13
ATOM     13  O   UNL     1     -31.668  29.452   7.277  0.00  0.00    -0.303 OA
ATOM     14  H   UNL     1     -31.800  29.109   8.175  0.00  0.00    +0.222 HD
ENDBRANCH   9  13
ENDBRANCH   8   9
ENDBRANCH   3   8
BRANCH   4  15
ATOM     15  C   UNL     1     -36.223  25.332   5.205  0.00  0.00    +0.124 C 
BRANCH  15  16
ATOM     16  N   UNL     1     -36.371  24.144   4.367  0.00  0.00    -0.269 N 
ATOM     17  N   UNL     1     -35.853  22.229   3.389  0.00  0.00    -0.242 NA
ATOM     18  N   UNL     1     -38.603  24.499   3.488  0.00  0.00    -0.228 NA
ATOM     19  N   UNL     1     -39.249  22.679   1.996  0.00  0.00    -0.229 NA
ATOM     20  C   UNL     1     -37.454  23.820   3.621  0.00  0.00    +0.151 C 
ATOM     21  C   UNL     1     -37.113  22.620   3.017  0.00  0.00    +0.140 C 
ATOM     22  C   UNL     1     -35.433  23.174   4.205  0.00  0.00    +0.221 C 
ATOM     23  C   UNL     1     -38.064  22.048   2.178  0.00  0.00    +0.143 C 
ATOM     24  C   UNL     1     -39.442  23.849   2.652  0.00  0.00    +0.253 C 
ATOM     25  N   UNL     1     -37.805  20.831   1.524  0.00  0.00    -0.342 N 
ATOM     26  H   UNL     1     -38.484  20.434   0.932  0.00  0.00    +0.144 HD
ATOM     27  H   UNL     1     -36.943  20.374   1.659  0.00  0.00    +0.144 HD
ENDBRANCH  15  16
ENDBRANCH   4  15
TORSDOF 7
ENDMDL
MODEL 3
REMARK VINA RESULT:      -6.2      4.834      7.096
REMARK  Name = 196284
REMARK  7 active torsions:
REMARK  status: ('A' for Active; 'I' for Inactive)
REMARK    1  A    between atoms: C_2  and  O_6
REMARK    2  A    between atoms: C_3  and  O_8
REMARK    3  A    between atoms: C_4  and  C_15
REMARK    4  A    between atoms: O_8  and  P_9
REMARK    5  A    between atoms: P_9  and  O_11
REMARK    6  A    between atoms: P_9  and  O_13
REMARK    7  A    between atoms: C_15  and  N_16
REMARK                            x       y       z     vdW  Elec       q    Type
REMARK                         _______ _______ _______ _____ _____    ______ ____
ROOT
ATOM      1  O   UNL     1     -34.390  26.947   5.173  0.00  0.00    -0.329 OA
ATOM      2  C   UNL     1     -33.917  28.186   3.176  0.00  0.00    +0.170 C 
ATOM      3  C   UNL     1     -33.319  27.605   4.462  0.00  0.00    +0.272 C 
ATOM      4  C   UNL     1     -35.308  26.665   4.164  0.00  0.00    +0.140 C 
ATOM      5  C   UNL     1     -35.105  27.315   3.019  0.00  0.00    +0.066 C 
ENDROOT
BRANCH   2   6
ATOM      6  O   UNL     1     -34.343  29.529   3.350  0.00  0.00    -0.379 OA
ATOM      7  H   UNL     1     -34.176  29.805   4.266  0.00  0.00    +0.211 HD
ENDBRANCH   2   6
BRANCH   3   8
ATOM      8  O   UNL     1     -32.702  28.616   5.243  0.00  0.00    -0.245 OA
BRANCH   8   9
ATOM      9  P   UNL     1     -31.585  28.172   6.322  0.00  0.00    +0.475 P 
ATOM     10  O   UNL     1     -30.220  27.913   5.755  0.00  0.00    -0.227 OA
BRANCH   9  11
ATOM     11  O   UNL     1     -32.264  26.921   7.089  0.00  0.00    -0.303 OA
ATOM     12  H   UNL     1     -31.570  26.352   7.458  0.00  0.00    +0.222 HD
ENDBRANCH   9  11
BRANCH   9  13
ATOM     13  O   UNL     1     -31.656  29.361   7.415  0.00  0.00    -0.303 OA
ATOM     14  H   UNL     1     -31.297  29.047   8.260  0.00  0.00    +0.222 HD
ENDBRANCH   9  13
ENDBRANCH   8   9
ENDBRANCH   3   8
BRANCH   4  15
ATOM     15  C   UNL     1     -36.410  25.726   4.491  0.00  0.00    +0.124 C 
BRANCH  15  16
ATOM     16  N   UNL     1     -36.298  24.468   3.755  0.00  0.00    -0.269 N 
ATOM     17  N   UNL     1     -36.415  23.048   2.064  0.00  0.00    -0.242 NA
ATOM     18  N   UNL     1     -35.438  23.014   5.495  0.00  0.00    -0.228 NA
ATOM     19  N   UNL     1     -35.102  20.750   4.647  0.00  0.00    -0.229 NA
ATOM     20  C   UNL     1     -35.858  23.287   4.250  0.00  0.00    +0.151 C 
ATOM     21  C   UNL     1     -35.938  22.410   3.180  0.00  0.00    +0.140 C 
ATOM     22  C   UNL     1     -36.624  24.290   2.447  0.00  0.00    +0.221 C 
ATOM     23  C   UNL     1     -35.538  21.098   3.412  0.00  0.00    +0.143 C 
ATOM     24  C   UNL     1     -35.080  21.715   5.598  0.00  0.00    +0.253 C 
ATOM     25  N   UNL     1     -35.584  20.141   2.384  0.00  0.00    -0.342 N 
ATOM     26  H   UNL     1     -35.299  19.215   2.559  0.00  0.00    +0.144 HD
ATOM     27  H   UNL     1     -35.900  20.397   1.487  0.00  0.00    +0.144 HD
ENDBRANCH  15  16
ENDBRANCH   4  15
TORSDOF 7
ENDMDL
MODEL 4
REMARK VINA RESULT:      -6.0      4.952      7.455
REMARK  Name = 196284
REMARK  7 active torsions:
REMARK  status: ('A' for Active; 'I' for Inactive)
REMARK    1  A    between atoms: C_2  and  O_6
REMARK    2  A    between atoms: C_3  and  O_8
REMARK    3  A    between atoms: C_4  and  C_15
REMARK    4  A    between atoms: O_8  and  P_9
REMARK    5  A    between atoms: P_9  and  O_11
REMARK    6  A    between atoms: P_9  and  O_13
REMARK    7  A    between atoms: C_15  and  N_16
REMARK                            x       y       z     vdW  Elec       q    Type
REMARK                         _______ _______ _______ _____ _____    ______ ____
ROOT
ATOM      1  O   UNL     1     -33.391  26.323   4.968  0.00  0.00    -0.329 OA
ATOM      2  C   UNL     1     -33.894  27.816   3.160  0.00  0.00    +0.170 C 
ATOM      3  C   UNL     1     -32.920  27.516   4.304  0.00  0.00    +0.272 C 
ATOM      4  C   UNL     1     -34.154  25.699   3.982  0.00  0.00    +0.140 C 
ATOM      5  C   UNL     1     -34.468  26.467   2.941  0.00  0.00    +0.066 C 
ENDROOT
BRANCH   2   6
ATOM      6  O   UNL     1     -34.927  28.702   3.563  0.00  0.00    -0.379 OA
ATOM      7  H   UNL     1     -35.716  28.548   3.019  0.00  0.00    +0.211 HD
ENDBRANCH   2   6
BRANCH   3   8
ATOM      8  O   UNL     1     -32.820  28.617   5.194  0.00  0.00    -0.245 OA
BRANCH   8   9
ATOM      9  P   UNL     1     -31.814  28.493   6.452  0.00  0.00    +0.475 P 
ATOM     10  O   UNL     1     -31.470  29.791   7.122  0.00  0.00    -0.227 OA
BRANCH   9  11
ATOM     11  O   UNL     1     -30.558  27.665   5.861  0.00  0.00    -0.303 OA
ATOM     12  H   UNL     1     -29.856  27.622   6.530  0.00  0.00    +0.222 HD
ENDBRANCH   9  11
BRANCH   9  13
ATOM     13  O   UNL     1     -32.560  27.414   7.397  0.00  0.00    -0.303 OA
ATOM     14  H   UNL     1     -32.592  26.556   6.946  0.00  0.00    +0.222 HD
ENDBRANCH   9  13
ENDBRANCH   8   9
ENDBRANCH   3   8
BRANCH   4  15
ATOM     15  C   UNL     1     -34.556  24.291   4.225  0.00  0.00    +0.124 C 
BRANCH  15  16
ATOM     16  N   UNL     1     -35.944  24.041   3.840  0.00  0.00    -0.269 N 
ATOM     17  N   UNL     1     -38.133  24.324   3.707  0.00  0.00    -0.242 NA
ATOM     18  N   UNL     1     -35.673  22.047   2.486  0.00  0.00    -0.228 NA
ATOM     19  N   UNL     1     -37.825  21.283   1.626  0.00  0.00    -0.229 NA
ATOM     20  C   UNL     1     -36.388  23.025   3.062  0.00  0.00    +0.151 C 
ATOM     21  C   UNL     1     -37.758  23.218   2.989  0.00  0.00    +0.140 C 
ATOM     22  C   UNL     1     -37.011  24.797   4.209  0.00  0.00    +0.221 C 
ATOM     23  C   UNL     1     -38.482  22.299   2.236  0.00  0.00    +0.143 C 
ATOM     24  C   UNL     1     -36.481  21.221   1.786  0.00  0.00    +0.253 C 
ATOM     25  N   UNL     1     -39.877  22.416   2.105  0.00  0.00    -0.342 N 
ATOM     26  H   UNL     1     -40.379  21.761   1.570  0.00  0.00    +0.144 HD
ATOM     27  H   UNL     1     -40.351  23.157   2.550  0.00  0.00    +0.144 HD
ENDBRANCH  15  16
ENDBRANCH   4  15
TORSDOF 7
ENDMDL
MODEL 5
REMARK VINA RESULT:      -6.0      1.416      1.896
REMARK  Name = 196284
REMARK  7 active torsions:
REMARK  status: ('A' for Active; 'I' for Inactive)
REMARK    1  A    between atoms: C_2  and  O_6
REMARK    2  A    between atoms: C_3  and  O_8
REMARK    3  A    between atoms: C_4  and  C_15
REMARK    4  A    between atoms: O_8  and  P_9
REMARK    5  A    between atoms: P_9  and  O_11
REMARK    6  A    between atoms: P_9  and  O_13
REMARK    7  A    between atoms: C_15  and  N_16
REMARK                            x       y       z     vdW  Elec       q    Type
REMARK                         _______ _______ _______ _____ _____    ______ ____
ROOT
ATOM      1  O   UNL     1     -37.342  23.508   3.544  0.00  0.00    -0.329 OA
ATOM      2  C   UNL     1     -35.704  21.842   3.003  0.00  0.00    +0.170 C 
ATOM      3  C   UNL     1     -37.022  22.491   2.569  0.00  0.00    +0.272 C 
ATOM      4  C   UNL     1     -36.099  23.809   4.099  0.00  0.00    +0.140 C 
ATOM      5  C   UNL     1     -35.135  22.929   3.835  0.00  0.00    +0.066 C 
ENDROOT
BRANCH   2   6
ATOM      6  O   UNL     1     -35.919  20.698   3.815  0.00  0.00    -0.379 OA
ATOM      7  H   UNL     1     -35.189  20.071   3.690  0.00  0.00    +0.211 HD
ENDBRANCH   2   6
BRANCH   3   8
ATOM      8  O   UNL     1     -38.055  21.525   2.449  0.00  0.00    -0.245 OA
BRANCH   8   9
ATOM      9  P   UNL     1     -39.408  21.946   1.672  0.00  0.00    +0.475 P 
ATOM     10  O   UNL     1     -39.287  22.019   0.178  0.00  0.00    -0.227 OA
BRANCH   9  11
ATOM     11  O   UNL     1     -39.858  23.318   2.398  0.00  0.00    -0.303 OA
ATOM     12  H   UNL     1     -39.886  23.182   3.359  0.00  0.00    +0.222 HD
ENDBRANCH   9  11
BRANCH   9  13
ATOM     13  O   UNL     1     -40.479  20.866   2.219  0.00  0.00    -0.303 OA
ATOM     14  H   UNL     1     -41.164  20.721   1.547  0.00  0.00    +0.222 HD
ENDBRANCH   9  13
ENDBRANCH   8   9
ENDBRANCH   3   8
BRANCH   4  15
ATOM     15  C   UNL     1     -36.008  25.029   4.939  0.00  0.00    +0.124 C 
BRANCH  15  16
ATOM     16  N   UNL     1     -35.037  25.987   4.415  0.00  0.00    -0.269 N 
ATOM     17  N   UNL     1     -34.004  27.296   2.963  0.00  0.00    -0.242 NA
ATOM     18  N   UNL     1     -33.718  26.410   6.406  0.00  0.00    -0.228 NA
ATOM     19  N   UNL     1     -31.933  28.009   5.942  0.00  0.00    -0.229 NA
ATOM     20  C   UNL     1     -34.035  26.573   5.113  0.00  0.00    +0.151 C 
ATOM     21  C   UNL     1     -33.399  27.388   4.190  0.00  0.00    +0.140 C 
ATOM     22  C   UNL     1     -34.989  26.439   3.135  0.00  0.00    +0.221 C 
ATOM     23  C   UNL     1     -32.310  28.125   4.646  0.00  0.00    +0.143 C 
ATOM     24  C   UNL     1     -32.649  27.171   6.731  0.00  0.00    +0.253 C 
ATOM     25  N   UNL     1     -31.606  28.978   3.780  0.00  0.00    -0.342 N 
ATOM     26  H   UNL     1     -30.838  29.494   4.113  0.00  0.00    +0.144 HD
ATOM     27  H   UNL     1     -31.884  29.061   2.838  0.00  0.00    +0.144 HD
ENDBRANCH  15  16
ENDBRANCH   4  15
TORSDOF 7
ENDMDL
MODEL 6
REMARK VINA RESULT:      -6.0      2.469      4.075
REMARK  Name = 196284
REMARK  7 active torsions:
REMARK  status: ('A' for Active; 'I' for Inactive)
REMARK    1  A    between atoms: C_2  and  O_6
REMARK    2  A    between atoms: C_3  and  O_8
REMARK    3  A    between atoms: C_4  and  C_15
REMARK    4  A    between atoms: O_8  and  P_9
REMARK    5  A    between atoms: P_9  and  O_11
REMARK    6  A    between atoms: P_9  and  O_13
REMARK    7  A    between atoms: C_15  and  N_16
REMARK                            x       y       z     vdW  Elec       q    Type
REMARK                         _______ _______ _______ _____ _____    ______ ____
ROOT
ATOM      1  O   UNL     1     -36.166  22.924   3.890  0.00  0.00    -0.329 OA
ATOM      2  C   UNL     1     -34.834  21.575   5.358  0.00  0.00    +0.170 C 
ATOM      3  C   UNL     1     -35.258  21.800   3.903  0.00  0.00    +0.272 C 
ATOM      4  C   UNL     1     -35.830  23.610   5.055  0.00  0.00    +0.140 C 
ATOM      5  C   UNL     1     -35.084  22.923   5.919  0.00  0.00    +0.066 C 
ENDROOT
BRANCH   2   6
ATOM      6  O   UNL     1     -35.673  20.635   6.014  0.00  0.00    -0.379 OA
ATOM      7  H   UNL     1     -36.318  20.281   5.382  0.00  0.00    +0.211 HD
ENDBRANCH   2   6
BRANCH   3   8
ATOM      8  O   UNL     1     -35.847  20.632   3.353  0.00  0.00    -0.245 OA
BRANCH   8   9
ATOM      9  P   UNL     1     -35.564  20.293   1.800  0.00  0.00    +0.475 P 
ATOM     10  O   UNL     1     -35.444  21.487   0.899  0.00  0.00    -0.227 OA
BRANCH   9  11
ATOM     11  O   UNL     1     -36.736  19.249   1.412  0.00  0.00    -0.303 OA
ATOM     12  H   UNL     1     -37.352  19.164   2.157  0.00  0.00    +0.222 HD
ENDBRANCH   9  11
BRANCH   9  13
ATOM     13  O   UNL     1     -34.245  19.361   1.876  0.00  0.00    -0.303 OA
ATOM     14  H   UNL     1     -34.343  18.610   1.269  0.00  0.00    +0.222 HD
ENDBRANCH   9  13
ENDBRANCH   8   9
ENDBRANCH   3   8
BRANCH   4  15
ATOM     15  C   UNL     1     -36.369  24.983   5.214  0.00  0.00    +0.124 C 
BRANCH  15  16
ATOM     16  N   UNL     1     -36.736  25.582   3.933  0.00  0.00    -0.269 N 
ATOM     17  N   UNL     1     -36.534  26.752   2.067  0.00  0.00    -0.242 NA
ATOM     18  N   UNL     1     -39.018  24.792   3.714  0.00  0.00    -0.228 NA
ATOM     19  N   UNL     1     -40.021  25.598   1.639  0.00  0.00    -0.229 NA
ATOM     20  C   UNL     1     -37.931  25.466   3.308  0.00  0.00    +0.151 C 
ATOM     21  C   UNL     1     -37.788  26.202   2.142  0.00  0.00    +0.140 C 
ATOM     22  C   UNL     1     -35.925  26.357   3.166  0.00  0.00    +0.221 C 
ATOM     23  C   UNL     1     -38.888  26.254   1.292  0.00  0.00    +0.143 C 
ATOM     24  C   UNL     1     -40.016  24.917   2.811  0.00  0.00    +0.253 C 
ATOM     25  N   UNL     1     -38.831  26.977   0.088  0.00  0.00    -0.342 N 
ATOM     26  H   UNL     1     -39.615  27.008  -0.506  0.00  0.00    +0.144 HD
ATOM     27  H   UNL     1     -38.006  27.453  -0.161  0.00  0.00    +0.144 HD
ENDBRANCH  15  16
ENDBRANCH   4  15
TORSDOF 7
ENDMDL
MODEL 7
REMARK VINA RESULT:      -5.9      1.596      2.654
REMARK  Name = 196284
REMARK  7 active torsions:
REMARK  status: ('A' for Active; 'I' for Inactive)
REMARK    1  A    between atoms: C_2  and  O_6
REMARK    2  A    between atoms: C_3  and  O_8
REMARK    3  A    between atoms: C_4  and  C_15
REMARK    4  A    between atoms: O_8  and  P_9
REMARK    5  A    between atoms: P_9  and  O_11
REMARK    6  A    between atoms: P_9  and  O_13
REMARK    7  A    between atoms: C_15  and  N_16
REMARK                            x       y       z     vdW  Elec       q    Type
REMARK                         _______ _______ _______ _____ _____    ______ ____
ROOT
ATOM      1  O   UNL     1     -37.453  23.617   3.660  0.00  0.00    -0.329 OA
ATOM      2  C   UNL     1     -35.684  22.112   3.063  0.00  0.00    +0.170 C 
ATOM      3  C   UNL     1     -37.037  22.690   2.634  0.00  0.00    +0.272 C 
ATOM      4  C   UNL     1     -36.249  23.971   4.267  0.00  0.00    +0.140 C 
ATOM      5  C   UNL     1     -35.217  23.181   3.977  0.00  0.00    +0.066 C 
ENDROOT
BRANCH   2   6
ATOM      6  O   UNL     1     -35.834  20.905   3.796  0.00  0.00    -0.379 OA
ATOM      7  H   UNL     1     -36.135  20.200   3.201  0.00  0.00    +0.211 HD
ENDBRANCH   2   6
BRANCH   3   8
ATOM      8  O   UNL     1     -37.992  21.662   2.425  0.00  0.00    -0.245 OA
BRANCH   8   9
ATOM      9  P   UNL     1     -39.381  22.046   1.696  0.00  0.00    +0.475 P 
ATOM     10  O   UNL     1     -39.304  22.165   0.202  0.00  0.00    -0.227 OA
BRANCH   9  11
ATOM     11  O   UNL     1     -39.868  23.378   2.471  0.00  0.00    -0.303 OA
ATOM     12  H   UNL     1     -40.647  23.747   2.023  0.00  0.00    +0.222 HD
ENDBRANCH   9  11
BRANCH   9  13
ATOM     13  O   UNL     1     -40.392  20.908   2.238  0.00  0.00    -0.303 OA
ATOM     14  H   UNL     1     -40.558  21.046   3.185  0.00  0.00    +0.222 HD
ENDBRANCH   9  13
ENDBRANCH   8   9
ENDBRANCH   3   8
BRANCH   4  15
ATOM     15  C   UNL     1     -36.269  25.138   5.184  0.00  0.00    +0.124 C 
BRANCH  15  16
ATOM     16  N   UNL     1     -35.088  25.984   5.023  0.00  0.00    -0.269 N 
ATOM     17  N   UNL     1     -33.150  26.937   5.500  0.00  0.00    -0.242 NA
ATOM     18  N   UNL     1     -35.543  26.970   2.854  0.00  0.00    -0.228 NA
ATOM     19  N   UNL     1     -33.753  28.494   2.200  0.00  0.00    -0.229 NA
ATOM     20  C   UNL     1     -34.813  26.782   3.964  0.00  0.00    +0.151 C 
ATOM     21  C   UNL     1     -33.598  27.370   4.278  0.00  0.00    +0.140 C 
ATOM     22  C   UNL     1     -34.076  26.101   5.922  0.00  0.00    +0.221 C 
ATOM     23  C   UNL     1     -33.068  28.255   3.344  0.00  0.00    +0.143 C 
ATOM     24  C   UNL     1     -34.931  27.846   2.028  0.00  0.00    +0.253 C 
ATOM     25  N   UNL     1     -31.840  28.897   3.579  0.00  0.00    -0.342 N 
ATOM     26  H   UNL     1     -31.474  29.521   2.912  0.00  0.00    +0.144 HD
ATOM     27  H   UNL     1     -31.345  28.720   4.412  0.00  0.00    +0.144 HD
ENDBRANCH  15  16
ENDBRANCH   4  15
TORSDOF 7
ENDMDL
MODEL 8
REMARK VINA RESULT:      -5.7      4.950      7.379
REMARK  Name = 196284
REMARK  7 active torsions:
REMARK  status: ('A' for Active; 'I' for Inactive)
REMARK    1  A    between atoms: C_2  and  O_6
REMARK    2  A    between atoms: C_3  and  O_8
REMARK    3  A    between atoms: C_4  and  C_15
REMARK    4  A    between atoms: O_8  and  P_9
REMARK    5  A    between atoms: P_9  and  O_11
REMARK    6  A    between atoms: P_9  and  O_13
REMARK    7  A    between atoms: C_15  and  N_16
REMARK                            x       y       z     vdW  Elec       q    Type
REMARK                         _______ _______ _______ _____ _____    ______ ____
ROOT
ATOM      1  O   UNL     1     -33.067  26.910   4.270  0.00  0.00    -0.329 OA
ATOM      2  C   UNL     1     -33.069  28.988   3.074  0.00  0.00    +0.170 C 
ATOM      3  C   UNL     1     -32.401  28.189   4.197  0.00  0.00    +0.272 C 
ATOM      4  C   UNL     1     -33.610  26.769   2.994  0.00  0.00    +0.140 C 
ATOM      5  C   UNL     1     -33.639  27.884   2.266  0.00  0.00    +0.066 C 
ENDROOT
BRANCH   2   6
ATOM      6  O   UNL     1     -34.125  29.803   3.560  0.00  0.00    -0.379 OA
ATOM      7  H   UNL     1     -33.899  30.131   4.445  0.00  0.00    +0.211 HD
ENDBRANCH   2   6
BRANCH   3   8
ATOM      8  O   UNL     1     -32.458  28.891   5.430  0.00  0.00    -0.245 OA
BRANCH   8   9
ATOM      9  P   UNL     1     -31.612  28.311   6.678  0.00  0.00    +0.475 P 
ATOM     10  O   UNL     1     -30.256  27.770   6.331  0.00  0.00    -0.227 OA
BRANCH   9  11
ATOM     11  O   UNL     1     -32.621  27.256   7.372  0.00  0.00    -0.303 OA
ATOM     12  H   UNL     1     -32.681  26.458   6.823  0.00  0.00    +0.222 HD
ENDBRANCH   9  11
BRANCH   9  13
ATOM     13  O   UNL     1     -31.607  29.556   7.710  0.00  0.00    -0.303 OA
ATOM     14  H   UNL     1     -30.865  30.146   7.502  0.00  0.00    +0.222 HD
ENDBRANCH   9  13
ENDBRANCH   8   9
ENDBRANCH   3   8
BRANCH   4  15
ATOM     15  C   UNL     1     -34.123  25.428   2.619  0.00  0.00    +0.124 C 
BRANCH  15  16
ATOM     16  N   UNL     1     -35.463  25.183   3.148  0.00  0.00    -0.269 N 
ATOM     17  N   UNL     1     -37.047  24.392   4.473  0.00  0.00    -0.242 NA
ATOM     18  N   UNL     1     -36.799  26.449   1.569  0.00  0.00    -0.228 NA
ATOM     19  N   UNL     1     -39.172  26.294   2.118  0.00  0.00    -0.229 NA
ATOM     20  C   UNL     1     -36.623  25.663   2.642  0.00  0.00    +0.151 C 
ATOM     21  C   UNL     1     -37.604  25.159   3.482  0.00  0.00    +0.140 C 
ATOM     22  C   UNL     1     -35.751  24.427   4.240  0.00  0.00    +0.221 C 
ATOM     23  C   UNL     1     -38.920  25.503   3.189  0.00  0.00    +0.143 C 
ATOM     24  C   UNL     1     -38.111  26.712   1.385  0.00  0.00    +0.253 C 
ATOM     25  N   UNL     1     -39.979  25.038   3.988  0.00  0.00    -0.342 N 
ATOM     26  H   UNL     1     -40.906  25.286   3.771  0.00  0.00    +0.144 HD
ATOM     27  H   UNL     1     -39.792  24.463   4.766  0.00  0.00    +0.144 HD
ENDBRANCH  15  16
ENDBRANCH   4  15
TORSDOF 7
ENDMDL
MODEL 9
REMARK VINA RESULT:      -5.7      1.412      2.306
REMARK  Name = 196284
REMARK  7 active torsions:
REMARK  status: ('A' for Active; 'I' for Inactive)
REMARK    1  A    between atoms: C_2  and  O_6
REMARK    2  A    between atoms: C_3  and  O_8
REMARK    3  A    between atoms: C_4  and  C_15
REMARK    4  A    between atoms: O_8  and  P_9
REMARK    5  A    between atoms: P_9  and  O_11
REMARK    6  A    between atoms: P_9  and  O_13
REMARK    7  A    between atoms: C_15  and  N_16
REMARK                            x       y       z     vdW  Elec       q    Type
REMARK                         _______ _______ _______ _____ _____    ______ ____
ROOT
ATOM      1  O   UNL     1     -36.229  23.360   3.646  0.00  0.00    -0.329 OA
ATOM      2  C   UNL     1     -38.302  23.735   2.501  0.00  0.00    +0.170 C 
ATOM      3  C   UNL     1     -37.291  22.674   2.948  0.00  0.00    +0.272 C 
ATOM      4  C   UNL     1     -36.843  24.539   4.067  0.00  0.00    +0.140 C 
ATOM      5  C   UNL     1     -38.006  24.811   3.477  0.00  0.00    +0.066 C 
ENDROOT
BRANCH   2   6
ATOM      6  O   UNL     1     -38.030  24.207   1.190  0.00  0.00    -0.379 OA
ATOM      7  H   UNL     1     -37.618  25.084   1.241  0.00  0.00    +0.211 HD
ENDBRANCH   2   6
BRANCH   3   8
ATOM      8  O   UNL     1     -36.807  21.929   1.841  0.00  0.00    -0.245 OA
BRANCH   8   9
ATOM      9  P   UNL     1     -35.835  20.672   2.134  0.00  0.00    +0.475 P 
ATOM     10  O   UNL     1     -34.500  20.727   1.451  0.00  0.00    -0.227 OA
BRANCH   9  11
ATOM     11  O   UNL     1     -36.746  19.387   1.769  0.00  0.00    -0.303 OA
ATOM     12  H   UNL     1     -36.357  18.592   2.168  0.00  0.00    +0.222 HD
ENDBRANCH   9  11
BRANCH   9  13
ATOM     13  O   UNL     1     -35.775  20.639   3.749  0.00  0.00    -0.303 OA
ATOM     14  H   UNL     1     -36.669  20.750   4.109  0.00  0.00    +0.222 HD
ENDBRANCH   9  13
ENDBRANCH   8   9
ENDBRANCH   3   8
BRANCH   4  15
ATOM     15  C   UNL     1     -36.122  25.359   5.071  0.00  0.00    +0.124 C 
BRANCH  15  16
ATOM     16  N   UNL     1     -35.063  26.165   4.466  0.00  0.00    -0.269 N 
ATOM     17  N   UNL     1     -33.924  27.244   2.908  0.00  0.00    -0.242 NA
ATOM     18  N   UNL     1     -33.665  26.583   6.404  0.00  0.00    -0.228 NA
ATOM     19  N   UNL     1     -31.727  27.938   5.800  0.00  0.00    -0.229 NA
ATOM     20  C   UNL     1     -33.989  26.686   5.106  0.00  0.00    +0.151 C 
ATOM     21  C   UNL     1     -33.288  27.358   4.117  0.00  0.00    +0.140 C 
ATOM     22  C   UNL     1     -34.993  26.515   3.155  0.00  0.00    +0.221 C 
ATOM     23  C   UNL     1     -32.116  28.001   4.504  0.00  0.00    +0.143 C 
ATOM     24  C   UNL     1     -32.514  27.243   6.657  0.00  0.00    +0.253 C 
ATOM     25  N   UNL     1     -31.342  28.707   3.568  0.00  0.00    -0.342 N 
ATOM     26  H   UNL     1     -30.515  29.159   3.852  0.00  0.00    +0.144 HD
ATOM     27  H   UNL     1     -31.628  28.752   2.627  0.00  0.00    +0.144 HD
ENDBRANCH  15  16
ENDBRANCH   4  15
TORSDOF 7
ENDMDL
