MODEL 1
REMARK VINA RESULT:      -7.2      0.000      0.000
REMARK  Name = 194524
REMARK  8 active torsions:
REMARK  status: ('A' for Active; 'I' for Inactive)
REMARK    1  A    between atoms: N_3  and  C_20
REMARK    2  A    between atoms: C_4  and  N_9
REMARK    3  A    between atoms: C_10  and  O_12
REMARK    4  A    between atoms: O_12  and  C_13
REMARK    5  A    between atoms: C_13  and  C_14
REMARK    6  A    between atoms: C_20  and  C_23
REMARK    7  A    between atoms: C_20  and  C_26
REMARK    8  A    between atoms: C_26  and  C_27
REMARK                            x       y       z     vdW  Elec       q    Type
REMARK                         _______ _______ _______ _____ _____    ______ ____
ROOT
ATOM      1  O   UNL     1     -35.521  20.627   3.329  0.00  0.00    -0.273 OA
ATOM      2  O   UNL     1     -35.805  22.670  -0.805  0.00  0.00    -0.274 OA
ATOM      3  N   UNL     1     -35.577  21.337   1.103  0.00  0.00    -0.221 N 
ATOM      4  C   UNL     1     -36.396  22.800   2.719  0.00  0.00    +0.161 C 
ATOM      5  C   UNL     1     -36.597  23.420   1.345  0.00  0.00    +0.115 C 
ATOM      6  C   UNL     1     -35.804  21.439   2.459  0.00  0.00    +0.250 C 
ATOM      7  C   UNL     1     -35.945  22.458   0.392  0.00  0.00    +0.234 C 
ENDROOT
BRANCH   4   9
ATOM      8  O   UNL     1     -36.257  22.900   5.620  0.00  0.00    -0.226 OA
ATOM      9  N   UNL     1     -35.451  23.514   3.531  0.00  0.00    -0.264 N 
ATOM     10  C   UNL     1     -35.457  23.507   4.915  0.00  0.00    +0.402 C 
ATOM     11  H   UNL     1     -34.756  24.041   3.075  0.00  0.00    +0.153 HD
BRANCH  10  12
ATOM     12  O   UNL     1     -34.436  24.279   5.390  0.00  0.00    -0.430 OA
BRANCH  12  13
ATOM     13  C   UNL     1     -34.813  25.551   5.929  0.00  0.00    +0.237 C 
BRANCH  13  14
ATOM     14  C   UNL     1     -33.726  26.546   5.644  0.00  0.00    +0.021 C 
ATOM     15  C   UNL     1     -33.502  26.978   4.336  0.00  0.00    -0.001 C 
ATOM     16  C   UNL     1     -32.941  27.039   6.685  0.00  0.00    -0.001 C 
ATOM     17  C   UNL     1     -32.491  27.902   4.072  0.00  0.00    -0.000 C 
ATOM     18  C   UNL     1     -31.930  27.963   6.420  0.00  0.00    -0.000 C 
ATOM     19  C   UNL     1     -31.705  28.395   5.113  0.00  0.00    -0.000 C 
ENDBRANCH  13  14
ENDBRANCH  12  13
ENDBRANCH  10  12
ENDBRANCH   4   9
BRANCH   3  20
ATOM     20  C   UNL     1     -34.952  20.182   0.487  0.00  0.00    +0.162 C 
BRANCH  20  23
ATOM     21  O   UNL     1     -36.312  19.067  -1.190  0.00  0.00    -0.274 OA
ATOM     22  N   UNL     1     -36.759  18.670   1.027  0.00  0.00    -0.327 N 
ATOM     23  C   UNL     1     -36.072  19.275  -0.003  0.00  0.00    +0.238 C 
ATOM     24  H   UNL     1     -37.507  18.060   0.830  0.00  0.00    +0.145 HD
ATOM     25  H   UNL     1     -36.504  18.847   1.961  0.00  0.00    +0.145 HD
ENDBRANCH  20  23
BRANCH  20  26
ATOM     26  C   UNL     1     -34.042  19.426   1.463  0.00  0.00    +0.056 C 
BRANCH  26  27
ATOM     27  C   UNL     1     -32.643  19.239   0.929  0.00  0.00    -0.020 C 
ATOM     28  C   UNL     1     -31.932  18.076   1.227  0.00  0.00    -0.004 C 
ATOM     29  C   UNL     1     -32.059  20.230   0.139  0.00  0.00    -0.004 C 
ATOM     30  C   UNL     1     -30.639  17.903   0.734  0.00  0.00    -0.000 C 
ATOM     31  C   UNL     1     -30.767  20.056  -0.354  0.00  0.00    -0.000 C 
ATOM     32  C   UNL     1     -30.056  18.893  -0.057  0.00  0.00    -0.000 C 
ENDBRANCH  26  27
ENDBRANCH  20  26
ENDBRANCH   3  20
TORSDOF 8
ENDMDL
MODEL 2
REMARK VINA RESULT:      -7.2      2.759      7.066
REMARK  Name = 194524
REMARK  8 active torsions:
REMARK  status: ('A' for Active; 'I' for Inactive)
REMARK    1  A    between atoms: N_3  and  C_20
REMARK    2  A    between atoms: C_4  and  N_9
REMARK    3  A    between atoms: C_10  and  O_12
REMARK    4  A    between atoms: O_12  and  C_13
REMARK    5  A    between atoms: C_13  and  C_14
REMARK    6  A    between atoms: C_20  and  C_23
REMARK    7  A    between atoms: C_20  and  C_26
REMARK    8  A    between atoms: C_26  and  C_27
REMARK                            x       y       z     vdW  Elec       q    Type
REMARK                         _______ _______ _______ _____ _____    ______ ____
ROOT
ATOM      1  O   UNL     1     -36.392  24.010   0.264  0.00  0.00    -0.273 OA
ATOM      2  O   UNL     1     -39.441  24.355   3.718  0.00  0.00    -0.274 OA
ATOM      3  N   UNL     1     -37.762  24.491   2.096  0.00  0.00    -0.221 N 
ATOM      4  C   UNL     1     -38.418  22.756   0.687  0.00  0.00    +0.161 C 
ATOM      5  C   UNL     1     -39.480  22.951   1.758  0.00  0.00    +0.115 C 
ATOM      6  C   UNL     1     -37.395  23.832   0.942  0.00  0.00    +0.250 C 
ATOM      7  C   UNL     1     -38.917  24.005   2.668  0.00  0.00    +0.234 C 
ENDROOT
BRANCH   4   9
ATOM      8  O   UNL     1     -37.617  20.980  -1.469  0.00  0.00    -0.226 OA
ATOM      9  N   UNL     1     -37.732  21.499   0.792  0.00  0.00    -0.264 N 
ATOM     10  C   UNL     1     -37.386  20.712  -0.294  0.00  0.00    +0.402 C 
ATOM     11  H   UNL     1     -37.492  21.177   1.691  0.00  0.00    +0.153 HD
BRANCH  10  12
ATOM     12  O   UNL     1     -36.746  19.584   0.133  0.00  0.00    -0.430 OA
BRANCH  12  13
ATOM     13  C   UNL     1     -35.974  19.719   1.332  0.00  0.00    +0.237 C 
BRANCH  13  14
ATOM     14  C   UNL     1     -34.519  19.788   0.973  0.00  0.00    +0.021 C 
ATOM     15  C   UNL     1     -33.994  20.949   0.405  0.00  0.00    -0.001 C 
ATOM     16  C   UNL     1     -33.690  18.691   1.207  0.00  0.00    -0.001 C 
ATOM     17  C   UNL     1     -32.642  21.012   0.070  0.00  0.00    -0.000 C 
ATOM     18  C   UNL     1     -32.337  18.755   0.873  0.00  0.00    -0.000 C 
ATOM     19  C   UNL     1     -31.813  19.916   0.304  0.00  0.00    -0.000 C 
ENDBRANCH  13  14
ENDBRANCH  12  13
ENDBRANCH  10  12
ENDBRANCH   4   9
BRANCH   3  20
ATOM     20  C   UNL     1     -36.974  25.554   2.688  0.00  0.00    +0.162 C 
BRANCH  20  23
ATOM     21  O   UNL     1     -38.013  27.379   1.465  0.00  0.00    -0.274 OA
ATOM     22  N   UNL     1     -35.763  27.014   1.190  0.00  0.00    -0.327 N 
ATOM     23  C   UNL     1     -37.003  26.726   1.719  0.00  0.00    +0.238 C 
ATOM     24  H   UNL     1     -35.660  27.755   0.549  0.00  0.00    +0.145 HD
ATOM     25  H   UNL     1     -34.979  26.480   1.453  0.00  0.00    +0.145 HD
ENDBRANCH  20  23
BRANCH  20  26
ATOM     26  C   UNL     1     -35.528  25.122   2.959  0.00  0.00    +0.056 C 
BRANCH  26  27
ATOM     27  C   UNL     1     -35.434  23.979   3.941  0.00  0.00    -0.020 C 
ATOM     28  C   UNL     1     -35.457  24.233   5.312  0.00  0.00    -0.004 C 
ATOM     29  C   UNL     1     -35.326  22.668   3.476  0.00  0.00    -0.004 C 
ATOM     30  C   UNL     1     -35.371  23.178   6.219  0.00  0.00    -0.000 C 
ATOM     31  C   UNL     1     -35.240  21.613   4.383  0.00  0.00    -0.000 C 
ATOM     32  C   UNL     1     -35.262  21.867   5.754  0.00  0.00    -0.000 C 
ENDBRANCH  26  27
ENDBRANCH  20  26
ENDBRANCH   3  20
TORSDOF 8
ENDMDL
MODEL 3
REMARK VINA RESULT:      -7.1      3.242      5.554
REMARK  Name = 194524
REMARK  8 active torsions:
REMARK  status: ('A' for Active; 'I' for Inactive)
REMARK    1  A    between atoms: N_3  and  C_20
REMARK    2  A    between atoms: C_4  and  N_9
REMARK    3  A    between atoms: C_10  and  O_12
REMARK    4  A    between atoms: O_12  and  C_13
REMARK    5  A    between atoms: C_13  and  C_14
REMARK    6  A    between atoms: C_20  and  C_23
REMARK    7  A    between atoms: C_20  and  C_26
REMARK    8  A    between atoms: C_26  and  C_27
REMARK                            x       y       z     vdW  Elec       q    Type
REMARK                         _______ _______ _______ _____ _____    ______ ____
ROOT
ATOM      1  O   UNL     1     -34.486  26.233   1.882  0.00  0.00    -0.273 OA
ATOM      2  O   UNL     1     -36.370  23.922   5.411  0.00  0.00    -0.274 OA
ATOM      3  N   UNL     1     -35.661  24.923   3.420  0.00  0.00    -0.221 N 
ATOM      4  C   UNL     1     -33.716  25.968   4.161  0.00  0.00    +0.161 C 
ATOM      5  C   UNL     1     -34.276  25.111   5.286  0.00  0.00    +0.115 C 
ATOM      6  C   UNL     1     -34.629  25.728   2.987  0.00  0.00    +0.250 C 
ATOM      7  C   UNL     1     -35.572  24.573   4.749  0.00  0.00    +0.234 C 
ENDROOT
BRANCH   4   9
ATOM      8  O   UNL     1     -31.499  27.842   4.268  0.00  0.00    -0.226 OA
ATOM      9  N   UNL     1     -33.766  27.375   4.443  0.00  0.00    -0.264 N 
ATOM     10  C   UNL     1     -32.654  28.199   4.474  0.00  0.00    +0.402 C 
ATOM     11  H   UNL     1     -34.646  27.779   4.625  0.00  0.00    +0.153 HD
BRANCH  10  12
ATOM     12  O   UNL     1     -33.030  29.479   4.768  0.00  0.00    -0.430 OA
BRANCH  12  13
ATOM     13  C   UNL     1     -32.446  30.504   3.955  0.00  0.00    +0.237 C 
BRANCH  13  14
ATOM     14  C   UNL     1     -33.524  31.157   3.142  0.00  0.00    +0.021 C 
ATOM     15  C   UNL     1     -33.224  32.265   2.347  0.00  0.00    -0.001 C 
ATOM     16  C   UNL     1     -34.826  30.659   3.179  0.00  0.00    -0.001 C 
ATOM     17  C   UNL     1     -34.226  32.873   1.592  0.00  0.00    -0.000 C 
ATOM     18  C   UNL     1     -35.828  31.267   2.423  0.00  0.00    -0.000 C 
ATOM     19  C   UNL     1     -35.528  32.374   1.629  0.00  0.00    -0.000 C 
ENDBRANCH  13  14
ENDBRANCH  12  13
ENDBRANCH  10  12
ENDBRANCH   4   9
BRANCH   3  20
ATOM     20  C   UNL     1     -36.771  24.531   2.573  0.00  0.00    +0.162 C 
BRANCH  20  23
ATOM     21  O   UNL     1     -38.151  26.531   2.580  0.00  0.00    -0.274 OA
ATOM     22  N   UNL     1     -38.847  24.712   3.797  0.00  0.00    -0.327 N 
ATOM     23  C   UNL     1     -37.965  25.383   2.977  0.00  0.00    +0.238 C 
ATOM     24  H   UNL     1     -39.659  25.164   4.123  0.00  0.00    +0.145 HD
ATOM     25  H   UNL     1     -38.666  23.780   4.058  0.00  0.00    +0.145 HD
ENDBRANCH  20  23
BRANCH  20  26
ATOM     26  C   UNL     1     -37.107  23.041   2.711  0.00  0.00    +0.056 C 
BRANCH  26  27
ATOM     27  C   UNL     1     -36.061  22.147   2.090  0.00  0.00    -0.020 C 
ATOM     28  C   UNL     1     -35.721  20.941   2.703  0.00  0.00    -0.004 C 
ATOM     29  C   UNL     1     -35.434  22.527   0.903  0.00  0.00    -0.004 C 
ATOM     30  C   UNL     1     -34.755  20.115   2.129  0.00  0.00    -0.000 C 
ATOM     31  C   UNL     1     -34.468  21.701   0.330  0.00  0.00    -0.000 C 
ATOM     32  C   UNL     1     -34.128  20.495   0.942  0.00  0.00    -0.000 C 
ENDBRANCH  26  27
ENDBRANCH  20  26
ENDBRANCH   3  20
TORSDOF 8
ENDMDL
MODEL 4
REMARK VINA RESULT:      -7.0      2.832      4.460
REMARK  Name = 194524
REMARK  8 active torsions:
REMARK  status: ('A' for Active; 'I' for Inactive)
REMARK    1  A    between atoms: N_3  and  C_20
REMARK    2  A    between atoms: C_4  and  N_9
REMARK    3  A    between atoms: C_10  and  O_12
REMARK    4  A    between atoms: O_12  and  C_13
REMARK    5  A    between atoms: C_13  and  C_14
REMARK    6  A    between atoms: C_20  and  C_23
REMARK    7  A    between atoms: C_20  and  C_26
REMARK    8  A    between atoms: C_26  and  C_27
REMARK                            x       y       z     vdW  Elec       q    Type
REMARK                         _______ _______ _______ _____ _____    ______ ____
ROOT
ATOM      1  O   UNL     1     -35.630  25.262   0.896  0.00  0.00    -0.273 OA
ATOM      2  O   UNL     1     -31.162  24.559  -0.048  0.00  0.00    -0.274 OA
ATOM      3  N   UNL     1     -33.488  24.679   0.163  0.00  0.00    -0.221 N 
ATOM      4  C   UNL     1     -33.668  26.457   1.657  0.00  0.00    +0.161 C 
ATOM      5  C   UNL     1     -32.211  26.298   1.252  0.00  0.00    +0.115 C 
ATOM      6  C   UNL     1     -34.418  25.425   0.856  0.00  0.00    +0.250 C 
ATOM      7  C   UNL     1     -32.186  25.072   0.383  0.00  0.00    +0.234 C 
ENDROOT
BRANCH   4   9
ATOM      8  O   UNL     1     -35.112  28.064   3.600  0.00  0.00    -0.226 OA
ATOM      9  N   UNL     1     -33.907  26.160   3.042  0.00  0.00    -0.264 N 
ATOM     10  C   UNL     1     -34.609  26.986   3.902  0.00  0.00    +0.402 C 
ATOM     11  H   UNL     1     -33.549  25.316   3.401  0.00  0.00    +0.153 HD
BRANCH  10  12
ATOM     12  O   UNL     1     -34.664  26.427   5.146  0.00  0.00    -0.430 OA
BRANCH  12  13
ATOM     13  C   UNL     1     -35.877  25.737   5.468  0.00  0.00    +0.237 C 
BRANCH  13  14
ATOM     14  C   UNL     1     -35.706  24.277   5.167  0.00  0.00    +0.021 C 
ATOM     15  C   UNL     1     -36.192  23.750   3.970  0.00  0.00    -0.001 C 
ATOM     16  C   UNL     1     -35.061  23.446   6.082  0.00  0.00    -0.001 C 
ATOM     17  C   UNL     1     -36.033  22.393   3.690  0.00  0.00    -0.000 C 
ATOM     18  C   UNL     1     -34.902  22.089   5.802  0.00  0.00    -0.000 C 
ATOM     19  C   UNL     1     -35.388  21.562   4.606  0.00  0.00    -0.000 C 
ENDBRANCH  13  14
ENDBRANCH  12  13
ENDBRANCH  10  12
ENDBRANCH   4   9
BRANCH   3  20
ATOM     20  C   UNL     1     -33.841  23.547  -0.671  0.00  0.00    +0.162 C 
BRANCH  20  23
ATOM     21  O   UNL     1     -34.193  24.776  -2.737  0.00  0.00    -0.274 OA
ATOM     22  N   UNL     1     -35.975  23.674  -1.798  0.00  0.00    -0.327 N 
ATOM     23  C   UNL     1     -34.660  24.085  -1.835  0.00  0.00    +0.238 C 
ATOM     24  H   UNL     1     -36.602  23.962  -2.501  0.00  0.00    +0.145 HD
ATOM     25  H   UNL     1     -36.290  23.093  -1.068  0.00  0.00    +0.145 HD
ENDBRANCH  20  23
BRANCH  20  26
ATOM     26  C   UNL     1     -34.638  22.486   0.097  0.00  0.00    +0.056 C 
BRANCH  26  27
ATOM     27  C   UNL     1     -33.828  21.248   0.394  0.00  0.00    -0.020 C 
ATOM     28  C   UNL     1     -34.363  20.239   1.196  0.00  0.00    -0.004 C 
ATOM     29  C   UNL     1     -32.544  21.111  -0.135  0.00  0.00    -0.004 C 
ATOM     30  C   UNL     1     -33.615  19.095   1.470  0.00  0.00    -0.000 C 
ATOM     31  C   UNL     1     -31.796  19.967   0.138  0.00  0.00    -0.000 C 
ATOM     32  C   UNL     1     -32.331  18.958   0.941  0.00  0.00    -0.000 C 
ENDBRANCH  26  27
ENDBRANCH  20  26
ENDBRANCH   3  20
TORSDOF 8
ENDMDL
MODEL 5
REMARK VINA RESULT:      -6.9      6.212      8.389
REMARK  Name = 194524
REMARK  8 active torsions:
REMARK  status: ('A' for Active; 'I' for Inactive)
REMARK    1  A    between atoms: N_3  and  C_20
REMARK    2  A    between atoms: C_4  and  N_9
REMARK    3  A    between atoms: C_10  and  O_12
REMARK    4  A    between atoms: O_12  and  C_13
REMARK    5  A    between atoms: C_13  and  C_14
REMARK    6  A    between atoms: C_20  and  C_23
REMARK    7  A    between atoms: C_20  and  C_26
REMARK    8  A    between atoms: C_26  and  C_27
REMARK                            x       y       z     vdW  Elec       q    Type
REMARK                         _______ _______ _______ _____ _____    ______ ____
ROOT
ATOM      1  O   UNL     1     -36.557  27.588   1.006  0.00  0.00    -0.273 OA
ATOM      2  O   UNL     1     -33.605  27.692   4.558  0.00  0.00    -0.274 OA
ATOM      3  N   UNL     1     -35.112  27.283   2.817  0.00  0.00    -0.221 N 
ATOM      4  C   UNL     1     -35.135  29.378   1.799  0.00  0.00    +0.161 C 
ATOM      5  C   UNL     1     -34.078  29.371   2.893  0.00  0.00    +0.115 C 
ATOM      6  C   UNL     1     -35.692  27.978   1.778  0.00  0.00    +0.250 C 
ATOM      7  C   UNL     1     -34.217  28.028   3.553  0.00  0.00    +0.234 C 
ENDROOT
BRANCH   4   9
ATOM      8  O   UNL     1     -35.806  31.868   0.463  0.00  0.00    -0.226 OA
ATOM      9  N   UNL     1     -36.235  30.257   2.079  0.00  0.00    -0.264 N 
ATOM     10  C   UNL     1     -36.482  31.431   1.389  0.00  0.00    +0.402 C 
ATOM     11  H   UNL     1     -36.851  30.009   2.805  0.00  0.00    +0.153 HD
BRANCH  10  12
ATOM     12  O   UNL     1     -37.597  32.040   1.890  0.00  0.00    -0.430 OA
BRANCH  12  13
ATOM     13  C   UNL     1     -38.531  32.529   0.920  0.00  0.00    +0.237 C 
BRANCH  13  14
ATOM     14  C   UNL     1     -39.269  33.701   1.497  0.00  0.00    +0.021 C 
ATOM     15  C   UNL     1     -38.592  34.633   2.284  0.00  0.00    -0.001 C 
ATOM     16  C   UNL     1     -40.632  33.859   1.248  0.00  0.00    -0.001 C 
ATOM     17  C   UNL     1     -39.279  35.722   2.821  0.00  0.00    -0.000 C 
ATOM     18  C   UNL     1     -41.319  34.948   1.785  0.00  0.00    -0.000 C 
ATOM     19  C   UNL     1     -40.641  35.880   2.572  0.00  0.00    -0.000 C 
ENDBRANCH  13  14
ENDBRANCH  12  13
ENDBRANCH  10  12
ENDBRANCH   4   9
BRANCH   3  20
ATOM     20  C   UNL     1     -35.456  25.913   3.146  0.00  0.00    +0.162 C 
BRANCH  20  23
ATOM     21  O   UNL     1     -37.777  25.466   3.706  0.00  0.00    -0.274 OA
ATOM     22  N   UNL     1     -36.473  26.576   5.236  0.00  0.00    -0.327 N 
ATOM     23  C   UNL     1     -36.698  25.961   4.023  0.00  0.00    +0.238 C 
ATOM     24  H   UNL     1     -37.206  26.665   5.888  0.00  0.00    +0.145 HD
ATOM     25  H   UNL     1     -35.579  26.926   5.452  0.00  0.00    +0.145 HD
ENDBRANCH  20  23
BRANCH  20  26
ATOM     26  C   UNL     1     -34.317  25.188   3.873  0.00  0.00    +0.056 C 
BRANCH  26  27
ATOM     27  C   UNL     1     -34.703  23.801   4.326  0.00  0.00    -0.020 C 
ATOM     28  C   UNL     1     -34.655  23.470   5.680  0.00  0.00    -0.004 C 
ATOM     29  C   UNL     1     -35.108  22.849   3.389  0.00  0.00    -0.004 C 
ATOM     30  C   UNL     1     -35.012  22.189   6.099  0.00  0.00    -0.000 C 
ATOM     31  C   UNL     1     -35.465  21.568   3.808  0.00  0.00    -0.000 C 
ATOM     32  C   UNL     1     -35.417  21.237   5.162  0.00  0.00    -0.000 C 
ENDBRANCH  26  27
ENDBRANCH  20  26
ENDBRANCH   3  20
TORSDOF 8
ENDMDL
MODEL 6
REMARK VINA RESULT:      -6.9      2.849      4.971
REMARK  Name = 194524
REMARK  8 active torsions:
REMARK  status: ('A' for Active; 'I' for Inactive)
REMARK    1  A    between atoms: N_3  and  C_20
REMARK    2  A    between atoms: C_4  and  N_9
REMARK    3  A    between atoms: C_10  and  O_12
REMARK    4  A    between atoms: O_12  and  C_13
REMARK    5  A    between atoms: C_13  and  C_14
REMARK    6  A    between atoms: C_20  and  C_23
REMARK    7  A    between atoms: C_20  and  C_26
REMARK    8  A    between atoms: C_26  and  C_27
REMARK                            x       y       z     vdW  Elec       q    Type
REMARK                         _______ _______ _______ _____ _____    ______ ____
ROOT
ATOM      1  O   UNL     1     -32.964  25.134   3.224  0.00  0.00    -0.273 OA
ATOM      2  O   UNL     1     -37.409  24.788   4.434  0.00  0.00    -0.274 OA
ATOM      3  N   UNL     1     -35.252  24.768   3.531  0.00  0.00    -0.221 N 
ATOM      4  C   UNL     1     -34.061  25.691   5.308  0.00  0.00    +0.161 C 
ATOM      5  C   UNL     1     -35.501  25.465   5.743  0.00  0.00    +0.115 C 
ATOM      6  C   UNL     1     -33.981  25.149   3.905  0.00  0.00    +0.250 C 
ATOM      7  C   UNL     1     -36.202  24.975   4.507  0.00  0.00    +0.234 C 
ENDROOT
BRANCH   4   9
ATOM      8  O   UNL     1     -31.868  27.034   6.659  0.00  0.00    -0.226 OA
ATOM      9  N   UNL     1     -33.702  27.079   5.236  0.00  0.00    -0.264 N 
ATOM     10  C   UNL     1     -32.635  27.639   5.917  0.00  0.00    +0.402 C 
ATOM     11  H   UNL     1     -34.248  27.669   4.668  0.00  0.00    +0.153 HD
BRANCH  10  12
ATOM     12  O   UNL     1     -32.556  28.975   5.643  0.00  0.00    -0.430 OA
BRANCH  12  13
ATOM     13  C   UNL     1     -31.810  29.762   6.579  0.00  0.00    +0.237 C 
BRANCH  13  14
ATOM     14  C   UNL     1     -30.557  30.253   5.917  0.00  0.00    +0.021 C 
ATOM     15  C   UNL     1     -29.319  29.723   6.285  0.00  0.00    -0.001 C 
ATOM     16  C   UNL     1     -30.627  31.240   4.935  0.00  0.00    -0.001 C 
ATOM     17  C   UNL     1     -28.154  30.181   5.671  0.00  0.00    -0.000 C 
ATOM     18  C   UNL     1     -29.462  31.697   4.319  0.00  0.00    -0.000 C 
ATOM     19  C   UNL     1     -28.225  31.168   4.688  0.00  0.00    -0.000 C 
ENDBRANCH  13  14
ENDBRANCH  12  13
ENDBRANCH  10  12
ENDBRANCH   4   9
BRANCH   3  20
ATOM     20  C   UNL     1     -35.573  24.254   2.214  0.00  0.00    +0.162 C 
BRANCH  20  23
ATOM     21  O   UNL     1     -36.434  26.355   1.349  0.00  0.00    -0.274 OA
ATOM     22  N   UNL     1     -37.821  24.525   1.369  0.00  0.00    -0.327 N 
ATOM     23  C   UNL     1     -36.630  25.173   1.620  0.00  0.00    +0.238 C 
ATOM     24  H   UNL     1     -38.580  25.020   0.983  0.00  0.00    +0.145 HD
ATOM     25  H   UNL     1     -37.914  23.567   1.575  0.00  0.00    +0.145 HD
ENDBRANCH  20  23
BRANCH  20  26
ATOM     26  C   UNL     1     -36.087  22.810   2.264  0.00  0.00    +0.056 C 
BRANCH  26  27
ATOM     27  C   UNL     1     -35.099  21.819   1.700  0.00  0.00    -0.020 C 
ATOM     28  C   UNL     1     -34.220  22.208   0.689  0.00  0.00    -0.004 C 
ATOM     29  C   UNL     1     -35.065  20.513   2.189  0.00  0.00    -0.004 C 
ATOM     30  C   UNL     1     -33.307  21.292   0.167  0.00  0.00    -0.000 C 
ATOM     31  C   UNL     1     -34.152  19.597   1.667  0.00  0.00    -0.000 C 
ATOM     32  C   UNL     1     -33.273  19.986   0.656  0.00  0.00    -0.000 C 
ENDBRANCH  26  27
ENDBRANCH  20  26
ENDBRANCH   3  20
TORSDOF 8
ENDMDL
MODEL 7
REMARK VINA RESULT:      -6.9      3.044      8.920
REMARK  Name = 194524
REMARK  8 active torsions:
REMARK  status: ('A' for Active; 'I' for Inactive)
REMARK    1  A    between atoms: N_3  and  C_20
REMARK    2  A    between atoms: C_4  and  N_9
REMARK    3  A    between atoms: C_10  and  O_12
REMARK    4  A    between atoms: O_12  and  C_13
REMARK    5  A    between atoms: C_13  and  C_14
REMARK    6  A    between atoms: C_20  and  C_23
REMARK    7  A    between atoms: C_20  and  C_26
REMARK    8  A    between atoms: C_26  and  C_27
REMARK                            x       y       z     vdW  Elec       q    Type
REMARK                         _______ _______ _______ _____ _____    ______ ____
ROOT
ATOM      1  O   UNL     1     -35.461  26.627   2.419  0.00  0.00    -0.273 OA
ATOM      2  O   UNL     1     -32.548  27.065   5.977  0.00  0.00    -0.274 OA
ATOM      3  N   UNL     1     -33.853  27.131   4.037  0.00  0.00    -0.221 N 
ATOM      4  C   UNL     1     -35.475  25.552   4.587  0.00  0.00    +0.161 C 
ATOM      5  C   UNL     1     -34.584  25.787   5.797  0.00  0.00    +0.115 C 
ATOM      6  C   UNL     1     -34.975  26.507   3.535  0.00  0.00    +0.250 C 
ATOM      7  C   UNL     1     -33.518  26.728   5.311  0.00  0.00    +0.234 C 
ENDROOT
BRANCH   4   9
ATOM      8  O   UNL     1     -37.607  23.754   3.773  0.00  0.00    -0.226 OA
ATOM      9  N   UNL     1     -35.350  24.231   4.039  0.00  0.00    -0.264 N 
ATOM     10  C   UNL     1     -36.425  23.438   3.676  0.00  0.00    +0.402 C 
ATOM     11  H   UNL     1     -34.444  23.867   3.913  0.00  0.00    +0.153 HD
BRANCH  10  12
ATOM     12  O   UNL     1     -35.980  22.242   3.190  0.00  0.00    -0.430 OA
BRANCH  12  13
ATOM     13  C   UNL     1     -35.971  22.112   1.764  0.00  0.00    +0.237 C 
BRANCH  13  14
ATOM     14  C   UNL     1     -34.814  21.249   1.357  0.00  0.00    +0.021 C 
ATOM     15  C   UNL     1     -33.875  21.726   0.442  0.00  0.00    -0.001 C 
ATOM     16  C   UNL     1     -34.675  19.969   1.893  0.00  0.00    -0.001 C 
ATOM     17  C   UNL     1     -32.799  20.923   0.063  0.00  0.00    -0.000 C 
ATOM     18  C   UNL     1     -33.598  19.166   1.515  0.00  0.00    -0.000 C 
ATOM     19  C   UNL     1     -32.660  19.644   0.599  0.00  0.00    -0.000 C 
ENDBRANCH  13  14
ENDBRANCH  12  13
ENDBRANCH  10  12
ENDBRANCH   4   9
BRANCH   3  20
ATOM     20  C   UNL     1     -33.061  28.077   3.276  0.00  0.00    +0.162 C 
BRANCH  20  23
ATOM     21  O   UNL     1     -31.410  26.431   2.592  0.00  0.00    -0.274 OA
ATOM     22  N   UNL     1     -30.693  28.313   3.696  0.00  0.00    -0.327 N 
ATOM     23  C   UNL     1     -31.661  27.495   3.153  0.00  0.00    +0.238 C 
ATOM     24  H   UNL     1     -29.747  28.039   3.675  0.00  0.00    +0.145 HD
ATOM     25  H   UNL     1     -30.946  29.172   4.105  0.00  0.00    +0.145 HD
ENDBRANCH  20  23
BRANCH  20  26
ATOM     26  C   UNL     1     -33.009  29.458   3.941  0.00  0.00    +0.056 C 
BRANCH  26  27
ATOM     27  C   UNL     1     -33.750  30.513   3.156  0.00  0.00    -0.020 C 
ATOM     28  C   UNL     1     -33.070  31.632   2.676  0.00  0.00    -0.004 C 
ATOM     29  C   UNL     1     -35.116  30.369   2.912  0.00  0.00    -0.004 C 
ATOM     30  C   UNL     1     -33.754  32.606   1.950  0.00  0.00    -0.000 C 
ATOM     31  C   UNL     1     -35.800  31.344   2.186  0.00  0.00    -0.000 C 
ATOM     32  C   UNL     1     -35.120  32.463   1.705  0.00  0.00    -0.000 C 
ENDBRANCH  26  27
ENDBRANCH  20  26
ENDBRANCH   3  20
TORSDOF 8
ENDMDL
MODEL 8
REMARK VINA RESULT:      -6.9      1.921      7.794
REMARK  Name = 194524
REMARK  8 active torsions:
REMARK  status: ('A' for Active; 'I' for Inactive)
REMARK    1  A    between atoms: N_3  and  C_20
REMARK    2  A    between atoms: C_4  and  N_9
REMARK    3  A    between atoms: C_10  and  O_12
REMARK    4  A    between atoms: O_12  and  C_13
REMARK    5  A    between atoms: C_13  and  C_14
REMARK    6  A    between atoms: C_20  and  C_23
REMARK    7  A    between atoms: C_20  and  C_26
REMARK    8  A    between atoms: C_26  and  C_27
REMARK                            x       y       z     vdW  Elec       q    Type
REMARK                         _______ _______ _______ _____ _____    ______ ____
ROOT
ATOM      1  O   UNL     1     -35.111  24.482   0.768  0.00  0.00    -0.273 OA
ATOM      2  O   UNL     1     -37.030  24.779   4.960  0.00  0.00    -0.274 OA
ATOM      3  N   UNL     1     -36.017  24.987   2.862  0.00  0.00    -0.221 N 
ATOM      4  C   UNL     1     -36.343  22.833   2.039  0.00  0.00    +0.161 C 
ATOM      5  C   UNL     1     -37.074  22.971   3.366  0.00  0.00    +0.115 C 
ATOM      6  C   UNL     1     -35.758  24.193   1.765  0.00  0.00    +0.250 C 
ATOM      7  C   UNL     1     -36.716  24.344   3.860  0.00  0.00    +0.234 C 
ENDROOT
BRANCH   4   9
ATOM      8  O   UNL     1     -36.452  19.943   2.315  0.00  0.00    -0.226 OA
ATOM      9  N   UNL     1     -35.242  21.912   2.092  0.00  0.00    -0.264 N 
ATOM     10  C   UNL     1     -35.385  20.541   2.226  0.00  0.00    +0.402 C 
ATOM     11  H   UNL     1     -34.330  22.277   2.029  0.00  0.00    +0.153 HD
BRANCH  10  12
ATOM     12  O   UNL     1     -34.157  19.944   2.244  0.00  0.00    -0.430 OA
BRANCH  12  13
ATOM     13  C   UNL     1     -33.927  18.958   1.231  0.00  0.00    +0.237 C 
BRANCH  13  14
ATOM     14  C   UNL     1     -32.513  19.076   0.744  0.00  0.00    +0.021 C 
ATOM     15  C   UNL     1     -32.115  20.204   0.024  0.00  0.00    -0.001 C 
ATOM     16  C   UNL     1     -31.596  18.060   1.009  0.00  0.00    -0.001 C 
ATOM     17  C   UNL     1     -30.801  20.314  -0.429  0.00  0.00    -0.000 C 
ATOM     18  C   UNL     1     -30.281  18.170   0.555  0.00  0.00    -0.000 C 
ATOM     19  C   UNL     1     -29.884  19.298  -0.164  0.00  0.00    -0.000 C 
ENDBRANCH  13  14
ENDBRANCH  12  13
ENDBRANCH  10  12
ENDBRANCH   4   9
BRANCH   3  20
ATOM     20  C   UNL     1     -35.547  26.354   2.983  0.00  0.00    +0.162 C 
BRANCH  20  23
ATOM     21  O   UNL     1     -37.367  27.370   1.734  0.00  0.00    -0.274 OA
ATOM     22  N   UNL     1     -35.223  27.621   0.951  0.00  0.00    -0.327 N 
ATOM     23  C   UNL     1     -36.164  27.143   1.838  0.00  0.00    +0.238 C 
ATOM     24  H   UNL     1     -35.506  28.148   0.168  0.00  0.00    +0.145 HD
ATOM     25  H   UNL     1     -34.267  27.438   1.100  0.00  0.00    +0.145 HD
ENDBRANCH  20  23
BRANCH  20  26
ATOM     26  C   UNL     1     -34.017  26.447   2.932  0.00  0.00    +0.056 C 
BRANCH  26  27
ATOM     27  C   UNL     1     -33.417  26.909   4.238  0.00  0.00    -0.020 C 
ATOM     28  C   UNL     1     -32.510  27.969   4.253  0.00  0.00    -0.004 C 
ATOM     29  C   UNL     1     -33.770  26.275   5.430  0.00  0.00    -0.004 C 
ATOM     30  C   UNL     1     -31.956  28.396   5.459  0.00  0.00    -0.000 C 
ATOM     31  C   UNL     1     -33.216  26.703   6.636  0.00  0.00    -0.000 C 
ATOM     32  C   UNL     1     -32.309  27.763   6.652  0.00  0.00    -0.000 C 
ENDBRANCH  26  27
ENDBRANCH  20  26
ENDBRANCH   3  20
TORSDOF 8
ENDMDL
MODEL 9
REMARK VINA RESULT:      -6.8      1.535      7.669
REMARK  Name = 194524
REMARK  8 active torsions:
REMARK  status: ('A' for Active; 'I' for Inactive)
REMARK    1  A    between atoms: N_3  and  C_20
REMARK    2  A    between atoms: C_4  and  N_9
REMARK    3  A    between atoms: C_10  and  O_12
REMARK    4  A    between atoms: O_12  and  C_13
REMARK    5  A    between atoms: C_13  and  C_14
REMARK    6  A    between atoms: C_20  and  C_23
REMARK    7  A    between atoms: C_20  and  C_26
REMARK    8  A    between atoms: C_26  and  C_27
REMARK                            x       y       z     vdW  Elec       q    Type
REMARK                         _______ _______ _______ _____ _____    ______ ____
ROOT
ATOM      1  O   UNL     1     -36.749  23.551   1.445  0.00  0.00    -0.273 OA
ATOM      2  O   UNL     1     -34.925  22.555   5.572  0.00  0.00    -0.274 OA
ATOM      3  N   UNL     1     -35.932  23.380   3.628  0.00  0.00    -0.221 N 
ATOM      4  C   UNL     1     -35.970  21.441   2.338  0.00  0.00    +0.161 C 
ATOM      5  C   UNL     1     -35.482  21.094   3.736  0.00  0.00    +0.115 C 
ATOM      6  C   UNL     1     -36.301  22.909   2.386  0.00  0.00    +0.250 C 
ATOM      7  C   UNL     1     -35.390  22.414   4.448  0.00  0.00    +0.234 C 
ENDROOT
BRANCH   4   9
ATOM      8  O   UNL     1     -36.304  20.419  -0.361  0.00  0.00    -0.226 OA
ATOM      9  N   UNL     1     -34.962  21.276   1.329  0.00  0.00    -0.264 N 
ATOM     10  C   UNL     1     -35.210  20.778   0.061  0.00  0.00    +0.402 C 
ATOM     11  H   UNL     1     -34.039  21.533   1.552  0.00  0.00    +0.153 HD
BRANCH  10  12
ATOM     12  O   UNL     1     -34.051  20.745  -0.661  0.00  0.00    -0.430 OA
BRANCH  12  13
ATOM     13  C   UNL     1     -32.893  21.276  -0.009  0.00  0.00    +0.237 C 
BRANCH  13  14
ATOM     14  C   UNL     1     -31.853  20.199   0.098  0.00  0.00    +0.021 C 
ATOM     15  C   UNL     1     -30.616  20.360  -0.526  0.00  0.00    -0.001 C 
ATOM     16  C   UNL     1     -32.123  19.038   0.821  0.00  0.00    -0.001 C 
ATOM     17  C   UNL     1     -29.650  19.358  -0.427  0.00  0.00    -0.000 C 
ATOM     18  C   UNL     1     -31.156  18.037   0.921  0.00  0.00    -0.000 C 
ATOM     19  C   UNL     1     -29.920  18.197   0.296  0.00  0.00    -0.000 C 
ENDBRANCH  13  14
ENDBRANCH  12  13
ENDBRANCH  10  12
ENDBRANCH   4   9
BRANCH   3  20
ATOM     20  C   UNL     1     -36.044  24.772   4.016  0.00  0.00    +0.162 C 
BRANCH  20  23
ATOM     21  O   UNL     1     -38.472  24.689   3.971  0.00  0.00    -0.274 OA
ATOM     22  N   UNL     1     -37.410  26.379   2.836  0.00  0.00    -0.327 N 
ATOM     23  C   UNL     1     -37.434  25.239   3.611  0.00  0.00    +0.238 C 
ATOM     24  H   UNL     1     -38.253  26.774   2.514  0.00  0.00    +0.145 HD
ATOM     25  H   UNL     1     -36.551  26.799   2.603  0.00  0.00    +0.145 HD
ENDBRANCH  20  23
BRANCH  20  26
ATOM     26  C   UNL     1     -34.973  25.647   3.354  0.00  0.00    +0.056 C 
BRANCH  26  27
ATOM     27  C   UNL     1     -34.091  26.349   4.357  0.00  0.00    -0.020 C 
ATOM     28  C   UNL     1     -34.143  25.990   5.704  0.00  0.00    -0.004 C 
ATOM     29  C   UNL     1     -33.222  27.357   3.937  0.00  0.00    -0.004 C 
ATOM     30  C   UNL     1     -33.328  26.638   6.631  0.00  0.00    -0.000 C 
ATOM     31  C   UNL     1     -32.407  28.005   4.864  0.00  0.00    -0.000 C 
ATOM     32  C   UNL     1     -32.459  27.647   6.211  0.00  0.00    -0.000 C 
ENDBRANCH  26  27
ENDBRANCH  20  26
ENDBRANCH   3  20
TORSDOF 8
ENDMDL
