MODEL 1
REMARK VINA RESULT:      -7.0      0.000      0.000
REMARK  Name = 55331
REMARK  12 active torsions:
REMARK  status: ('A' for Active; 'I' for Inactive)
REMARK    1  A    between atoms: CA_3  and  C_18
REMARK    2  A    between atoms: C_8  and  CA_21
REMARK    3  A    between atoms: C_11  and  O_13
REMARK    4  A    between atoms: C_12  and  O_15
REMARK    5  A    between atoms: C_18  and  O_19
REMARK    6  A    between atoms: CA_21  and  N_23
REMARK    7  A    between atoms: N_23  and  CA_26
REMARK    8  A    between atoms: CA_26  and  C_28
REMARK    9  A    between atoms: CA_26  and  C_31
REMARK   10  A    between atoms: C_28  and  O_29
REMARK   11  A    between atoms: C_31  and  C_32
REMARK   12  A    between atoms: C_32  and  C_33
REMARK                            x       y       z     vdW  Elec       q    Type
REMARK                         _______ _______ _______ _____ _____    ______ ____
ROOT
ATOM      1  O   UNL     1     -36.467  24.024   1.419  0.00  0.00    -0.277 OA
ATOM      2  N   UNL     1     -35.185  22.119   1.014  0.00  0.00    -0.269 N 
ATOM      3  CA  UNL     1     -34.509  22.720  -0.138  0.00  0.00    +0.179 C 
ATOM      4  C   UNL     1     -33.009  22.443  -0.150  0.00  0.00    +0.057 C 
ATOM      5  C   UNL     1     -34.900  20.707   1.317  0.00  0.00    +0.120 C 
ATOM      6  C   UNL     1     -32.673  21.003   0.129  0.00  0.00    -0.019 C 
ATOM      7  C   UNL     1     -33.569  20.191   0.839  0.00  0.00    -0.003 C 
ATOM      8  C   UNL     1     -36.203  22.841   1.652  0.00  0.00    +0.206 C 
ATOM      9  C   UNL     1     -31.437  20.483  -0.279  0.00  0.00    +0.036 C 
ATOM     10  C   UNL     1     -33.222  18.857   1.106  0.00  0.00    +0.037 C 
ATOM     11  C   UNL     1     -31.102  19.158  -0.006  0.00  0.00    +0.172 C 
ATOM     12  C   UNL     1     -31.996  18.344   0.685  0.00  0.00    +0.172 C 
ENDROOT
BRANCH  11  13
ATOM     13  O   UNL     1     -29.899  18.672  -0.418  0.00  0.00    -0.468 OA
ATOM     14  C   UNL     1     -29.739  18.437  -1.816  0.00  0.00    +0.253 C 
ENDBRANCH  11  13
BRANCH  12  15
ATOM     15  O   UNL     1     -31.683  17.046   0.958  0.00  0.00    -0.468 OA
ATOM     16  C   UNL     1     -32.212  16.053   0.082  0.00  0.00    +0.253 C 
ENDBRANCH  12  15
BRANCH   3  18
ATOM     17  OXT UNL     1     -36.188  21.485  -1.370  0.00  0.00    -0.248 OA
ATOM     18  C   UNL     1     -35.204  22.210  -1.369  0.00  0.00    +0.332 C 
BRANCH  18  19
ATOM     19  O   UNL     1     -34.588  22.663  -2.488  0.00  0.00    -0.479 OA
ATOM     20  H   UNL     1     -33.748  23.074  -2.427  0.00  0.00    +0.295 HD
ENDBRANCH  18  19
ENDBRANCH   3  18
BRANCH   8  21
ATOM     21  CA  UNL     1     -37.005  22.094   2.691  0.00  0.00    +0.018 C 
ATOM     22  CB  UNL     1     -38.419  21.875   2.193  0.00  0.00    -0.014 C 
BRANCH  21  23
ATOM     23  N   UNL     1     -36.995  22.909   3.893  0.00  0.00    +0.399 N 
ATOM     24  H1  UNL     1     -37.631  22.502   4.577  0.00  0.00    -0.083 HD
ATOM     25  H2  UNL     1     -37.289  23.854   3.647  0.00  0.00    -0.083 HD
BRANCH  23  26
ATOM     26  CA  UNL     1     -35.657  22.976   4.469  0.00  0.00    +0.041 C 
BRANCH  26  28
ATOM     27  OXT UNL     1     -35.936  22.108   6.727  0.00  0.00    -0.253 OA
ATOM     28  C   UNL     1     -35.594  21.926   5.565  0.00  0.00    +0.293 C 
BRANCH  28  29
ATOM     29  O   UNL     1     -35.133  20.731   5.114  0.00  0.00    -0.482 OA
ATOM     30  H   UNL     1     -35.698  20.167   4.624  0.00  0.00    +0.295 HD
ENDBRANCH  28  29
ENDBRANCH  26  28
BRANCH  26  31
ATOM     31  C   UNL     1     -35.421  24.383   5.037  0.00  0.00    -0.006 C 
BRANCH  31  32
ATOM     32  C   UNL     1     -34.610  25.312   4.119  0.00  0.00    +0.025 C 
BRANCH  32  33
ATOM     33  C   UNL     1     -33.740  26.307   4.847  0.00  0.00    -0.022 C 
ATOM     34  C   UNL     1     -33.071  27.281   4.125  0.00  0.00    -0.004 C 
ATOM     35  C   UNL     1     -33.625  26.228   6.227  0.00  0.00    -0.004 C 
ATOM     36  C   UNL     1     -32.267  28.202   4.799  0.00  0.00    -0.000 C 
ATOM     37  C   UNL     1     -32.822  27.147   6.900  0.00  0.00    -0.000 C 
ATOM     38  C   UNL     1     -32.142  28.134   6.186  0.00  0.00    -0.000 C 
ENDBRANCH  32  33
ENDBRANCH  31  32
ENDBRANCH  26  31
ENDBRANCH  23  26
ENDBRANCH  21  23
ENDBRANCH   8  21
TORSDOF 12
ENDMDL
MODEL 2
REMARK VINA RESULT:      -7.0      4.146      8.176
REMARK  Name = 55331
REMARK  12 active torsions:
REMARK  status: ('A' for Active; 'I' for Inactive)
REMARK    1  A    between atoms: CA_3  and  C_18
REMARK    2  A    between atoms: C_8  and  CA_21
REMARK    3  A    between atoms: C_11  and  O_13
REMARK    4  A    between atoms: C_12  and  O_15
REMARK    5  A    between atoms: C_18  and  O_19
REMARK    6  A    between atoms: CA_21  and  N_23
REMARK    7  A    between atoms: N_23  and  CA_26
REMARK    8  A    between atoms: CA_26  and  C_28
REMARK    9  A    between atoms: CA_26  and  C_31
REMARK   10  A    between atoms: C_28  and  O_29
REMARK   11  A    between atoms: C_31  and  C_32
REMARK   12  A    between atoms: C_32  and  C_33
REMARK                            x       y       z     vdW  Elec       q    Type
REMARK                         _______ _______ _______ _____ _____    ______ ____
ROOT
ATOM      1  O   UNL     1     -33.583  25.978   2.977  0.00  0.00    -0.277 OA
ATOM      2  N   UNL     1     -35.894  26.194   2.754  0.00  0.00    -0.269 N 
ATOM      3  CA  UNL     1     -35.782  27.048   1.570  0.00  0.00    +0.179 C 
ATOM      4  C   UNL     1     -36.775  26.668   0.475  0.00  0.00    +0.057 C 
ATOM      5  C   UNL     1     -37.238  25.961   3.308  0.00  0.00    +0.120 C 
ATOM      6  C   UNL     1     -38.169  26.448   0.994  0.00  0.00    -0.019 C 
ATOM      7  C   UNL     1     -38.380  26.098   2.336  0.00  0.00    -0.003 C 
ATOM      8  C   UNL     1     -34.723  25.797   3.415  0.00  0.00    +0.206 C 
ATOM      9  C   UNL     1     -39.262  26.543   0.121  0.00  0.00    +0.036 C 
ATOM     10  C   UNL     1     -39.689  25.875   2.790  0.00  0.00    +0.037 C 
ATOM     11  C   UNL     1     -40.558  26.319   0.583  0.00  0.00    +0.172 C 
ATOM     12  C   UNL     1     -40.771  25.987   1.918  0.00  0.00    +0.172 C 
ENDROOT
BRANCH  11  13
ATOM     13  O   UNL     1     -41.605  26.424  -0.281  0.00  0.00    -0.468 OA
ATOM     14  C   UNL     1     -41.830  25.327  -1.165  0.00  0.00    +0.253 C 
ENDBRANCH  11  13
BRANCH  12  15
ATOM     15  O   UNL     1     -42.033  25.764   2.384  0.00  0.00    -0.468 OA
ATOM     16  C   UNL     1     -42.650  26.822   3.114  0.00  0.00    +0.253 C 
ENDBRANCH  12  15
BRANCH   3  18
ATOM     17  OXT UNL     1     -36.660  29.303   1.500  0.00  0.00    -0.248 OA
ATOM     18  C   UNL     1     -35.945  28.467   2.035  0.00  0.00    +0.332 C 
BRANCH  18  19
ATOM     19  O   UNL     1     -35.188  28.701   3.133  0.00  0.00    -0.479 OA
ATOM     20  H   UNL     1     -34.455  28.148   3.324  0.00  0.00    +0.295 HD
ENDBRANCH  18  19
ENDBRANCH   3  18
BRANCH   8  21
ATOM     21  CA  UNL     1     -34.904  25.101   4.742  0.00  0.00    +0.018 C 
ATOM     22  CB  UNL     1     -34.109  25.817   5.814  0.00  0.00    -0.014 C 
BRANCH  21  23
ATOM     23  N   UNL     1     -34.436  23.737   4.567  0.00  0.00    +0.399 N 
ATOM     24  H1  UNL     1     -33.751  23.524   5.290  0.00  0.00    -0.083 HD
ATOM     25  H2  UNL     1     -34.018  23.655   3.640  0.00  0.00    -0.083 HD
BRANCH  23  26
ATOM     26  CA  UNL     1     -35.539  22.788   4.661  0.00  0.00    +0.041 C 
BRANCH  26  28
ATOM     27  OXT UNL     1     -35.225  22.393   7.043  0.00  0.00    -0.253 OA
ATOM     28  C   UNL     1     -35.296  21.949   5.904  0.00  0.00    +0.293 C 
BRANCH  28  29
ATOM     29  O   UNL     1     -35.188  20.625   5.625  0.00  0.00    -0.482 OA
ATOM     30  H   UNL     1     -35.935  20.066   5.707  0.00  0.00    +0.295 HD
ENDBRANCH  28  29
ENDBRANCH  26  28
BRANCH  26  31
ATOM     31  C   UNL     1     -35.563  21.913   3.400  0.00  0.00    -0.006 C 
BRANCH  31  32
ATOM     32  C   UNL     1     -35.744  22.693   2.088  0.00  0.00    +0.025 C 
BRANCH  32  33
ATOM     33  C   UNL     1     -37.149  22.675   1.538  0.00  0.00    -0.022 C 
ATOM     34  C   UNL     1     -37.359  22.964   0.199  0.00  0.00    -0.004 C 
ATOM     35  C   UNL     1     -38.206  22.370   2.383  0.00  0.00    -0.004 C 
ATOM     36  C   UNL     1     -38.659  22.946  -0.308  0.00  0.00    -0.000 C 
ATOM     37  C   UNL     1     -39.504  22.353   1.875  0.00  0.00    -0.000 C 
ATOM     38  C   UNL     1     -39.731  22.641   0.530  0.00  0.00    -0.000 C 
ENDBRANCH  32  33
ENDBRANCH  31  32
ENDBRANCH  26  31
ENDBRANCH  23  26
ENDBRANCH  21  23
ENDBRANCH   8  21
TORSDOF 12
ENDMDL
MODEL 3
REMARK VINA RESULT:      -6.8      2.643      8.206
REMARK  Name = 55331
REMARK  12 active torsions:
REMARK  status: ('A' for Active; 'I' for Inactive)
REMARK    1  A    between atoms: CA_3  and  C_18
REMARK    2  A    between atoms: C_8  and  CA_21
REMARK    3  A    between atoms: C_11  and  O_13
REMARK    4  A    between atoms: C_12  and  O_15
REMARK    5  A    between atoms: C_18  and  O_19
REMARK    6  A    between atoms: CA_21  and  N_23
REMARK    7  A    between atoms: N_23  and  CA_26
REMARK    8  A    between atoms: CA_26  and  C_28
REMARK    9  A    between atoms: CA_26  and  C_31
REMARK   10  A    between atoms: C_28  and  O_29
REMARK   11  A    between atoms: C_31  and  C_32
REMARK   12  A    between atoms: C_32  and  C_33
REMARK                            x       y       z     vdW  Elec       q    Type
REMARK                         _______ _______ _______ _____ _____    ______ ____
ROOT
ATOM      1  O   UNL     1     -36.105  22.129   3.970  0.00  0.00    -0.277 OA
ATOM      2  N   UNL     1     -34.995  24.161   3.697  0.00  0.00    -0.269 N 
ATOM      3  CA  UNL     1     -35.477  24.689   4.975  0.00  0.00    +0.179 C 
ATOM      4  C   UNL     1     -34.386  25.409   5.763  0.00  0.00    +0.057 C 
ATOM      5  C   UNL     1     -34.217  25.062   2.831  0.00  0.00    +0.120 C 
ATOM      6  C   UNL     1     -33.583  26.362   4.921  0.00  0.00    -0.019 C 
ATOM      7  C   UNL     1     -33.494  26.181   3.533  0.00  0.00    -0.003 C 
ATOM      8  C   UNL     1     -35.450  22.906   3.270  0.00  0.00    +0.206 C 
ATOM      9  C   UNL     1     -32.876  27.407   5.533  0.00  0.00    +0.036 C 
ATOM     10  C   UNL     1     -32.719  27.071   2.773  0.00  0.00    +0.037 C 
ATOM     11  C   UNL     1     -32.108  28.284   4.768  0.00  0.00    +0.172 C 
ATOM     12  C   UNL     1     -32.031  28.117   3.388  0.00  0.00    +0.172 C 
ENDROOT
BRANCH  11  13
ATOM     13  O   UNL     1     -31.436  29.296   5.382  0.00  0.00    -0.468 OA
ATOM     14  C   UNL     1     -31.652  29.462   6.783  0.00  0.00    +0.253 C 
ENDBRANCH  11  13
BRANCH  12  15
ATOM     15  O   UNL     1     -31.285  28.966   2.627  0.00  0.00    -0.468 OA
ATOM     16  C   UNL     1     -31.836  29.372   1.377  0.00  0.00    +0.253 C 
ENDBRANCH  12  15
BRANCH   3  18
ATOM     17  OXT UNL     1     -37.507  25.339   3.827  0.00  0.00    -0.248 OA
ATOM     18  C   UNL     1     -36.652  25.574   4.669  0.00  0.00    +0.332 C 
BRANCH  18  19
ATOM     19  O   UNL     1     -36.637  26.678   5.453  0.00  0.00    -0.479 OA
ATOM     20  H   UNL     1     -36.156  26.675   6.258  0.00  0.00    +0.295 HD
ENDBRANCH  18  19
ENDBRANCH   3  18
BRANCH   8  21
ATOM     21  CA  UNL     1     -35.092  22.507   1.858  0.00  0.00    +0.018 C 
ATOM     22  CB  UNL     1     -36.215  22.883   0.914  0.00  0.00    -0.014 C 
BRANCH  21  23
ATOM     23  N   UNL     1     -34.878  21.070   1.870  0.00  0.00    +0.399 N 
ATOM     24  H1  UNL     1     -35.370  20.667   2.666  0.00  0.00    -0.083 HD
ATOM     25  H2  UNL     1     -33.876  20.893   1.940  0.00  0.00    -0.083 HD
BRANCH  23  26
ATOM     26  CA  UNL     1     -35.372  20.456   0.644  0.00  0.00    +0.041 C 
BRANCH  26  28
ATOM     27  OXT UNL     1     -37.214  18.915   0.245  0.00  0.00    -0.253 OA
ATOM     28  C   UNL     1     -36.556  19.587   1.029  0.00  0.00    +0.293 C 
BRANCH  28  29
ATOM     29  O   UNL     1     -36.805  19.610   2.364  0.00  0.00    -0.482 OA
ATOM     30  H   UNL     1     -37.633  19.910   2.682  0.00  0.00    +0.295 HD
ENDBRANCH  28  29
ENDBRANCH  26  28
BRANCH  26  31
ATOM     31  C   UNL     1     -34.252  19.616   0.013  0.00  0.00    -0.006 C 
BRANCH  31  32
ATOM     32  C   UNL     1     -33.311  18.946   1.027  0.00  0.00    +0.025 C 
BRANCH  32  33
ATOM     33  C   UNL     1     -31.855  18.954   0.629  0.00  0.00    -0.022 C 
ATOM     34  C   UNL     1     -31.360  20.010  -0.118  0.00  0.00    -0.004 C 
ATOM     35  C   UNL     1     -31.039  17.903   1.020  0.00  0.00    -0.004 C 
ATOM     36  C   UNL     1     -30.013  20.017  -0.484  0.00  0.00    -0.000 C 
ATOM     37  C   UNL     1     -29.693  17.910   0.653  0.00  0.00    -0.000 C 
ATOM     38  C   UNL     1     -29.180  18.968  -0.098  0.00  0.00    -0.000 C 
ENDBRANCH  32  33
ENDBRANCH  31  32
ENDBRANCH  26  31
ENDBRANCH  23  26
ENDBRANCH  21  23
ENDBRANCH   8  21
TORSDOF 12
ENDMDL
MODEL 4
REMARK VINA RESULT:      -6.7      2.927      7.193
REMARK  Name = 55331
REMARK  12 active torsions:
REMARK  status: ('A' for Active; 'I' for Inactive)
REMARK    1  A    between atoms: CA_3  and  C_18
REMARK    2  A    between atoms: C_8  and  CA_21
REMARK    3  A    between atoms: C_11  and  O_13
REMARK    4  A    between atoms: C_12  and  O_15
REMARK    5  A    between atoms: C_18  and  O_19
REMARK    6  A    between atoms: CA_21  and  N_23
REMARK    7  A    between atoms: N_23  and  CA_26
REMARK    8  A    between atoms: CA_26  and  C_28
REMARK    9  A    between atoms: CA_26  and  C_31
REMARK   10  A    between atoms: C_28  and  O_29
REMARK   11  A    between atoms: C_31  and  C_32
REMARK   12  A    between atoms: C_32  and  C_33
REMARK                            x       y       z     vdW  Elec       q    Type
REMARK                         _______ _______ _______ _____ _____    ______ ____
ROOT
ATOM      1  O   UNL     1     -40.024  22.156   2.237  0.00  0.00    -0.277 OA
ATOM      2  N   UNL     1     -38.030  23.345   2.030  0.00  0.00    -0.269 N 
ATOM      3  CA  UNL     1     -38.380  24.278   3.103  0.00  0.00    +0.179 C 
ATOM      4  C   UNL     1     -37.213  24.552   4.048  0.00  0.00    +0.057 C 
ATOM      5  C   UNL     1     -36.785  23.593   1.284  0.00  0.00    +0.120 C 
ATOM      6  C   UNL     1     -35.925  24.837   3.326  0.00  0.00    -0.019 C 
ATOM      7  C   UNL     1     -35.723  24.365   2.021  0.00  0.00    -0.003 C 
ATOM      8  C   UNL     1     -38.972  22.386   1.635  0.00  0.00    +0.206 C 
ATOM      9  C   UNL     1     -34.899  25.535   3.979  0.00  0.00    +0.036 C 
ATOM     10  C   UNL     1     -34.503  24.625   1.378  0.00  0.00    +0.037 C 
ATOM     11  C   UNL     1     -33.690  25.786   3.331  0.00  0.00    +0.172 C 
ATOM     12  C   UNL     1     -33.493  25.333   2.030  0.00  0.00    +0.172 C 
ENDROOT
BRANCH  11  13
ATOM     13  O   UNL     1     -32.711  26.472   3.982  0.00  0.00    -0.468 OA
ATOM     14  C   UNL     1     -32.837  27.892   4.030  0.00  0.00    +0.253 C 
ENDBRANCH  11  13
BRANCH  12  15
ATOM     15  O   UNL     1     -32.317  25.570   1.383  0.00  0.00    -0.468 OA
ATOM     16  C   UNL     1     -32.294  26.654   0.457  0.00  0.00    +0.253 C 
ENDBRANCH  12  15
BRANCH   3  18
ATOM     17  OXT UNL     1     -39.242  25.613   1.278  0.00  0.00    -0.248 OA
ATOM     18  C   UNL     1     -38.901  25.525   2.448  0.00  0.00    +0.332 C 
BRANCH  18  19
ATOM     19  O   UNL     1     -38.940  26.550   3.333  0.00  0.00    -0.479 OA
ATOM     20  H   UNL     1     -38.197  27.112   3.433  0.00  0.00    +0.295 HD
ENDBRANCH  18  19
ENDBRANCH   3  18
BRANCH   8  21
ATOM     21  CA  UNL     1     -38.644  21.596   0.390  0.00  0.00    +0.018 C 
ATOM     22  CB  UNL     1     -39.855  21.536  -0.518  0.00  0.00    -0.014 C 
BRANCH  21  23
ATOM     23  N   UNL     1     -38.252  20.268   0.828  0.00  0.00    +0.399 N 
ATOM     24  H1  UNL     1     -38.891  19.582   0.427  0.00  0.00    -0.083 HD
ATOM     25  H2  UNL     1     -38.289  20.239   1.848  0.00  0.00    -0.083 HD
BRANCH  23  26
ATOM     26  CA  UNL     1     -36.892  19.956   0.406  0.00  0.00    +0.041 C 
BRANCH  26  28
ATOM     27  OXT UNL     1     -36.571  18.333  -1.381  0.00  0.00    -0.253 OA
ATOM     28  C   UNL     1     -36.933  18.581  -0.237  0.00  0.00    +0.293 C 
BRANCH  28  29
ATOM     29  O   UNL     1     -37.398  17.625   0.608  0.00  0.00    -0.482 OA
ATOM     30  H   UNL     1     -36.987  16.784   0.635  0.00  0.00    +0.295 HD
ENDBRANCH  28  29
ENDBRANCH  26  28
BRANCH  26  31
ATOM     31  C   UNL     1     -35.967  19.966   1.631  0.00  0.00    -0.006 C 
BRANCH  31  32
ATOM     32  C   UNL     1     -34.700  20.820   1.464  0.00  0.00    +0.025 C 
BRANCH  32  33
ATOM     33  C   UNL     1     -33.473  20.044   1.052  0.00  0.00    -0.022 C 
ATOM     34  C   UNL     1     -33.291  18.755   1.528  0.00  0.00    -0.004 C 
ATOM     35  C   UNL     1     -32.548  20.636   0.205  0.00  0.00    -0.004 C 
ATOM     36  C   UNL     1     -32.157  18.038   1.146  0.00  0.00    -0.000 C 
ATOM     37  C   UNL     1     -31.414  19.919  -0.176  0.00  0.00    -0.000 C 
ATOM     38  C   UNL     1     -31.218  18.620   0.295  0.00  0.00    -0.000 C 
ENDBRANCH  32  33
ENDBRANCH  31  32
ENDBRANCH  26  31
ENDBRANCH  23  26
ENDBRANCH  21  23
ENDBRANCH   8  21
TORSDOF 12
ENDMDL
MODEL 5
REMARK VINA RESULT:      -6.6      2.806      6.148
REMARK  Name = 55331
REMARK  12 active torsions:
REMARK  status: ('A' for Active; 'I' for Inactive)
REMARK    1  A    between atoms: CA_3  and  C_18
REMARK    2  A    between atoms: C_8  and  CA_21
REMARK    3  A    between atoms: C_11  and  O_13
REMARK    4  A    between atoms: C_12  and  O_15
REMARK    5  A    between atoms: C_18  and  O_19
REMARK    6  A    between atoms: CA_21  and  N_23
REMARK    7  A    between atoms: N_23  and  CA_26
REMARK    8  A    between atoms: CA_26  and  C_28
REMARK    9  A    between atoms: CA_26  and  C_31
REMARK   10  A    between atoms: C_28  and  O_29
REMARK   11  A    between atoms: C_31  and  C_32
REMARK   12  A    between atoms: C_32  and  C_33
REMARK                            x       y       z     vdW  Elec       q    Type
REMARK                         _______ _______ _______ _____ _____    ______ ____
ROOT
ATOM      1  O   UNL     1     -36.297  25.410   5.646  0.00  0.00    -0.277 OA
ATOM      2  N   UNL     1     -35.518  24.180   3.826  0.00  0.00    -0.269 N 
ATOM      3  CA  UNL     1     -36.319  23.004   4.173  0.00  0.00    +0.179 C 
ATOM      4  C   UNL     1     -36.996  22.375   2.959  0.00  0.00    +0.057 C 
ATOM      5  C   UNL     1     -34.584  24.065   2.693  0.00  0.00    +0.120 C 
ATOM      6  C   UNL     1     -36.069  22.213   1.785  0.00  0.00    -0.019 C 
ATOM      7  C   UNL     1     -34.936  23.029   1.658  0.00  0.00    -0.003 C 
ATOM      8  C   UNL     1     -35.529  25.284   4.689  0.00  0.00    +0.206 C 
ATOM      9  C   UNL     1     -36.366  21.276   0.786  0.00  0.00    +0.036 C 
ATOM     10  C   UNL     1     -34.100  22.873   0.542  0.00  0.00    +0.037 C 
ATOM     11  C   UNL     1     -35.529  21.131  -0.320  0.00  0.00    +0.172 C 
ATOM     12  C   UNL     1     -34.395  21.928  -0.441  0.00  0.00    +0.172 C 
ENDROOT
BRANCH  11  13
ATOM     13  O   UNL     1     -35.833  20.209  -1.275  0.00  0.00    -0.468 OA
ATOM     14  C   UNL     1     -35.528  18.847  -0.981  0.00  0.00    +0.253 C 
ENDBRANCH  11  13
BRANCH  12  15
ATOM     15  O   UNL     1     -33.567  21.799  -1.516  0.00  0.00    -0.468 OA
ATOM     16  C   UNL     1     -32.179  22.039  -1.297  0.00  0.00    +0.253 C 
ENDBRANCH  12  15
BRANCH   3  18
ATOM     17  OXT UNL     1     -34.659  22.349   5.809  0.00  0.00    -0.248 OA
ATOM     18  C   UNL     1     -35.408  22.049   4.890  0.00  0.00    +0.332 C 
BRANCH  18  19
ATOM     19  O   UNL     1     -35.524  20.801   4.377  0.00  0.00    -0.479 OA
ATOM     20  H   UNL     1     -35.960  20.669   3.558  0.00  0.00    +0.295 HD
ENDBRANCH  18  19
ENDBRANCH   3  18
BRANCH   8  21
ATOM     21  CA  UNL     1     -34.528  26.376   4.396  0.00  0.00    +0.018 C 
ATOM     22  CB  UNL     1     -33.668  26.630   5.616  0.00  0.00    -0.014 C 
BRANCH  21  23
ATOM     23  N   UNL     1     -35.291  27.559   4.037  0.00  0.00    +0.399 N 
ATOM     24  H1  UNL     1     -35.004  28.333   4.634  0.00  0.00    -0.083 HD
ATOM     25  H2  UNL     1     -36.282  27.355   4.163  0.00  0.00    -0.083 HD
BRANCH  23  26
ATOM     26  CA  UNL     1     -35.068  27.924   2.644  0.00  0.00    +0.041 C 
BRANCH  26  28
ATOM     27  OXT UNL     1     -33.611  29.761   1.987  0.00  0.00    -0.253 OA
ATOM     28  C   UNL     1     -34.567  29.358   2.637  0.00  0.00    +0.293 C 
BRANCH  28  29
ATOM     29  O   UNL     1     -35.318  30.175   3.420  0.00  0.00    -0.482 OA
ATOM     30  H   UNL     1     -35.749  29.831   4.177  0.00  0.00    +0.295 HD
ENDBRANCH  28  29
ENDBRANCH  26  28
BRANCH  26  31
ATOM     31  C   UNL     1     -36.387  27.795   1.870  0.00  0.00    -0.006 C 
BRANCH  31  32
ATOM     32  C   UNL     1     -36.531  26.491   1.070  0.00  0.00    +0.025 C 
BRANCH  32  33
ATOM     33  C   UNL     1     -37.782  25.703   1.376  0.00  0.00    -0.022 C 
ATOM     34  C   UNL     1     -38.278  24.821   0.431  0.00  0.00    -0.004 C 
ATOM     35  C   UNL     1     -38.411  25.877   2.600  0.00  0.00    -0.004 C 
ATOM     36  C   UNL     1     -39.434  24.093   0.715  0.00  0.00    -0.000 C 
ATOM     37  C   UNL     1     -39.566  25.149   2.884  0.00  0.00    -0.000 C 
ATOM     38  C   UNL     1     -40.078  24.257   1.941  0.00  0.00    -0.000 C 
ENDBRANCH  32  33
ENDBRANCH  31  32
ENDBRANCH  26  31
ENDBRANCH  23  26
ENDBRANCH  21  23
ENDBRANCH   8  21
TORSDOF 12
ENDMDL
MODEL 6
REMARK VINA RESULT:      -6.6      6.390      9.258
REMARK  Name = 55331
REMARK  12 active torsions:
REMARK  status: ('A' for Active; 'I' for Inactive)
REMARK    1  A    between atoms: CA_3  and  C_18
REMARK    2  A    between atoms: C_8  and  CA_21
REMARK    3  A    between atoms: C_11  and  O_13
REMARK    4  A    between atoms: C_12  and  O_15
REMARK    5  A    between atoms: C_18  and  O_19
REMARK    6  A    between atoms: CA_21  and  N_23
REMARK    7  A    between atoms: N_23  and  CA_26
REMARK    8  A    between atoms: CA_26  and  C_28
REMARK    9  A    between atoms: CA_26  and  C_31
REMARK   10  A    between atoms: C_28  and  O_29
REMARK   11  A    between atoms: C_31  and  C_32
REMARK   12  A    between atoms: C_32  and  C_33
REMARK                            x       y       z     vdW  Elec       q    Type
REMARK                         _______ _______ _______ _____ _____    ______ ____
ROOT
ATOM      1  O   UNL     1     -33.089  30.505   3.039  0.00  0.00    -0.277 OA
ATOM      2  N   UNL     1     -34.083  28.401   3.178  0.00  0.00    -0.269 N 
ATOM      3  CA  UNL     1     -32.976  27.839   3.955  0.00  0.00    +0.179 C 
ATOM      4  C   UNL     1     -33.454  26.974   5.119  0.00  0.00    +0.057 C 
ATOM      5  C   UNL     1     -35.160  27.489   2.760  0.00  0.00    +0.120 C 
ATOM      6  C   UNL     1     -34.537  26.006   4.728  0.00  0.00    -0.019 C 
ATOM      7  C   UNL     1     -35.353  26.266   3.617  0.00  0.00    -0.003 C 
ATOM      8  C   UNL     1     -33.979  29.717   2.708  0.00  0.00    +0.206 C 
ATOM      9  C   UNL     1     -34.767  24.864   5.508  0.00  0.00    +0.036 C 
ATOM     10  C   UNL     1     -36.372  25.358   3.287  0.00  0.00    +0.037 C 
ATOM     11  C   UNL     1     -35.783  23.971   5.171  0.00  0.00    +0.172 C 
ATOM     12  C   UNL     1     -36.584  24.217   4.060  0.00  0.00    +0.172 C 
ENDROOT
BRANCH  11  13
ATOM     13  O   UNL     1     -35.984  22.864   5.938  0.00  0.00    -0.468 OA
ATOM     14  C   UNL     1     -35.068  21.783   5.769  0.00  0.00    +0.253 C 
ENDBRANCH  11  13
BRANCH  12  15
ATOM     15  O   UNL     1     -37.581  23.353   3.718  0.00  0.00    -0.468 OA
ATOM     16  C   UNL     1     -37.324  22.461   2.636  0.00  0.00    +0.253 C 
ENDBRANCH  12  15
BRANCH   3  18
ATOM     17  OXT UNL     1     -32.003  25.869   2.940  0.00  0.00    -0.248 OA
ATOM     18  C   UNL     1     -32.102  27.086   2.993  0.00  0.00    +0.332 C 
BRANCH  18  19
ATOM     19  O   UNL     1     -31.430  27.942   2.187  0.00  0.00    -0.479 OA
ATOM     20  H   UNL     1     -31.889  28.419   1.522  0.00  0.00    +0.295 HD
ENDBRANCH  18  19
ENDBRANCH   3  18
BRANCH   8  21
ATOM     21  CA  UNL     1     -35.045  30.170   1.740  0.00  0.00    +0.018 C 
ATOM     22  CB  UNL     1     -34.495  30.172   0.329  0.00  0.00    -0.014 C 
BRANCH  21  23
ATOM     23  N   UNL     1     -35.442  31.506   2.149  0.00  0.00    +0.399 N 
ATOM     24  H1  UNL     1     -34.809  31.834   2.877  0.00  0.00    -0.083 HD
ATOM     25  H2  UNL     1     -36.400  31.466   2.497  0.00  0.00    -0.083 HD
BRANCH  23  26
ATOM     26  CA  UNL     1     -35.397  32.434   1.025  0.00  0.00    +0.041 C 
BRANCH  26  28
ATOM     27  OXT UNL     1     -35.019  34.822   1.309  0.00  0.00    -0.253 OA
ATOM     28  C   UNL     1     -34.654  33.670   1.502  0.00  0.00    +0.293 C 
BRANCH  28  29
ATOM     29  O   UNL     1     -33.531  33.364   2.202  0.00  0.00    -0.482 OA
ATOM     30  H   UNL     1     -32.699  33.356   1.772  0.00  0.00    +0.295 HD
ENDBRANCH  28  29
ENDBRANCH  26  28
BRANCH  26  31
ATOM     31  C   UNL     1     -36.830  32.781   0.599  0.00  0.00    -0.006 C 
BRANCH  31  32
ATOM     32  C   UNL     1     -37.880  32.631   1.711  0.00  0.00    +0.025 C 
BRANCH  32  33
ATOM     33  C   UNL     1     -38.882  33.758   1.782  0.00  0.00    -0.022 C 
ATOM     34  C   UNL     1     -40.084  33.642   1.104  0.00  0.00    -0.004 C 
ATOM     35  C   UNL     1     -38.581  34.889   2.526  0.00  0.00    -0.004 C 
ATOM     36  C   UNL     1     -41.011  34.684   1.170  0.00  0.00    -0.000 C 
ATOM     37  C   UNL     1     -39.507  35.930   2.593  0.00  0.00    -0.000 C 
ATOM     38  C   UNL     1     -40.722  35.827   1.915  0.00  0.00    -0.000 C 
ENDBRANCH  32  33
ENDBRANCH  31  32
ENDBRANCH  26  31
ENDBRANCH  23  26
ENDBRANCH  21  23
ENDBRANCH   8  21
TORSDOF 12
ENDMDL
MODEL 7
REMARK VINA RESULT:      -6.6      3.600      6.925
REMARK  Name = 55331
REMARK  12 active torsions:
REMARK  status: ('A' for Active; 'I' for Inactive)
REMARK    1  A    between atoms: CA_3  and  C_18
REMARK    2  A    between atoms: C_8  and  CA_21
REMARK    3  A    between atoms: C_11  and  O_13
REMARK    4  A    between atoms: C_12  and  O_15
REMARK    5  A    between atoms: C_18  and  O_19
REMARK    6  A    between atoms: CA_21  and  N_23
REMARK    7  A    between atoms: N_23  and  CA_26
REMARK    8  A    between atoms: CA_26  and  C_28
REMARK    9  A    between atoms: CA_26  and  C_31
REMARK   10  A    between atoms: C_28  and  O_29
REMARK   11  A    between atoms: C_31  and  C_32
REMARK   12  A    between atoms: C_32  and  C_33
REMARK                            x       y       z     vdW  Elec       q    Type
REMARK                         _______ _______ _______ _____ _____    ______ ____
ROOT
ATOM      1  O   UNL     1     -40.452  20.999   1.633  0.00  0.00    -0.277 OA
ATOM      2  N   UNL     1     -39.149  22.868   1.137  0.00  0.00    -0.269 N 
ATOM      3  CA  UNL     1     -39.871  23.723   2.082  0.00  0.00    +0.179 C 
ATOM      4  C   UNL     1     -38.938  24.607   2.905  0.00  0.00    +0.057 C 
ATOM      5  C   UNL     1     -38.121  23.495   0.290  0.00  0.00    +0.120 C 
ATOM      6  C   UNL     1     -37.887  25.290   2.074  0.00  0.00    -0.019 C 
ATOM      7  C   UNL     1     -37.493  24.748   0.842  0.00  0.00    -0.003 C 
ATOM      8  C   UNL     1     -39.592  21.552   0.943  0.00  0.00    +0.206 C 
ATOM      9  C   UNL     1     -37.260  26.448   2.556  0.00  0.00    +0.036 C 
ATOM     10  C   UNL     1     -36.494  25.392   0.097  0.00  0.00    +0.037 C 
ATOM     11  C   UNL     1     -36.267  27.078   1.808  0.00  0.00    +0.172 C 
ATOM     12  C   UNL     1     -35.886  26.551   0.577  0.00  0.00    +0.172 C 
ENDROOT
BRANCH  11  13
ATOM     13  O   UNL     1     -35.677  28.205   2.292  0.00  0.00    -0.468 OA
ATOM     14  C   UNL     1     -34.523  28.032   3.113  0.00  0.00    +0.253 C 
ENDBRANCH  11  13
BRANCH  12  15
ATOM     15  O   UNL     1     -34.916  27.156  -0.166  0.00  0.00    -0.468 OA
ATOM     16  C   UNL     1     -33.644  26.515  -0.217  0.00  0.00    +0.253 C 
ENDBRANCH  12  15
BRANCH   3  18
ATOM     17  OXT UNL     1     -40.858  25.732   1.159  0.00  0.00    -0.248 OA
ATOM     18  C   UNL     1     -40.867  24.515   1.284  0.00  0.00    +0.332 C 
BRANCH  18  19
ATOM     19  O   UNL     1     -41.786  23.697   0.718  0.00  0.00    -0.479 OA
ATOM     20  H   UNL     1     -42.549  23.444   1.200  0.00  0.00    +0.295 HD
ENDBRANCH  18  19
ENDBRANCH   3  18
BRANCH   8  21
ATOM     21  CA  UNL     1     -38.949  20.788  -0.190  0.00  0.00    +0.018 C 
ATOM     22  CB  UNL     1     -40.017  20.224  -1.104  0.00  0.00    -0.014 C 
BRANCH  21  23
ATOM     23  N   UNL     1     -38.162  19.728   0.413  0.00  0.00    +0.399 N 
ATOM     24  H1  UNL     1     -38.300  18.867  -0.116  0.00  0.00    -0.083 HD
ATOM     25  H2  UNL     1     -38.467  19.608   1.379  0.00  0.00    -0.083 HD
BRANCH  23  26
ATOM     26  CA  UNL     1     -36.743  20.063   0.414  0.00  0.00    +0.041 C 
BRANCH  26  28
ATOM     27  OXT UNL     1     -34.920  18.805  -0.597  0.00  0.00    -0.253 OA
ATOM     28  C   UNL     1     -35.992  18.811  -0.005  0.00  0.00    +0.293 C 
BRANCH  28  29
ATOM     29  O   UNL     1     -36.627  17.672   0.374  0.00  0.00    -0.482 OA
ATOM     30  H   UNL     1     -37.027  17.122  -0.270  0.00  0.00    +0.295 HD
ENDBRANCH  28  29
ENDBRANCH  26  28
BRANCH  26  31
ATOM     31  C   UNL     1     -36.330  20.509   1.824  0.00  0.00    -0.006 C 
BRANCH  31  32
ATOM     32  C   UNL     1     -35.299  21.648   1.854  0.00  0.00    +0.025 C 
BRANCH  32  33
ATOM     33  C   UNL     1     -35.236  22.402   3.160  0.00  0.00    -0.022 C 
ATOM     34  C   UNL     1     -35.556  21.748   4.339  0.00  0.00    -0.004 C 
ATOM     35  C   UNL     1     -34.860  23.737   3.157  0.00  0.00    -0.004 C 
ATOM     36  C   UNL     1     -35.497  22.445   5.546  0.00  0.00    -0.000 C 
ATOM     37  C   UNL     1     -34.802  24.433   4.364  0.00  0.00    -0.000 C 
ATOM     38  C   UNL     1     -35.120  23.787   5.559  0.00  0.00    -0.000 C 
ENDBRANCH  32  33
ENDBRANCH  31  32
ENDBRANCH  26  31
ENDBRANCH  23  26
ENDBRANCH  21  23
ENDBRANCH   8  21
TORSDOF 12
ENDMDL
MODEL 8
REMARK VINA RESULT:      -6.5      2.923      6.474
REMARK  Name = 55331
REMARK  12 active torsions:
REMARK  status: ('A' for Active; 'I' for Inactive)
REMARK    1  A    between atoms: CA_3  and  C_18
REMARK    2  A    between atoms: C_8  and  CA_21
REMARK    3  A    between atoms: C_11  and  O_13
REMARK    4  A    between atoms: C_12  and  O_15
REMARK    5  A    between atoms: C_18  and  O_19
REMARK    6  A    between atoms: CA_21  and  N_23
REMARK    7  A    between atoms: N_23  and  CA_26
REMARK    8  A    between atoms: CA_26  and  C_28
REMARK    9  A    between atoms: CA_26  and  C_31
REMARK   10  A    between atoms: C_28  and  O_29
REMARK   11  A    between atoms: C_31  and  C_32
REMARK   12  A    between atoms: C_32  and  C_33
REMARK                            x       y       z     vdW  Elec       q    Type
REMARK                         _______ _______ _______ _____ _____    ______ ____
ROOT
ATOM      1  O   UNL     1     -37.484  23.789  -0.599  0.00  0.00    -0.277 OA
ATOM      2  N   UNL     1     -35.770  24.986   0.432  0.00  0.00    -0.269 N 
ATOM      3  CA  UNL     1     -36.465  26.267   0.283  0.00  0.00    +0.179 C 
ATOM      4  C   UNL     1     -36.389  27.127   1.542  0.00  0.00    +0.057 C 
ATOM      5  C   UNL     1     -34.406  25.006   0.985  0.00  0.00    +0.120 C 
ATOM      6  C   UNL     1     -35.004  27.196   2.125  0.00  0.00    -0.019 C 
ATOM      7  C   UNL     1     -34.074  26.178   1.869  0.00  0.00    -0.003 C 
ATOM      8  C   UNL     1     -36.345  23.837  -0.127  0.00  0.00    +0.206 C 
ATOM      9  C   UNL     1     -34.656  28.258   2.972  0.00  0.00    +0.036 C 
ATOM     10  C   UNL     1     -32.796  26.255   2.444  0.00  0.00    +0.037 C 
ATOM     11  C   UNL     1     -33.384  28.324   3.539  0.00  0.00    +0.172 C 
ATOM     12  C   UNL     1     -32.454  27.323   3.273  0.00  0.00    +0.172 C 
ENDROOT
BRANCH  11  13
ATOM     13  O   UNL     1     -33.066  29.368   4.352  0.00  0.00    -0.468 OA
ATOM     14  C   UNL     1     -32.765  30.612   3.721  0.00  0.00    +0.253 C 
ENDBRANCH  11  13
BRANCH  12  15
ATOM     15  O   UNL     1     -31.207  27.373   3.820  0.00  0.00    -0.468 OA
ATOM     16  C   UNL     1     -30.143  27.801   2.972  0.00  0.00    +0.253 C 
ENDBRANCH  12  15
BRANCH   3  18
ATOM     17  OXT UNL     1     -35.235  27.987  -0.895  0.00  0.00    -0.248 OA
ATOM     18  C   UNL     1     -35.878  26.947  -0.920  0.00  0.00    +0.332 C 
BRANCH  18  19
ATOM     19  O   UNL     1     -36.161  26.253  -2.048  0.00  0.00    -0.479 OA
ATOM     20  H   UNL     1     -36.146  26.683  -2.881  0.00  0.00    +0.295 HD
ENDBRANCH  18  19
ENDBRANCH   3  18
BRANCH   8  21
ATOM     21  CA  UNL     1     -35.490  22.592  -0.131  0.00  0.00    +0.018 C 
ATOM     22  CB  UNL     1     -35.492  21.968  -1.510  0.00  0.00    -0.014 C 
BRANCH  21  23
ATOM     23  N   UNL     1     -36.061  21.689   0.853  0.00  0.00    +0.399 N 
ATOM     24  H1  UNL     1     -36.432  20.868   0.377  0.00  0.00    -0.083 HD
ATOM     25  H2  UNL     1     -36.803  22.181   1.352  0.00  0.00    -0.083 HD
BRANCH  23  26
ATOM     26  CA  UNL     1     -35.057  21.265   1.821  0.00  0.00    +0.041 C 
BRANCH  26  28
ATOM     27  OXT UNL     1     -33.734  19.221   1.786  0.00  0.00    -0.253 OA
ATOM     28  C   UNL     1     -34.797  19.789   1.570  0.00  0.00    +0.293 C 
BRANCH  28  29
ATOM     29  O   UNL     1     -35.892  19.141   1.097  0.00  0.00    -0.482 OA
ATOM     30  H   UNL     1     -36.537  18.815   1.692  0.00  0.00    +0.295 HD
ENDBRANCH  28  29
ENDBRANCH  26  28
BRANCH  26  31
ATOM     31  C   UNL     1     -35.592  21.498   3.241  0.00  0.00    -0.006 C 
BRANCH  31  32
ATOM     32  C   UNL     1     -36.511  22.722   3.381  0.00  0.00    +0.025 C 
BRANCH  32  33
ATOM     33  C   UNL     1     -35.947  23.834   4.231  0.00  0.00    -0.022 C 
ATOM     34  C   UNL     1     -34.632  23.760   4.663  0.00  0.00    -0.004 C 
ATOM     35  C   UNL     1     -36.755  24.911   4.565  0.00  0.00    -0.004 C 
ATOM     36  C   UNL     1     -34.111  24.789   5.449  0.00  0.00    -0.000 C 
ATOM     37  C   UNL     1     -36.233  25.939   5.350  0.00  0.00    -0.000 C 
ATOM     38  C   UNL     1     -34.912  25.878   5.792  0.00  0.00    -0.000 C 
ENDBRANCH  32  33
ENDBRANCH  31  32
ENDBRANCH  26  31
ENDBRANCH  23  26
ENDBRANCH  21  23
ENDBRANCH   8  21
TORSDOF 12
ENDMDL
MODEL 9
REMARK VINA RESULT:      -6.5      3.011      7.065
REMARK  Name = 55331
REMARK  12 active torsions:
REMARK  status: ('A' for Active; 'I' for Inactive)
REMARK    1  A    between atoms: CA_3  and  C_18
REMARK    2  A    between atoms: C_8  and  CA_21
REMARK    3  A    between atoms: C_11  and  O_13
REMARK    4  A    between atoms: C_12  and  O_15
REMARK    5  A    between atoms: C_18  and  O_19
REMARK    6  A    between atoms: CA_21  and  N_23
REMARK    7  A    between atoms: N_23  and  CA_26
REMARK    8  A    between atoms: CA_26  and  C_28
REMARK    9  A    between atoms: CA_26  and  C_31
REMARK   10  A    between atoms: C_28  and  O_29
REMARK   11  A    between atoms: C_31  and  C_32
REMARK   12  A    between atoms: C_32  and  C_33
REMARK                            x       y       z     vdW  Elec       q    Type
REMARK                         _______ _______ _______ _____ _____    ______ ____
ROOT
ATOM      1  O   UNL     1     -34.101  18.722  -2.319  0.00  0.00    -0.277 OA
ATOM      2  N   UNL     1     -34.392  19.834  -0.291  0.00  0.00    -0.269 N 
ATOM      3  CA  UNL     1     -33.501  20.932  -0.671  0.00  0.00    +0.179 C 
ATOM      4  C   UNL     1     -34.059  22.301  -0.290  0.00  0.00    +0.057 C 
ATOM      5  C   UNL     1     -34.930  19.829   1.080  0.00  0.00    +0.120 C 
ATOM      6  C   UNL     1     -34.595  22.348   1.115  0.00  0.00    -0.019 C 
ATOM      7  C   UNL     1     -35.021  21.174   1.752  0.00  0.00    -0.003 C 
ATOM      8  C   UNL     1     -34.540  18.749  -1.166  0.00  0.00    +0.206 C 
ATOM      9  C   UNL     1     -34.718  23.580   1.773  0.00  0.00    +0.036 C 
ATOM     10  C   UNL     1     -35.539  21.248   3.054  0.00  0.00    +0.037 C 
ATOM     11  C   UNL     1     -35.235  23.642   3.066  0.00  0.00    +0.172 C 
ATOM     12  C   UNL     1     -35.643  22.476   3.707  0.00  0.00    +0.172 C 
ENDROOT
BRANCH  11  13
ATOM     13  O   UNL     1     -35.338  24.848   3.690  0.00  0.00    -0.468 OA
ATOM     14  C   UNL     1     -36.243  25.795   3.125  0.00  0.00    +0.253 C 
ENDBRANCH  11  13
BRANCH  12  15
ATOM     15  O   UNL     1     -36.151  22.521   4.972  0.00  0.00    -0.468 OA
ATOM     16  C   UNL     1     -35.313  22.050   6.024  0.00  0.00    +0.253 C 
ENDBRANCH  12  15
BRANCH   3  18
ATOM     17  OXT UNL     1     -31.925  19.713   0.703  0.00  0.00    -0.248 OA
ATOM     18  C   UNL     1     -32.167  20.653  -0.040  0.00  0.00    +0.332 C 
BRANCH  18  19
ATOM     19  O   UNL     1     -31.260  21.590  -0.405  0.00  0.00    -0.479 OA
ATOM     20  H   UNL     1     -30.465  21.332  -0.831  0.00  0.00    +0.295 HD
ENDBRANCH  18  19
ENDBRANCH   3  18
BRANCH   8  21
ATOM     21  CA  UNL     1     -35.297  17.556  -0.635  0.00  0.00    +0.018 C 
ATOM     22  CB  UNL     1     -34.500  16.290  -0.874  0.00  0.00    -0.014 C 
BRANCH  21  23
ATOM     23  N   UNL     1     -36.566  17.516  -1.340  0.00  0.00    +0.399 N 
ATOM     24  H1  UNL     1     -36.654  16.621  -1.819  0.00  0.00    -0.083 HD
ATOM     25  H2  UNL     1     -36.588  18.285  -2.010  0.00  0.00    -0.083 HD
BRANCH  23  26
ATOM     26  CA  UNL     1     -37.684  17.674  -0.418  0.00  0.00    +0.041 C 
BRANCH  26  28
ATOM     27  OXT UNL     1     -37.917  15.287   0.002  0.00  0.00    -0.253 OA
ATOM     28  C   UNL     1     -38.413  16.343  -0.373  0.00  0.00    +0.293 C 
BRANCH  28  29
ATOM     29  O   UNL     1     -39.706  16.444  -0.774  0.00  0.00    -0.482 OA
ATOM     30  H   UNL     1     -39.987  16.023  -1.562  0.00  0.00    +0.295 HD
ENDBRANCH  28  29
ENDBRANCH  26  28
BRANCH  26  31
ATOM     31  C   UNL     1     -38.605  18.792  -0.927  0.00  0.00    -0.006 C 
BRANCH  31  32
ATOM     32  C   UNL     1     -37.887  20.113  -1.244  0.00  0.00    +0.025 C 
BRANCH  32  33
ATOM     33  C   UNL     1     -38.152  21.223  -0.256  0.00  0.00    -0.022 C 
ATOM     34  C   UNL     1     -37.830  22.527  -0.595  0.00  0.00    -0.004 C 
ATOM     35  C   UNL     1     -38.714  20.917   0.975  0.00  0.00    -0.004 C 
ATOM     36  C   UNL     1     -38.076  23.553   0.318  0.00  0.00    -0.000 C 
ATOM     37  C   UNL     1     -38.960  21.942   1.887  0.00  0.00    -0.000 C 
ATOM     38  C   UNL     1     -38.641  23.260   1.559  0.00  0.00    -0.000 C 
ENDBRANCH  32  33
ENDBRANCH  31  32
ENDBRANCH  26  31
ENDBRANCH  23  26
ENDBRANCH  21  23
ENDBRANCH   8  21
TORSDOF 12
ENDMDL
