MODEL 1
REMARK VINA RESULT:      -6.7      0.000      0.000
REMARK  Name = 5287541
REMARK  3 active torsions:
REMARK  status: ('A' for Active; 'I' for Inactive)
REMARK    1  A    between atoms: C_16  and  O_17
REMARK    2  A    between atoms: O_17  and  S_18
REMARK    3  A    between atoms: S_18  and  N_21
REMARK                            x       y       z     vdW  Elec       q    Type
REMARK                         _______ _______ _______ _____ _____    ______ ____
ROOT
ATOM      1  O   UNL     1     -33.465  27.030   2.808  0.00  0.00    -0.421 OA
ATOM      2  O   UNL     1     -34.410  25.928   1.066  0.00  0.00    -0.245 OA
ATOM      3  C   UNL     1     -35.085  22.914   5.464  0.00  0.00    +0.005 C 
ATOM      4  C   UNL     1     -35.541  24.373   5.541  0.00  0.00    +0.026 C 
ATOM      5  C   UNL     1     -35.714  22.140   4.305  0.00  0.00    +0.001 C 
ATOM      6  C   UNL     1     -34.786  25.271   4.582  0.00  0.00    -0.017 A 
ATOM      7  C   UNL     1     -35.387  22.673   2.909  0.00  0.00    +0.005 C 
ATOM      8  C   UNL     1     -35.883  24.098   2.651  0.00  0.00    +0.033 C 
ATOM      9  C   UNL     1     -34.974  25.152   3.250  0.00  0.00    +0.050 A 
ATOM     10  C   UNL     1     -33.830  26.273   5.095  0.00  0.00    +0.031 A 
ATOM     11  C   UNL     1     -33.216  27.131   4.186  0.00  0.00    +0.151 A 
ATOM     12  C   UNL     1     -34.276  26.040   2.281  0.00  0.00    +0.341 A 
ATOM     13  C   UNL     1     -33.476  26.426   6.445  0.00  0.00    +0.006 C 
ATOM     14  C   UNL     1     -32.309  28.122   4.573  0.00  0.00    +0.077 C 
ATOM     15  C   UNL     1     -32.567  27.413   6.852  0.00  0.00    +0.040 C 
ATOM     16  C   UNL     1     -31.987  28.263   5.916  0.00  0.00    +0.176 C 
ENDROOT
BRANCH  16  17
ATOM     17  O   UNL     1     -31.105  29.219   6.314  0.00  0.00    -0.349 OA
BRANCH  17  18
ATOM     18  S   UNL     1     -29.486  28.970   6.422  0.00  0.00    +0.086 S 
ATOM     19  O   UNL     1     -28.815  29.986   5.633  0.00  0.00    -0.046 OA
ATOM     20  O   UNL     1     -29.226  27.560   6.195  0.00  0.00    -0.046 OA
BRANCH  18  21
ATOM     21  N   UNL     1     -29.148  29.294   8.073  0.00  0.00    -0.194 NA
ATOM     22  H   UNL     1     -28.597  30.150   8.146  0.00  0.00    +0.145 HD
ATOM     23  H   UNL     1     -28.623  28.516   8.472  0.00  0.00    +0.145 HD
ENDBRANCH  18  21
ENDBRANCH  17  18
ENDBRANCH  16  17
TORSDOF 3
ENDMDL
MODEL 2
REMARK VINA RESULT:      -6.5      6.019      8.249
REMARK  Name = 5287541
REMARK  3 active torsions:
REMARK  status: ('A' for Active; 'I' for Inactive)
REMARK    1  A    between atoms: C_16  and  O_17
REMARK    2  A    between atoms: O_17  and  S_18
REMARK    3  A    between atoms: S_18  and  N_21
REMARK                            x       y       z     vdW  Elec       q    Type
REMARK                         _______ _______ _______ _____ _____    ______ ____
ROOT
ATOM      1  O   UNL     1     -35.665  21.484   4.471  0.00  0.00    -0.421 OA
ATOM      2  O   UNL     1     -35.868  22.501   6.488  0.00  0.00    -0.245 OA
ATOM      3  C   UNL     1     -33.632  26.025   3.102  0.00  0.00    +0.005 C 
ATOM      4  C   UNL     1     -34.936  25.359   2.656  0.00  0.00    +0.026 C 
ATOM      5  C   UNL     1     -33.740  26.728   4.455  0.00  0.00    +0.001 C 
ATOM      6  C   UNL     1     -35.150  24.004   3.302  0.00  0.00    -0.017 A 
ATOM      7  C   UNL     1     -34.081  25.822   5.639  0.00  0.00    +0.005 C 
ATOM      8  C   UNL     1     -35.444  25.132   5.526  0.00  0.00    +0.033 C 
ATOM      9  C   UNL     1     -35.410  23.916   4.624  0.00  0.00    +0.050 A 
ATOM     10  C   UNL     1     -35.061  22.772   2.493  0.00  0.00    +0.031 A 
ATOM     11  C   UNL     1     -35.341  21.553   3.107  0.00  0.00    +0.151 A 
ATOM     12  C   UNL     1     -35.660  22.605   5.283  0.00  0.00    +0.341 A 
ATOM     13  C   UNL     1     -34.702  22.726   1.137  0.00  0.00    +0.006 C 
ATOM     14  C   UNL     1     -35.300  20.333   2.425  0.00  0.00    +0.077 C 
ATOM     15  C   UNL     1     -34.653  21.512   0.437  0.00  0.00    +0.040 C 
ATOM     16  C   UNL     1     -34.956  20.317   1.080  0.00  0.00    +0.176 C 
ENDROOT
BRANCH  16  17
ATOM     17  O   UNL     1     -34.907  19.141   0.399  0.00  0.00    -0.349 OA
BRANCH  17  18
ATOM     18  S   UNL     1     -33.584  18.172   0.358  0.00  0.00    +0.086 S 
ATOM     19  O   UNL     1     -32.907  18.269   1.637  0.00  0.00    -0.046 OA
ATOM     20  O   UNL     1     -32.871  18.426  -0.882  0.00  0.00    -0.046 OA
BRANCH  18  21
ATOM     21  N   UNL     1     -34.254  16.596   0.250  0.00  0.00    -0.194 NA
ATOM     22  H   UNL     1     -35.255  16.637   0.447  0.00  0.00    +0.145 HD
ATOM     23  H   UNL     1     -33.799  15.985   0.929  0.00  0.00    +0.145 HD
ENDBRANCH  18  21
ENDBRANCH  17  18
ENDBRANCH  16  17
TORSDOF 3
ENDMDL
MODEL 3
REMARK VINA RESULT:      -6.3      2.084      3.051
REMARK  Name = 5287541
REMARK  3 active torsions:
REMARK  status: ('A' for Active; 'I' for Inactive)
REMARK    1  A    between atoms: C_16  and  O_17
REMARK    2  A    between atoms: O_17  and  S_18
REMARK    3  A    between atoms: S_18  and  N_21
REMARK                            x       y       z     vdW  Elec       q    Type
REMARK                         _______ _______ _______ _____ _____    ______ ____
ROOT
ATOM      1  O   UNL     1     -34.800  24.475   5.861  0.00  0.00    -0.421 OA
ATOM      2  O   UNL     1     -36.018  22.570   6.040  0.00  0.00    -0.245 OA
ATOM      3  C   UNL     1     -35.805  23.886   0.834  0.00  0.00    +0.005 C 
ATOM      4  C   UNL     1     -34.475  23.796   1.586  0.00  0.00    +0.026 C 
ATOM      5  C   UNL     1     -36.646  22.613   0.928  0.00  0.00    +0.001 C 
ATOM      6  C   UNL     1     -34.627  24.050   3.072  0.00  0.00    -0.017 A 
ATOM      7  C   UNL     1     -37.080  22.217   2.340  0.00  0.00    +0.005 C 
ATOM      8  C   UNL     1     -35.918  21.906   3.287  0.00  0.00    +0.033 C 
ATOM      9  C   UNL     1     -35.272  23.155   3.851  0.00  0.00    +0.050 A 
ATOM     10  C   UNL     1     -34.083  25.283   3.676  0.00  0.00    +0.031 A 
ATOM     11  C   UNL     1     -34.174  25.442   5.057  0.00  0.00    +0.151 A 
ATOM     12  C   UNL     1     -35.409  23.356   5.320  0.00  0.00    +0.341 A 
ATOM     13  C   UNL     1     -33.481  26.329   2.960  0.00  0.00    +0.006 C 
ATOM     14  C   UNL     1     -33.676  26.564   5.725  0.00  0.00    +0.077 C 
ATOM     15  C   UNL     1     -32.978  27.463   3.612  0.00  0.00    +0.040 C 
ATOM     16  C   UNL     1     -33.072  27.579   4.995  0.00  0.00    +0.176 C 
ENDROOT
BRANCH  16  17
ATOM     17  O   UNL     1     -32.584  28.680   5.625  0.00  0.00    -0.349 OA
BRANCH  17  18
ATOM     18  S   UNL     1     -30.985  28.932   5.901  0.00  0.00    +0.086 S 
ATOM     19  O   UNL     1     -30.560  30.071   5.109  0.00  0.00    -0.046 OA
ATOM     20  O   UNL     1     -30.298  27.657   5.798  0.00  0.00    -0.046 OA
BRANCH  18  21
ATOM     21  N   UNL     1     -30.941  29.408   7.549  0.00  0.00    -0.194 NA
ATOM     22  H   UNL     1     -30.137  30.017   7.706  0.00  0.00    +0.145 HD
ATOM     23  H   UNL     1     -30.861  28.580   8.140  0.00  0.00    +0.145 HD
ENDBRANCH  18  21
ENDBRANCH  17  18
ENDBRANCH  16  17
TORSDOF 3
ENDMDL
MODEL 4
REMARK VINA RESULT:      -6.3      1.944      2.346
REMARK  Name = 5287541
REMARK  3 active torsions:
REMARK  status: ('A' for Active; 'I' for Inactive)
REMARK    1  A    between atoms: C_16  and  O_17
REMARK    2  A    between atoms: O_17  and  S_18
REMARK    3  A    between atoms: S_18  and  N_21
REMARK                            x       y       z     vdW  Elec       q    Type
REMARK                         _______ _______ _______ _____ _____    ______ ____
ROOT
ATOM      1  O   UNL     1     -33.753  25.486   2.138  0.00  0.00    -0.421 OA
ATOM      2  O   UNL     1     -34.573  23.741   0.945  0.00  0.00    -0.245 OA
ATOM      3  C   UNL     1     -34.951  22.477   6.155  0.00  0.00    +0.005 C 
ATOM      4  C   UNL     1     -35.554  23.812   5.715  0.00  0.00    +0.026 C 
ATOM      5  C   UNL     1     -35.491  21.278   5.375  0.00  0.00    +0.001 C 
ATOM      6  C   UNL     1     -34.892  24.370   4.471  0.00  0.00    -0.017 A 
ATOM      7  C   UNL     1     -35.215  21.297   3.871  0.00  0.00    +0.005 C 
ATOM      8  C   UNL     1     -35.856  22.476   3.133  0.00  0.00    +0.033 C 
ATOM      9  C   UNL     1     -35.062  23.758   3.279  0.00  0.00    +0.050 A 
ATOM     10  C   UNL     1     -34.047  25.579   4.556  0.00  0.00    +0.031 A 
ATOM     11  C   UNL     1     -33.521  26.104   3.378  0.00  0.00    +0.151 A 
ATOM     12  C   UNL     1     -34.456  24.298   2.032  0.00  0.00    +0.341 A 
ATOM     13  C   UNL     1     -33.716  26.245   5.746  0.00  0.00    +0.006 C 
ATOM     14  C   UNL     1     -32.723  27.252   3.350  0.00  0.00    +0.077 C 
ATOM     15  C   UNL     1     -32.916  27.395   5.738  0.00  0.00    +0.040 C 
ATOM     16  C   UNL     1     -32.422  27.901   4.540  0.00  0.00    +0.176 C 
ENDROOT
BRANCH  16  17
ATOM     17  O   UNL     1     -31.645  29.017   4.535  0.00  0.00    -0.349 OA
BRANCH  17  18
ATOM     18  S   UNL     1     -32.211  30.516   4.890  0.00  0.00    +0.086 S 
ATOM     19  O   UNL     1     -32.012  30.755   6.307  0.00  0.00    -0.046 OA
ATOM     20  O   UNL     1     -33.525  30.662   4.289  0.00  0.00    -0.046 OA
BRANCH  18  21
ATOM     21  N   UNL     1     -31.140  31.552   4.039  0.00  0.00    -0.194 NA
ATOM     22  H   UNL     1     -31.618  31.942   3.226  0.00  0.00    +0.145 HD
ATOM     23  H   UNL     1     -30.325  31.020   3.731  0.00  0.00    +0.145 HD
ENDBRANCH  18  21
ENDBRANCH  17  18
ENDBRANCH  16  17
TORSDOF 3
ENDMDL
MODEL 5
REMARK VINA RESULT:      -6.1      5.773      7.563
REMARK  Name = 5287541
REMARK  3 active torsions:
REMARK  status: ('A' for Active; 'I' for Inactive)
REMARK    1  A    between atoms: C_16  and  O_17
REMARK    2  A    between atoms: O_17  and  S_18
REMARK    3  A    between atoms: S_18  and  N_21
REMARK                            x       y       z     vdW  Elec       q    Type
REMARK                         _______ _______ _______ _____ _____    ______ ____
ROOT
ATOM      1  O   UNL     1     -33.110  22.625  -0.115  0.00  0.00    -0.421 OA
ATOM      2  O   UNL     1     -31.209  22.404  -1.333  0.00  0.00    -0.245 OA
ATOM      3  C   UNL     1     -31.852  17.895   1.520  0.00  0.00    +0.005 C 
ATOM      4  C   UNL     1     -33.036  18.356   0.666  0.00  0.00    +0.026 C 
ATOM      5  C   UNL     1     -30.557  17.727   0.724  0.00  0.00    +0.001 C 
ATOM      6  C   UNL     1     -33.033  19.852   0.425  0.00  0.00    -0.017 A 
ATOM      7  C   UNL     1     -30.025  18.999   0.064  0.00  0.00    +0.005 C 
ATOM      8  C   UNL     1     -30.967  19.603  -0.981  0.00  0.00    +0.033 C 
ATOM      9  C   UNL     1     -32.088  20.412  -0.361  0.00  0.00    +0.050 A 
ATOM     10  C   UNL     1     -34.056  20.709   1.057  0.00  0.00    +0.031 A 
ATOM     11  C   UNL     1     -34.067  22.068   0.748  0.00  0.00    +0.151 A 
ATOM     12  C   UNL     1     -32.077  21.872  -0.647  0.00  0.00    +0.341 A 
ATOM     13  C   UNL     1     -35.027  20.263   1.967  0.00  0.00    +0.006 C 
ATOM     14  C   UNL     1     -35.003  22.959   1.281  0.00  0.00    +0.077 C 
ATOM     15  C   UNL     1     -35.972  21.142   2.514  0.00  0.00    +0.040 C 
ATOM     16  C   UNL     1     -35.962  22.489   2.168  0.00  0.00    +0.176 C 
ENDROOT
BRANCH  16  17
ATOM     17  O   UNL     1     -36.879  23.340   2.700  0.00  0.00    -0.349 OA
BRANCH  17  18
ATOM     18  S   UNL     1     -36.585  24.287   4.008  0.00  0.00    +0.086 S 
ATOM     19  O   UNL     1     -35.603  25.288   3.635  0.00  0.00    -0.046 OA
ATOM     20  O   UNL     1     -36.369  23.425   5.156  0.00  0.00    -0.046 OA
BRANCH  18  21
ATOM     21  N   UNL     1     -38.078  25.098   4.250  0.00  0.00    -0.194 NA
ATOM     22  H   UNL     1     -38.718  24.867   3.489  0.00  0.00    +0.145 HD
ATOM     23  H   UNL     1     -37.920  26.106   4.266  0.00  0.00    +0.145 HD
ENDBRANCH  18  21
ENDBRANCH  17  18
ENDBRANCH  16  17
TORSDOF 3
ENDMDL
MODEL 6
REMARK VINA RESULT:      -6.0      1.835      2.601
REMARK  Name = 5287541
REMARK  3 active torsions:
REMARK  status: ('A' for Active; 'I' for Inactive)
REMARK    1  A    between atoms: C_16  and  O_17
REMARK    2  A    between atoms: O_17  and  S_18
REMARK    3  A    between atoms: S_18  and  N_21
REMARK                            x       y       z     vdW  Elec       q    Type
REMARK                         _______ _______ _______ _____ _____    ______ ____
ROOT
ATOM      1  O   UNL     1     -33.466  25.572   1.904  0.00  0.00    -0.421 OA
ATOM      2  O   UNL     1     -33.398  24.637  -0.161  0.00  0.00    -0.245 OA
ATOM      3  C   UNL     1     -35.355  20.958   3.232  0.00  0.00    +0.005 C 
ATOM      4  C   UNL     1     -36.032  22.330   3.224  0.00  0.00    +0.026 C 
ATOM      5  C   UNL     1     -35.302  20.296   1.855  0.00  0.00    +0.001 C 
ATOM      6  C   UNL     1     -35.103  23.437   2.769  0.00  0.00    -0.017 A 
ATOM      7  C   UNL     1     -34.511  21.060   0.792  0.00  0.00    +0.005 C 
ATOM      8  C   UNL     1     -35.079  22.443   0.462  0.00  0.00    +0.033 C 
ATOM      9  C   UNL     1     -34.692  23.493   1.484  0.00  0.00    +0.050 A 
ATOM     10  C   UNL     1     -34.629  24.453   3.730  0.00  0.00    +0.031 A 
ATOM     11  C   UNL     1     -33.839  25.498   3.255  0.00  0.00    +0.151 A 
ATOM     12  C   UNL     1     -33.807  24.585   0.995  0.00  0.00    +0.341 A 
ATOM     13  C   UNL     1     -34.905  24.447   5.106  0.00  0.00    +0.006 C 
ATOM     14  C   UNL     1     -33.354  26.517   4.081  0.00  0.00    +0.077 C 
ATOM     15  C   UNL     1     -34.426  25.459   5.950  0.00  0.00    +0.040 C 
ATOM     16  C   UNL     1     -33.654  26.496   5.436  0.00  0.00    +0.176 C 
ENDROOT
BRANCH  16  17
ATOM     17  O   UNL     1     -33.191  27.476   6.257  0.00  0.00    -0.349 OA
BRANCH  17  18
ATOM     18  S   UNL     1     -31.986  28.510   5.843  0.00  0.00    +0.086 S 
ATOM     19  O   UNL     1     -32.540  29.531   4.974  0.00  0.00    -0.046 OA
ATOM     20  O   UNL     1     -30.835  27.727   5.429  0.00  0.00    -0.046 OA
BRANCH  18  21
ATOM     21  N   UNL     1     -31.586  29.264   7.331  0.00  0.00    -0.194 NA
ATOM     22  H   UNL     1     -31.308  28.553   8.009  0.00  0.00    +0.145 HD
ATOM     23  H   UNL     1     -32.397  29.772   7.685  0.00  0.00    +0.145 HD
ENDBRANCH  18  21
ENDBRANCH  17  18
ENDBRANCH  16  17
TORSDOF 3
ENDMDL
MODEL 7
REMARK VINA RESULT:      -6.0      2.566      3.793
REMARK  Name = 5287541
REMARK  3 active torsions:
REMARK  status: ('A' for Active; 'I' for Inactive)
REMARK    1  A    between atoms: C_16  and  O_17
REMARK    2  A    between atoms: O_17  and  S_18
REMARK    3  A    between atoms: S_18  and  N_21
REMARK                            x       y       z     vdW  Elec       q    Type
REMARK                         _______ _______ _______ _____ _____    ______ ____
ROOT
ATOM      1  O   UNL     1     -37.490  25.077   3.109  0.00  0.00    -0.421 OA
ATOM      2  O   UNL     1     -39.081  24.213   1.743  0.00  0.00    -0.245 OA
ATOM      3  C   UNL     1     -35.193  20.538   2.245  0.00  0.00    +0.005 C 
ATOM      4  C   UNL     1     -35.785  21.108   3.536  0.00  0.00    +0.026 C 
ATOM      5  C   UNL     1     -36.241  19.938   1.307  0.00  0.00    +0.001 C 
ATOM      6  C   UNL     1     -36.360  22.498   3.350  0.00  0.00    -0.017 A 
ATOM      7  C   UNL     1     -37.296  20.918   0.793  0.00  0.00    +0.005 C 
ATOM      8  C   UNL     1     -38.165  21.536   1.892  0.00  0.00    +0.033 C 
ATOM      9  C   UNL     1     -37.475  22.678   2.610  0.00  0.00    +0.050 A 
ATOM     10  C   UNL     1     -35.697  23.666   3.965  0.00  0.00    +0.031 A 
ATOM     11  C   UNL     1     -36.300  24.915   3.835  0.00  0.00    +0.151 A 
ATOM     12  C   UNL     1     -38.086  24.024   2.436  0.00  0.00    +0.341 A 
ATOM     13  C   UNL     1     -34.484  23.621   4.670  0.00  0.00    +0.006 C 
ATOM     14  C   UNL     1     -35.760  26.078   4.393  0.00  0.00    +0.077 C 
ATOM     15  C   UNL     1     -33.927  24.777   5.234  0.00  0.00    +0.040 C 
ATOM     16  C   UNL     1     -34.567  26.004   5.099  0.00  0.00    +0.176 C 
ENDROOT
BRANCH  16  17
ATOM     17  O   UNL     1     -34.023  27.124   5.647  0.00  0.00    -0.349 OA
BRANCH  17  18
ATOM     18  S   UNL     1     -32.581  27.754   5.180  0.00  0.00    +0.086 S 
ATOM     19  O   UNL     1     -32.710  29.198   5.128  0.00  0.00    -0.046 OA
ATOM     20  O   UNL     1     -32.110  27.007   4.027  0.00  0.00    -0.046 OA
BRANCH  18  21
ATOM     21  N   UNL     1     -31.544  27.377   6.493  0.00  0.00    -0.194 NA
ATOM     22  H   UNL     1     -31.577  28.131   7.181  0.00  0.00    +0.145 HD
ATOM     23  H   UNL     1     -30.588  27.270   6.153  0.00  0.00    +0.145 HD
ENDBRANCH  18  21
ENDBRANCH  17  18
ENDBRANCH  16  17
TORSDOF 3
ENDMDL
MODEL 8
REMARK VINA RESULT:      -5.8      5.751      7.861
REMARK  Name = 5287541
REMARK  3 active torsions:
REMARK  status: ('A' for Active; 'I' for Inactive)
REMARK    1  A    between atoms: C_16  and  O_17
REMARK    2  A    between atoms: O_17  and  S_18
REMARK    3  A    between atoms: S_18  and  N_21
REMARK                            x       y       z     vdW  Elec       q    Type
REMARK                         _______ _______ _______ _____ _____    ______ ____
ROOT
ATOM      1  O   UNL     1     -37.716  20.269   0.498  0.00  0.00    -0.421 OA
ATOM      2  O   UNL     1     -37.657  18.688  -1.127  0.00  0.00    -0.245 OA
ATOM      3  C   UNL     1     -32.616  19.485   0.556  0.00  0.00    +0.005 C 
ATOM      4  C   UNL     1     -33.668  19.178   1.624  0.00  0.00    +0.026 C 
ATOM      5  C   UNL     1     -32.545  18.432  -0.550  0.00  0.00    +0.001 C 
ATOM      6  C   UNL     1     -35.066  19.583   1.200  0.00  0.00    -0.017 A 
ATOM      7  C   UNL     1     -33.823  18.259  -1.372  0.00  0.00    +0.005 C 
ATOM      8  C   UNL     1     -35.032  17.788  -0.557  0.00  0.00    +0.033 C 
ATOM      9  C   UNL     1     -35.695  18.915   0.209  0.00  0.00    +0.050 A 
ATOM     10  C   UNL     1     -35.744  20.719   1.857  0.00  0.00    +0.031 A 
ATOM     11  C   UNL     1     -37.056  21.009   1.493  0.00  0.00    +0.151 A 
ATOM     12  C   UNL     1     -37.080  19.263  -0.209  0.00  0.00    +0.341 A 
ATOM     13  C   UNL     1     -35.161  21.549   2.827  0.00  0.00    +0.006 C 
ATOM     14  C   UNL     1     -37.789  22.053   2.066  0.00  0.00    +0.077 C 
ATOM     15  C   UNL     1     -35.879  22.601   3.412  0.00  0.00    +0.040 C 
ATOM     16  C   UNL     1     -37.194  22.850   3.034  0.00  0.00    +0.176 C 
ENDROOT
BRANCH  16  17
ATOM     17  O   UNL     1     -37.888  23.872   3.603  0.00  0.00    -0.349 OA
BRANCH  17  18
ATOM     18  S   UNL     1     -37.486  25.453   3.422  0.00  0.00    +0.086 S 
ATOM     19  O   UNL     1     -36.979  25.642   2.075  0.00  0.00    -0.046 OA
ATOM     20  O   UNL     1     -36.703  25.859   4.575  0.00  0.00    -0.046 OA
BRANCH  18  21
ATOM     21  N   UNL     1     -38.998  26.257   3.519  0.00  0.00    -0.194 NA
ATOM     22  H   UNL     1     -39.418  26.307   2.590  0.00  0.00    +0.145 HD
ATOM     23  H   UNL     1     -38.859  27.201   3.881  0.00  0.00    +0.145 HD
ENDBRANCH  18  21
ENDBRANCH  17  18
ENDBRANCH  16  17
TORSDOF 3
ENDMDL
MODEL 9
REMARK VINA RESULT:      -5.8      4.200      6.653
REMARK  Name = 5287541
REMARK  3 active torsions:
REMARK  status: ('A' for Active; 'I' for Inactive)
REMARK    1  A    between atoms: C_16  and  O_17
REMARK    2  A    between atoms: O_17  and  S_18
REMARK    3  A    between atoms: S_18  and  N_21
REMARK                            x       y       z     vdW  Elec       q    Type
REMARK                         _______ _______ _______ _____ _____    ______ ____
ROOT
ATOM      1  O   UNL     1     -34.527  28.157   2.375  0.00  0.00    -0.421 OA
ATOM      2  O   UNL     1     -33.735  30.039   1.388  0.00  0.00    -0.245 OA
ATOM      3  C   UNL     1     -31.535  29.713   6.280  0.00  0.00    +0.005 C 
ATOM      4  C   UNL     1     -31.407  28.487   5.374  0.00  0.00    +0.026 C 
ATOM      5  C   UNL     1     -31.000  30.998   5.646  0.00  0.00    +0.001 C 
ATOM      6  C   UNL     1     -32.519  28.400   4.349  0.00  0.00    -0.017 A 
ATOM      7  C   UNL     1     -31.712  31.443   4.368  0.00  0.00    +0.005 C 
ATOM      8  C   UNL     1     -31.605  30.444   3.212  0.00  0.00    +0.033 C 
ATOM      9  C   UNL     1     -32.584  29.295   3.339  0.00  0.00    +0.050 A 
ATOM     10  C   UNL     1     -33.548  27.345   4.454  0.00  0.00    +0.031 A 
ATOM     11  C   UNL     1     -34.508  27.252   3.449  0.00  0.00    +0.151 A 
ATOM     12  C   UNL     1     -33.642  29.218   2.296  0.00  0.00    +0.341 A 
ATOM     13  C   UNL     1     -33.646  26.422   5.506  0.00  0.00    +0.006 C 
ATOM     14  C   UNL     1     -35.513  26.280   3.449  0.00  0.00    +0.077 C 
ATOM     15  C   UNL     1     -34.648  25.442   5.525  0.00  0.00    +0.040 C 
ATOM     16  C   UNL     1     -35.579  25.369   4.494  0.00  0.00    +0.176 C 
ENDROOT
BRANCH  16  17
ATOM     17  O   UNL     1     -36.550  24.418   4.515  0.00  0.00    -0.349 OA
BRANCH  17  18
ATOM     18  S   UNL     1     -36.397  22.950   3.795  0.00  0.00    +0.086 S 
ATOM     19  O   UNL     1     -35.213  22.975   2.957  0.00  0.00    -0.046 OA
ATOM     20  O   UNL     1     -37.688  22.574   3.247  0.00  0.00    -0.046 OA
BRANCH  18  21
ATOM     21  N   UNL     1     -36.073  21.899   5.112  0.00  0.00    -0.194 NA
ATOM     22  H   UNL     1     -36.946  21.485   5.440  0.00  0.00    +0.145 HD
ATOM     23  H   UNL     1     -35.641  22.427   5.871  0.00  0.00    +0.145 HD
ENDBRANCH  18  21
ENDBRANCH  17  18
ENDBRANCH  16  17
TORSDOF 3
ENDMDL
