MODEL 1
REMARK VINA RESULT:      -6.0      0.000      0.000
REMARK  Name = 558649
REMARK  11 active torsions:
REMARK  status: ('A' for Active; 'I' for Inactive)
REMARK    1  A    between atoms: N_2  and  CA_5
REMARK    2  A    between atoms: C_3  and  C_17
REMARK    3  A    between atoms: CA_5  and  C_7
REMARK    4  A    between atoms: CA_5  and  CB_10
REMARK    5  A    between atoms: C_7  and  O_8
REMARK    6  A    between atoms: CB_10  and  CG_11
REMARK    7  A    between atoms: C_17  and  C_18
REMARK    8  A    between atoms: C_18  and  CA_19
REMARK    9  A    between atoms: CA_19  and  N_20
REMARK   10  A    between atoms: CA_19  and  C_25
REMARK   11  A    between atoms: C_25  and  O_26
REMARK                            x       y       z     vdW  Elec       q    Type
REMARK                         _______ _______ _______ _____ _____    ______ ____
ROOT
ATOM      1  O   UNL     1     -34.975  23.795   2.734  0.00  0.00    -0.275 OA
ATOM      2  N   UNL     1     -36.553  22.158   3.208  0.00  0.00    -0.297 N 
ATOM      3  C   UNL     1     -35.802  23.290   3.488  0.00  0.00    +0.223 C 
ATOM      4  H   UNL     1     -37.191  21.835   3.886  0.00  0.00    +0.150 HD
ENDROOT
BRANCH   2   5
ATOM      5  CA  UNL     1     -36.441  21.432   1.965  0.00  0.00    +0.176 C 
BRANCH   5   7
ATOM      6  OXT UNL     1     -38.017  21.028   0.174  0.00  0.00    -0.248 OA
ATOM      7  C   UNL     1     -37.813  21.130   1.379  0.00  0.00    +0.332 C 
BRANCH   7   8
ATOM      8  O   UNL     1     -38.800  20.975   2.294  0.00  0.00    -0.479 OA
ATOM      9  H   UNL     1     -38.828  20.205   2.826  0.00  0.00    +0.295 HD
ENDBRANCH   7   8
ENDBRANCH   5   7
BRANCH   5  10
ATOM     10  CB  UNL     1     -35.654  20.128   2.154  0.00  0.00    +0.057 C 
BRANCH  10  11
ATOM     11  CG  UNL     1     -34.344  20.116   1.404  0.00  0.00    -0.020 C 
ATOM     12  CD1 UNL     1     -33.503  19.020   1.523  0.00  0.00    -0.004 C 
ATOM     13  CD2 UNL     1     -34.005  21.201   0.611  0.00  0.00    -0.004 C 
ATOM     14  CE1 UNL     1     -32.292  19.009   0.830  0.00  0.00    -0.000 C 
ATOM     15  CE2 UNL     1     -32.794  21.189  -0.082  0.00  0.00    -0.000 C 
ATOM     16  CZ  UNL     1     -31.938  20.093   0.029  0.00  0.00    -0.000 C 
ENDBRANCH  10  11
ENDBRANCH   5  10
ENDBRANCH   2   5
BRANCH   3  17
ATOM     17  C   UNL     1     -36.117  23.842   4.869  0.00  0.00    +0.083 C 
BRANCH  17  18
ATOM     18  C   UNL     1     -34.880  24.411   5.565  0.00  0.00    -0.001 C 
BRANCH  18  19
ATOM     19  CA  UNL     1     -34.898  25.942   5.650  0.00  0.00    +0.036 C 
BRANCH  19  20
ATOM     20  N   UNL     1     -36.226  26.438   5.281  0.00  0.00    +0.389 N 
ATOM     21  H1  UNL     1     -36.933  25.760   5.568  0.00  0.00    -0.088 HD
ATOM     22  H2  UNL     1     -36.271  26.569   4.270  0.00  0.00    -0.088 HD
ATOM     23  H3  UNL     1     -36.399  27.328   5.748  0.00  0.00    -0.088 HD
ENDBRANCH  19  20
BRANCH  19  25
ATOM     24  OXT UNL     1     -33.826  27.757   4.427  0.00  0.00    -0.253 OA
ATOM     25  C   UNL     1     -33.915  26.560   4.672  0.00  0.00    +0.293 C 
BRANCH  25  26
ATOM     26  O   UNL     1     -33.143  25.627   4.057  0.00  0.00    -0.482 OA
ATOM     27  H   UNL     1     -32.224  25.778   3.948  0.00  0.00    +0.295 HD
ENDBRANCH  25  26
ENDBRANCH  19  25
ENDBRANCH  18  19
ENDBRANCH  17  18
ENDBRANCH   3  17
TORSDOF 11
ENDMDL
MODEL 2
REMARK VINA RESULT:      -5.8      2.891      6.430
REMARK  Name = 558649
REMARK  11 active torsions:
REMARK  status: ('A' for Active; 'I' for Inactive)
REMARK    1  A    between atoms: N_2  and  CA_5
REMARK    2  A    between atoms: C_3  and  C_17
REMARK    3  A    between atoms: CA_5  and  C_7
REMARK    4  A    between atoms: CA_5  and  CB_10
REMARK    5  A    between atoms: C_7  and  O_8
REMARK    6  A    between atoms: CB_10  and  CG_11
REMARK    7  A    between atoms: C_17  and  C_18
REMARK    8  A    between atoms: C_18  and  CA_19
REMARK    9  A    between atoms: CA_19  and  N_20
REMARK   10  A    between atoms: CA_19  and  C_25
REMARK   11  A    between atoms: C_25  and  O_26
REMARK                            x       y       z     vdW  Elec       q    Type
REMARK                         _______ _______ _______ _____ _____    ______ ____
ROOT
ATOM      1  O   UNL     1     -36.506  23.988   1.869  0.00  0.00    -0.275 OA
ATOM      2  N   UNL     1     -37.006  22.879   3.848  0.00  0.00    -0.297 N 
ATOM      3  C   UNL     1     -37.271  23.319   2.559  0.00  0.00    +0.223 C 
ATOM      4  H   UNL     1     -37.691  22.348   4.314  0.00  0.00    +0.150 HD
ENDROOT
BRANCH   2   5
ATOM      5  CA  UNL     1     -35.770  23.169   4.535  0.00  0.00    +0.176 C 
BRANCH   5   7
ATOM      6  OXT UNL     1     -35.126  22.138   6.627  0.00  0.00    -0.248 OA
ATOM      7  C   UNL     1     -35.354  22.008   5.429  0.00  0.00    +0.332 C 
BRANCH   7   8
ATOM      8  O   UNL     1     -35.261  20.812   4.801  0.00  0.00    -0.479 OA
ATOM      9  H   UNL     1     -34.450  20.345   4.800  0.00  0.00    +0.295 HD
ENDBRANCH   7   8
ENDBRANCH   5   7
BRANCH   5  10
ATOM     10  CB  UNL     1     -35.886  24.454   5.366  0.00  0.00    +0.057 C 
BRANCH  10  11
ATOM     11  CG  UNL     1     -34.799  25.456   5.056  0.00  0.00    -0.020 C 
ATOM     12  CD1 UNL     1     -34.478  25.722   3.734  0.00  0.00    -0.004 C 
ATOM     13  CD2 UNL     1     -34.142  26.090   6.099  0.00  0.00    -0.004 C 
ATOM     14  CE1 UNL     1     -33.474  26.648   3.447  0.00  0.00    -0.000 C 
ATOM     15  CE2 UNL     1     -33.138  27.015   5.811  0.00  0.00    -0.000 C 
ATOM     16  CZ  UNL     1     -32.805  27.294   4.486  0.00  0.00    -0.000 C 
ENDBRANCH  10  11
ENDBRANCH   5  10
ENDBRANCH   2   5
BRANCH   3  17
ATOM     17  C   UNL     1     -38.647  22.879   2.090  0.00  0.00    +0.083 C 
BRANCH  17  18
ATOM     18  C   UNL     1     -38.748  21.362   1.921  0.00  0.00    -0.001 C 
BRANCH  18  19
ATOM     19  CA  UNL     1     -37.804  20.820   0.841  0.00  0.00    +0.036 C 
BRANCH  19  20
ATOM     20  N   UNL     1     -38.508  19.822   0.032  0.00  0.00    +0.389 N 
ATOM     21  H1  UNL     1     -38.228  18.886   0.328  0.00  0.00    -0.088 HD
ATOM     22  H2  UNL     1     -38.273  19.953  -0.952  0.00  0.00    -0.088 HD
ATOM     23  H3  UNL     1     -39.515  19.930   0.158  0.00  0.00    -0.088 HD
ENDBRANCH  19  20
BRANCH  19  25
ATOM     24  OXT UNL     1     -35.583  19.816   0.854  0.00  0.00    -0.253 OA
ATOM     25  C   UNL     1     -36.608  20.116   1.455  0.00  0.00    +0.293 C 
BRANCH  25  26
ATOM     26  O   UNL     1     -36.802  19.819   2.766  0.00  0.00    -0.482 OA
ATOM     27  H   UNL     1     -36.094  19.902   3.375  0.00  0.00    +0.295 HD
ENDBRANCH  25  26
ENDBRANCH  19  25
ENDBRANCH  18  19
ENDBRANCH  17  18
ENDBRANCH   3  17
TORSDOF 11
ENDMDL
MODEL 3
REMARK VINA RESULT:      -5.8      2.824      4.919
REMARK  Name = 558649
REMARK  11 active torsions:
REMARK  status: ('A' for Active; 'I' for Inactive)
REMARK    1  A    between atoms: N_2  and  CA_5
REMARK    2  A    between atoms: C_3  and  C_17
REMARK    3  A    between atoms: CA_5  and  C_7
REMARK    4  A    between atoms: CA_5  and  CB_10
REMARK    5  A    between atoms: C_7  and  O_8
REMARK    6  A    between atoms: CB_10  and  CG_11
REMARK    7  A    between atoms: C_17  and  C_18
REMARK    8  A    between atoms: C_18  and  CA_19
REMARK    9  A    between atoms: CA_19  and  N_20
REMARK   10  A    between atoms: CA_19  and  C_25
REMARK   11  A    between atoms: C_25  and  O_26
REMARK                            x       y       z     vdW  Elec       q    Type
REMARK                         _______ _______ _______ _____ _____    ______ ____
ROOT
ATOM      1  O   UNL     1     -37.703  23.181   0.755  0.00  0.00    -0.275 OA
ATOM      2  N   UNL     1     -37.587  22.154   2.835  0.00  0.00    -0.297 N 
ATOM      3  C   UNL     1     -38.243  22.768   1.778  0.00  0.00    +0.223 C 
ATOM      4  H   UNL     1     -38.117  21.860   3.612  0.00  0.00    +0.150 HD
ENDROOT
BRANCH   2   5
ATOM      5  CA  UNL     1     -36.161  21.926   2.846  0.00  0.00    +0.176 C 
BRANCH   5   7
ATOM      6  OXT UNL     1     -34.710  20.133   2.115  0.00  0.00    -0.248 OA
ATOM      7  C   UNL     1     -35.832  20.490   2.461  0.00  0.00    +0.332 C 
BRANCH   7   8
ATOM      8  O   UNL     1     -36.874  19.628   2.535  0.00  0.00    -0.479 OA
ATOM      9  H   UNL     1     -37.011  18.999   1.855  0.00  0.00    +0.295 HD
ENDBRANCH   7   8
ENDBRANCH   5   7
BRANCH   5  10
ATOM     10  CB  UNL     1     -35.559  22.251   4.220  0.00  0.00    +0.057 C 
BRANCH  10  11
ATOM     11  CG  UNL     1     -35.031  23.663   4.312  0.00  0.00    -0.020 C 
ATOM     12  CD1 UNL     1     -34.614  24.309   3.159  0.00  0.00    -0.004 C 
ATOM     13  CD2 UNL     1     -34.974  24.287   5.549  0.00  0.00    -0.004 C 
ATOM     14  CE1 UNL     1     -34.126  25.613   3.244  0.00  0.00    -0.000 C 
ATOM     15  CE2 UNL     1     -34.487  25.592   5.633  0.00  0.00    -0.000 C 
ATOM     16  CZ  UNL     1     -34.063  26.254   4.481  0.00  0.00    -0.000 C 
ENDBRANCH  10  11
ENDBRANCH   5  10
ENDBRANCH   2   5
BRANCH   3  17
ATOM     17  C   UNL     1     -39.735  22.886   2.039  0.00  0.00    +0.083 C 
BRANCH  17  18
ATOM     18  C   UNL     1     -40.214  24.338   2.042  0.00  0.00    -0.001 C 
BRANCH  18  19
ATOM     19  CA  UNL     1     -39.747  25.116   3.278  0.00  0.00    +0.036 C 
BRANCH  19  20
ATOM     20  N   UNL     1     -40.838  25.965   3.762  0.00  0.00    +0.389 N 
ATOM     21  H1  UNL     1     -40.492  26.915   3.903  0.00  0.00    -0.088 HD
ATOM     22  H2  UNL     1     -41.189  25.596   4.647  0.00  0.00    -0.088 HD
ATOM     23  H3  UNL     1     -41.591  25.976   3.075  0.00  0.00    -0.088 HD
ENDBRANCH  19  20
BRANCH  19  25
ATOM     24  OXT UNL     1     -38.480  26.682   1.904  0.00  0.00    -0.253 OA
ATOM     25  C   UNL     1     -38.591  26.042   2.943  0.00  0.00    +0.293 C 
BRANCH  25  26
ATOM     26  O   UNL     1     -37.652  26.070   3.924  0.00  0.00    -0.482 OA
ATOM     27  H   UNL     1     -37.241  25.275   4.202  0.00  0.00    +0.295 HD
ENDBRANCH  25  26
ENDBRANCH  19  25
ENDBRANCH  18  19
ENDBRANCH  17  18
ENDBRANCH   3  17
TORSDOF 11
ENDMDL
MODEL 4
REMARK VINA RESULT:      -5.6      1.487      2.041
REMARK  Name = 558649
REMARK  11 active torsions:
REMARK  status: ('A' for Active; 'I' for Inactive)
REMARK    1  A    between atoms: N_2  and  CA_5
REMARK    2  A    between atoms: C_3  and  C_17
REMARK    3  A    between atoms: CA_5  and  C_7
REMARK    4  A    between atoms: CA_5  and  CB_10
REMARK    5  A    between atoms: C_7  and  O_8
REMARK    6  A    between atoms: CB_10  and  CG_11
REMARK    7  A    between atoms: C_17  and  C_18
REMARK    8  A    between atoms: C_18  and  CA_19
REMARK    9  A    between atoms: CA_19  and  N_20
REMARK   10  A    between atoms: CA_19  and  C_25
REMARK   11  A    between atoms: C_25  and  O_26
REMARK                            x       y       z     vdW  Elec       q    Type
REMARK                         _______ _______ _______ _____ _____    ______ ____
ROOT
ATOM      1  O   UNL     1     -34.400  23.749   0.673  0.00  0.00    -0.275 OA
ATOM      2  N   UNL     1     -35.282  22.283   2.245  0.00  0.00    -0.297 N 
ATOM      3  C   UNL     1     -34.747  23.492   1.823  0.00  0.00    +0.223 C 
ATOM      4  H   UNL     1     -35.527  22.182   3.193  0.00  0.00    +0.150 HD
ENDROOT
BRANCH   2   5
ATOM      5  CA  UNL     1     -35.493  21.167   1.353  0.00  0.00    +0.176 C 
BRANCH   5   7
ATOM      6  OXT UNL     1     -37.499  20.958   0.017  0.00  0.00    -0.248 OA
ATOM      7  C   UNL     1     -36.978  20.919   1.126  0.00  0.00    +0.332 C 
BRANCH   7   8
ATOM      8  O   UNL     1     -37.686  20.643   2.248  0.00  0.00    -0.479 OA
ATOM      9  H   UNL     1     -37.398  20.972   3.076  0.00  0.00    +0.295 HD
ENDBRANCH   7   8
ENDBRANCH   5   7
BRANCH   5  10
ATOM     10  CB  UNL     1     -34.826  19.894   1.892  0.00  0.00    +0.057 C 
BRANCH  10  11
ATOM     11  CG  UNL     1     -33.491  19.610   1.247  0.00  0.00    -0.020 C 
ATOM     12  CD1 UNL     1     -32.934  20.552   0.396  0.00  0.00    -0.004 C 
ATOM     13  CD2 UNL     1     -32.847  18.412   1.516  0.00  0.00    -0.004 C 
ATOM     14  CE1 UNL     1     -31.700  20.290  -0.201  0.00  0.00    -0.000 C 
ATOM     15  CE2 UNL     1     -31.613  18.151   0.919  0.00  0.00    -0.000 C 
ATOM     16  CZ  UNL     1     -31.041  19.090   0.061  0.00  0.00    -0.000 C 
ENDBRANCH  10  11
ENDBRANCH   5  10
ENDBRANCH   2   5
BRANCH   3  17
ATOM     17  C   UNL     1     -34.628  24.481   2.970  0.00  0.00    +0.083 C 
BRANCH  17  18
ATOM     18  C   UNL     1     -34.738  23.804   4.337  0.00  0.00    -0.001 C 
BRANCH  18  19
ATOM     19  CA  UNL     1     -35.831  24.419   5.219  0.00  0.00    +0.036 C 
BRANCH  19  20
ATOM     20  N   UNL     1     -37.105  24.411   4.497  0.00  0.00    +0.389 N 
ATOM     21  H1  UNL     1     -37.866  24.610   5.148  0.00  0.00    -0.088 HD
ATOM     22  H2  UNL     1     -37.251  23.494   4.074  0.00  0.00    -0.088 HD
ATOM     23  H3  UNL     1     -37.087  25.123   3.767  0.00  0.00    -0.088 HD
ENDBRANCH  19  20
BRANCH  19  25
ATOM     24  OXT UNL     1     -34.458  26.283   5.984  0.00  0.00    -0.253 OA
ATOM     25  C   UNL     1     -35.525  25.870   5.546  0.00  0.00    +0.293 C 
BRANCH  25  26
ATOM     26  O   UNL     1     -36.590  26.683   5.324  0.00  0.00    -0.482 OA
ATOM     27  H   UNL     1     -37.382  26.561   5.809  0.00  0.00    +0.295 HD
ENDBRANCH  25  26
ENDBRANCH  19  25
ENDBRANCH  18  19
ENDBRANCH  17  18
ENDBRANCH   3  17
TORSDOF 11
ENDMDL
MODEL 5
REMARK VINA RESULT:      -5.6      3.174      6.098
REMARK  Name = 558649
REMARK  11 active torsions:
REMARK  status: ('A' for Active; 'I' for Inactive)
REMARK    1  A    between atoms: N_2  and  CA_5
REMARK    2  A    between atoms: C_3  and  C_17
REMARK    3  A    between atoms: CA_5  and  C_7
REMARK    4  A    between atoms: CA_5  and  CB_10
REMARK    5  A    between atoms: C_7  and  O_8
REMARK    6  A    between atoms: CB_10  and  CG_11
REMARK    7  A    between atoms: C_17  and  C_18
REMARK    8  A    between atoms: C_18  and  CA_19
REMARK    9  A    between atoms: CA_19  and  N_20
REMARK   10  A    between atoms: CA_19  and  C_25
REMARK   11  A    between atoms: C_25  and  O_26
REMARK                            x       y       z     vdW  Elec       q    Type
REMARK                         _______ _______ _______ _____ _____    ______ ____
ROOT
ATOM      1  O   UNL     1     -36.774  24.298   1.884  0.00  0.00    -0.275 OA
ATOM      2  N   UNL     1     -37.095  22.911   3.719  0.00  0.00    -0.297 N 
ATOM      3  C   UNL     1     -37.515  23.683   2.645  0.00  0.00    +0.223 C 
ATOM      4  H   UNL     1     -37.775  22.458   4.269  0.00  0.00    +0.150 HD
ENDROOT
BRANCH   2   5
ATOM      5  CA  UNL     1     -35.703  22.742   4.065  0.00  0.00    +0.176 C 
BRANCH   5   7
ATOM      6  OXT UNL     1     -35.236  20.463   3.399  0.00  0.00    -0.248 OA
ATOM      7  C   UNL     1     -35.372  21.276   4.308  0.00  0.00    +0.332 C 
BRANCH   7   8
ATOM      8  O   UNL     1     -35.230  20.934   5.610  0.00  0.00    -0.479 OA
ATOM      9  H   UNL     1     -35.765  21.341   6.263  0.00  0.00    +0.295 HD
ENDBRANCH   7   8
ENDBRANCH   5   7
BRANCH   5  10
ATOM     10  CB  UNL     1     -35.335  23.574   5.301  0.00  0.00    +0.057 C 
BRANCH  10  11
ATOM     11  CG  UNL     1     -34.528  24.805   4.964  0.00  0.00    -0.020 C 
ATOM     12  CD1 UNL     1     -34.275  25.742   5.953  0.00  0.00    -0.004 C 
ATOM     13  CD2 UNL     1     -34.055  24.974   3.672  0.00  0.00    -0.004 C 
ATOM     14  CE1 UNL     1     -33.529  26.880   5.642  0.00  0.00    -0.000 C 
ATOM     15  CE2 UNL     1     -33.309  26.112   3.362  0.00  0.00    -0.000 C 
ATOM     16  CZ  UNL     1     -33.047  27.064   4.346  0.00  0.00    -0.000 C 
ENDBRANCH  10  11
ENDBRANCH   5  10
ENDBRANCH   2   5
BRANCH   3  17
ATOM     17  C   UNL     1     -39.029  23.691   2.522  0.00  0.00    +0.083 C 
BRANCH  17  18
ATOM     18  C   UNL     1     -39.505  23.207   1.151  0.00  0.00    -0.001 C 
BRANCH  18  19
ATOM     19  CA  UNL     1     -39.656  21.683   1.077  0.00  0.00    +0.036 C 
BRANCH  19  20
ATOM     20  N   UNL     1     -40.162  21.180   2.356  0.00  0.00    +0.389 N 
ATOM     21  H1  UNL     1     -40.222  20.161   2.321  0.00  0.00    -0.088 HD
ATOM     22  H2  UNL     1     -41.089  21.569   2.533  0.00  0.00    -0.088 HD
ATOM     23  H3  UNL     1     -39.528  21.456   3.106  0.00  0.00    -0.088 HD
ENDBRANCH  19  20
BRANCH  19  25
ATOM     24  OXT UNL     1     -37.724  20.976  -0.229  0.00  0.00    -0.253 OA
ATOM     25  C   UNL     1     -38.318  21.006   0.842  0.00  0.00    +0.293 C 
BRANCH  25  26
ATOM     26  O   UNL     1     -37.845  20.397   1.959  0.00  0.00    -0.482 OA
ATOM     27  H   UNL     1     -38.145  19.539   2.188  0.00  0.00    +0.295 HD
ENDBRANCH  25  26
ENDBRANCH  19  25
ENDBRANCH  18  19
ENDBRANCH  17  18
ENDBRANCH   3  17
TORSDOF 11
ENDMDL
MODEL 6
REMARK VINA RESULT:      -5.5      1.300      1.618
REMARK  Name = 558649
REMARK  11 active torsions:
REMARK  status: ('A' for Active; 'I' for Inactive)
REMARK    1  A    between atoms: N_2  and  CA_5
REMARK    2  A    between atoms: C_3  and  C_17
REMARK    3  A    between atoms: CA_5  and  C_7
REMARK    4  A    between atoms: CA_5  and  CB_10
REMARK    5  A    between atoms: C_7  and  O_8
REMARK    6  A    between atoms: CB_10  and  CG_11
REMARK    7  A    between atoms: C_17  and  C_18
REMARK    8  A    between atoms: C_18  and  CA_19
REMARK    9  A    between atoms: CA_19  and  N_20
REMARK   10  A    between atoms: CA_19  and  C_25
REMARK   11  A    between atoms: C_25  and  O_26
REMARK                            x       y       z     vdW  Elec       q    Type
REMARK                         _______ _______ _______ _____ _____    ______ ____
ROOT
ATOM      1  O   UNL     1     -35.171  23.097   2.565  0.00  0.00    -0.275 OA
ATOM      2  N   UNL     1     -35.473  20.816   2.890  0.00  0.00    -0.297 N 
ATOM      3  C   UNL     1     -35.440  22.144   3.291  0.00  0.00    +0.223 C 
ATOM      4  H   UNL     1     -35.699  20.128   3.556  0.00  0.00    +0.150 HD
ENDROOT
BRANCH   2   5
ATOM      5  CA  UNL     1     -35.188  20.401   1.536  0.00  0.00    +0.176 C 
BRANCH   5   7
ATOM      6  OXT UNL     1     -37.168  20.673   0.174  0.00  0.00    -0.248 OA
ATOM      7  C   UNL     1     -36.451  19.926   0.831  0.00  0.00    +0.332 C 
BRANCH   7   8
ATOM      8  O   UNL     1     -36.722  18.608   0.977  0.00  0.00    -0.479 OA
ATOM      9  H   UNL     1     -36.960  18.269   1.817  0.00  0.00    +0.295 HD
ENDBRANCH   7   8
ENDBRANCH   5   7
BRANCH   5  10
ATOM     10  CB  UNL     1     -34.125  19.294   1.509  0.00  0.00    +0.057 C 
BRANCH  10  11
ATOM     11  CG  UNL     1     -32.879  19.692   0.755  0.00  0.00    -0.020 C 
ATOM     12  CD1 UNL     1     -31.801  18.821   0.717  0.00  0.00    -0.004 C 
ATOM     13  CD2 UNL     1     -32.836  20.920   0.113  0.00  0.00    -0.004 C 
ATOM     14  CE1 UNL     1     -30.649  19.188   0.021  0.00  0.00    -0.000 C 
ATOM     15  CE2 UNL     1     -31.684  21.286  -0.583  0.00  0.00    -0.000 C 
ATOM     16  CZ  UNL     1     -30.591  20.420  -0.629  0.00  0.00    -0.000 C 
ENDBRANCH  10  11
ENDBRANCH   5  10
ENDBRANCH   2   5
BRANCH   3  17
ATOM     17  C   UNL     1     -35.770  22.289   4.767  0.00  0.00    +0.083 C 
BRANCH  17  18
ATOM     18  C   UNL     1     -34.825  23.255   5.484  0.00  0.00    -0.001 C 
BRANCH  18  19
ATOM     19  CA  UNL     1     -35.396  24.673   5.594  0.00  0.00    +0.036 C 
BRANCH  19  20
ATOM     20  N   UNL     1     -36.653  24.755   4.845  0.00  0.00    +0.389 N 
ATOM     21  H1  UNL     1     -37.339  24.126   5.265  0.00  0.00    -0.088 HD
ATOM     22  H2  UNL     1     -36.489  24.482   3.876  0.00  0.00    -0.088 HD
ATOM     23  H3  UNL     1     -37.005  25.711   4.875  0.00  0.00    -0.088 HD
ENDBRANCH  19  20
BRANCH  19  25
ATOM     24  OXT UNL     1     -34.559  26.910   5.105  0.00  0.00    -0.253 OA
ATOM     25  C   UNL     1     -34.457  25.696   4.979  0.00  0.00    +0.293 C 
BRANCH  25  26
ATOM     26  O   UNL     1     -33.482  25.116   4.232  0.00  0.00    -0.482 OA
ATOM     27  H   UNL     1     -32.956  24.432   4.598  0.00  0.00    +0.295 HD
ENDBRANCH  25  26
ENDBRANCH  19  25
ENDBRANCH  18  19
ENDBRANCH  17  18
ENDBRANCH   3  17
TORSDOF 11
ENDMDL
MODEL 7
REMARK VINA RESULT:      -5.5      3.583      5.567
REMARK  Name = 558649
REMARK  11 active torsions:
REMARK  status: ('A' for Active; 'I' for Inactive)
REMARK    1  A    between atoms: N_2  and  CA_5
REMARK    2  A    between atoms: C_3  and  C_17
REMARK    3  A    between atoms: CA_5  and  C_7
REMARK    4  A    between atoms: CA_5  and  CB_10
REMARK    5  A    between atoms: C_7  and  O_8
REMARK    6  A    between atoms: CB_10  and  CG_11
REMARK    7  A    between atoms: C_17  and  C_18
REMARK    8  A    between atoms: C_18  and  CA_19
REMARK    9  A    between atoms: CA_19  and  N_20
REMARK   10  A    between atoms: CA_19  and  C_25
REMARK   11  A    between atoms: C_25  and  O_26
REMARK                            x       y       z     vdW  Elec       q    Type
REMARK                         _______ _______ _______ _____ _____    ______ ____
ROOT
ATOM      1  O   UNL     1     -36.104  22.645   1.861  0.00  0.00    -0.275 OA
ATOM      2  N   UNL     1     -36.905  23.058   4.002  0.00  0.00    -0.297 N 
ATOM      3  C   UNL     1     -37.035  22.827   2.640  0.00  0.00    +0.223 C 
ATOM      4  H   UNL     1     -37.720  23.193   4.538  0.00  0.00    +0.150 HD
ENDROOT
BRANCH   2   5
ATOM      5  CA  UNL     1     -35.624  23.109   4.668  0.00  0.00    +0.176 C 
BRANCH   5   7
ATOM      6  OXT UNL     1     -35.301  21.893   6.735  0.00  0.00    -0.248 OA
ATOM      7  C   UNL     1     -35.395  21.863   5.512  0.00  0.00    +0.332 C 
BRANCH   7   8
ATOM      8  O   UNL     1     -35.308  20.708   4.809  0.00  0.00    -0.479 OA
ATOM      9  H   UNL     1     -35.117  19.904   5.250  0.00  0.00    +0.295 HD
ENDBRANCH   7   8
ENDBRANCH   5   7
BRANCH   5  10
ATOM     10  CB  UNL     1     -35.505  24.364   5.544  0.00  0.00    +0.057 C 
BRANCH  10  11
ATOM     11  CG  UNL     1     -34.539  25.381   4.987  0.00  0.00    -0.020 C 
ATOM     12  CD1 UNL     1     -34.259  25.379   3.629  0.00  0.00    -0.004 C 
ATOM     13  CD2 UNL     1     -33.949  26.299   5.842  0.00  0.00    -0.004 C 
ATOM     14  CE1 UNL     1     -33.366  26.319   3.114  0.00  0.00    -0.000 C 
ATOM     15  CE2 UNL     1     -33.057  27.238   5.326  0.00  0.00    -0.000 C 
ATOM     16  CZ  UNL     1     -32.765  27.248   3.962  0.00  0.00    -0.000 C 
ENDBRANCH  10  11
ENDBRANCH   5  10
ENDBRANCH   2   5
BRANCH   3  17
ATOM     17  C   UNL     1     -38.492  22.836   2.210  0.00  0.00    +0.083 C 
BRANCH  17  18
ATOM     18  C   UNL     1     -39.293  23.953   2.883  0.00  0.00    -0.001 C 
BRANCH  18  19
ATOM     19  CA  UNL     1     -39.362  25.229   2.036  0.00  0.00    +0.036 C 
BRANCH  19  20
ATOM     20  N   UNL     1     -39.073  24.904   0.637  0.00  0.00    +0.389 N 
ATOM     21  H1  UNL     1     -39.299  25.706   0.048  0.00  0.00    -0.088 HD
ATOM     22  H2  UNL     1     -39.637  24.102   0.351  0.00  0.00    -0.088 HD
ATOM     23  H3  UNL     1     -38.084  24.677   0.537  0.00  0.00    -0.088 HD
ENDBRANCH  19  20
BRANCH  19  25
ATOM     24  OXT UNL     1     -37.816  27.092   1.749  0.00  0.00    -0.253 OA
ATOM     25  C   UNL     1     -38.315  26.238   2.472  0.00  0.00    +0.293 C 
BRANCH  25  26
ATOM     26  O   UNL     1     -37.957  26.080   3.772  0.00  0.00    -0.482 OA
ATOM     27  H   UNL     1     -37.106  25.751   3.987  0.00  0.00    +0.295 HD
ENDBRANCH  25  26
ENDBRANCH  19  25
ENDBRANCH  18  19
ENDBRANCH  17  18
ENDBRANCH   3  17
TORSDOF 11
ENDMDL
MODEL 8
REMARK VINA RESULT:      -5.5      1.591      2.040
REMARK  Name = 558649
REMARK  11 active torsions:
REMARK  status: ('A' for Active; 'I' for Inactive)
REMARK    1  A    between atoms: N_2  and  CA_5
REMARK    2  A    between atoms: C_3  and  C_17
REMARK    3  A    between atoms: CA_5  and  C_7
REMARK    4  A    between atoms: CA_5  and  CB_10
REMARK    5  A    between atoms: C_7  and  O_8
REMARK    6  A    between atoms: CB_10  and  CG_11
REMARK    7  A    between atoms: C_17  and  C_18
REMARK    8  A    between atoms: C_18  and  CA_19
REMARK    9  A    between atoms: CA_19  and  N_20
REMARK   10  A    between atoms: CA_19  and  C_25
REMARK   11  A    between atoms: C_25  and  O_26
REMARK                            x       y       z     vdW  Elec       q    Type
REMARK                         _______ _______ _______ _____ _____    ______ ____
ROOT
ATOM      1  O   UNL     1     -34.485  23.526   2.968  0.00  0.00    -0.275 OA
ATOM      2  N   UNL     1     -36.337  22.232   3.508  0.00  0.00    -0.297 N 
ATOM      3  C   UNL     1     -35.338  23.158   3.771  0.00  0.00    +0.223 C 
ATOM      4  H   UNL     1     -36.972  22.006   4.226  0.00  0.00    +0.150 HD
ENDROOT
BRANCH   2   5
ATOM      5  CA  UNL     1     -36.486  21.584   2.225  0.00  0.00    +0.176 C 
BRANCH   5   7
ATOM      6  OXT UNL     1     -38.820  22.224   2.240  0.00  0.00    -0.248 OA
ATOM      7  C   UNL     1     -37.955  21.448   1.847  0.00  0.00    +0.332 C 
BRANCH   7   8
ATOM      8  O   UNL     1     -38.237  20.404   1.032  0.00  0.00    -0.479 OA
ATOM      9  H   UNL     1     -38.722  19.672   1.359  0.00  0.00    +0.295 HD
ENDBRANCH   7   8
ENDBRANCH   5   7
BRANCH   5  10
ATOM     10  CB  UNL     1     -35.814  20.204   2.220  0.00  0.00    +0.057 C 
BRANCH  10  11
ATOM     11  CG  UNL     1     -34.508  20.188   1.464  0.00  0.00    -0.020 C 
ATOM     12  CD1 UNL     1     -33.658  19.101   1.599  0.00  0.00    -0.004 C 
ATOM     13  CD2 UNL     1     -34.182  21.260   0.647  0.00  0.00    -0.004 C 
ATOM     14  CE1 UNL     1     -32.451  19.086   0.900  0.00  0.00    -0.000 C 
ATOM     15  CE2 UNL     1     -32.974  21.244  -0.051  0.00  0.00    -0.000 C 
ATOM     16  CZ  UNL     1     -32.110  20.157   0.075  0.00  0.00    -0.000 C 
ENDBRANCH  10  11
ENDBRANCH   5  10
ENDBRANCH   2   5
BRANCH   3  17
ATOM     17  C   UNL     1     -35.413  23.669   5.200  0.00  0.00    +0.083 C 
BRANCH  17  18
ATOM     18  C   UNL     1     -36.111  25.026   5.298  0.00  0.00    -0.001 C 
BRANCH  18  19
ATOM     19  CA  UNL     1     -36.235  25.731   3.942  0.00  0.00    +0.036 C 
BRANCH  19  20
ATOM     20  N   UNL     1     -35.821  27.130   4.078  0.00  0.00    +0.389 N 
ATOM     21  H1  UNL     1     -35.005  27.301   3.490  0.00  0.00    -0.088 HD
ATOM     22  H2  UNL     1     -35.586  27.322   5.052  0.00  0.00    -0.088 HD
ATOM     23  H3  UNL     1     -36.584  27.740   3.785  0.00  0.00    -0.088 HD
ENDBRANCH  19  20
BRANCH  19  25
ATOM     24  OXT UNL     1     -38.146  26.572   2.685  0.00  0.00    -0.253 OA
ATOM     25  C   UNL     1     -37.673  25.748   3.458  0.00  0.00    +0.293 C 
BRANCH  25  26
ATOM     26  O   UNL     1     -38.412  24.747   4.002  0.00  0.00    -0.482 OA
ATOM     27  H   UNL     1     -39.330  24.868   4.147  0.00  0.00    +0.295 HD
ENDBRANCH  25  26
ENDBRANCH  19  25
ENDBRANCH  18  19
ENDBRANCH  17  18
ENDBRANCH   3  17
TORSDOF 11
ENDMDL
MODEL 9
REMARK VINA RESULT:      -5.4      4.477      9.192
REMARK  Name = 558649
REMARK  11 active torsions:
REMARK  status: ('A' for Active; 'I' for Inactive)
REMARK    1  A    between atoms: N_2  and  CA_5
REMARK    2  A    between atoms: C_3  and  C_17
REMARK    3  A    between atoms: CA_5  and  C_7
REMARK    4  A    between atoms: CA_5  and  CB_10
REMARK    5  A    between atoms: C_7  and  O_8
REMARK    6  A    between atoms: CB_10  and  CG_11
REMARK    7  A    between atoms: C_17  and  C_18
REMARK    8  A    between atoms: C_18  and  CA_19
REMARK    9  A    between atoms: CA_19  and  N_20
REMARK   10  A    between atoms: CA_19  and  C_25
REMARK   11  A    between atoms: C_25  and  O_26
REMARK                            x       y       z     vdW  Elec       q    Type
REMARK                         _______ _______ _______ _____ _____    ______ ____
ROOT
ATOM      1  O   UNL     1     -32.655  26.905   4.198  0.00  0.00    -0.275 OA
ATOM      2  N   UNL     1     -32.364  27.955   6.250  0.00  0.00    -0.297 N 
ATOM      3  C   UNL     1     -32.939  27.035   5.386  0.00  0.00    +0.223 C 
ATOM      4  H   UNL     1     -32.667  27.977   7.186  0.00  0.00    +0.150 HD
ENDROOT
BRANCH   2   5
ATOM      5  CA  UNL     1     -31.339  28.885   5.834  0.00  0.00    +0.176 C 
BRANCH   5   7
ATOM      6  OXT UNL     1     -29.355  29.569   7.038  0.00  0.00    -0.248 OA
ATOM      7  C   UNL     1     -30.044  28.653   6.601  0.00  0.00    +0.332 C 
BRANCH   7   8
ATOM      8  O   UNL     1     -29.711  27.352   6.773  0.00  0.00    -0.479 OA
ATOM      9  H   UNL     1     -30.368  26.726   7.004  0.00  0.00    +0.295 HD
ENDBRANCH   7   8
ENDBRANCH   5   7
BRANCH   5  10
ATOM     10  CB  UNL     1     -31.802  30.337   6.014  0.00  0.00    +0.057 C 
BRANCH  10  11
ATOM     11  CG  UNL     1     -32.025  31.051   4.703  0.00  0.00    -0.020 C 
ATOM     12  CD1 UNL     1     -33.171  30.782   3.969  0.00  0.00    -0.004 C 
ATOM     13  CD2 UNL     1     -31.081  31.963   4.256  0.00  0.00    -0.004 C 
ATOM     14  CE1 UNL     1     -33.377  31.441   2.757  0.00  0.00    -0.000 C 
ATOM     15  CE2 UNL     1     -31.289  32.622   3.044  0.00  0.00    -0.000 C 
ATOM     16  CZ  UNL     1     -32.436  32.361   2.295  0.00  0.00    -0.000 C 
ENDBRANCH  10  11
ENDBRANCH   5  10
ENDBRANCH   2   5
BRANCH   3  17
ATOM     17  C   UNL     1     -33.992  26.194   6.087  0.00  0.00    +0.083 C 
BRANCH  17  18
ATOM     18  C   UNL     1     -34.583  25.119   5.174  0.00  0.00    -0.001 C 
BRANCH  18  19
ATOM     19  CA  UNL     1     -35.875  25.569   4.483  0.00  0.00    +0.036 C 
BRANCH  19  20
ATOM     20  N   UNL     1     -36.537  26.589   5.300  0.00  0.00    +0.389 N 
ATOM     21  H1  UNL     1     -36.324  26.426   6.285  0.00  0.00    -0.088 HD
ATOM     22  H2  UNL     1     -37.546  26.538   5.157  0.00  0.00    -0.088 HD
ATOM     23  H3  UNL     1     -36.201  27.513   5.028  0.00  0.00    -0.088 HD
ENDBRANCH  19  20
BRANCH  19  25
ATOM     24  OXT UNL     1     -36.557  23.231   4.369  0.00  0.00    -0.253 OA
ATOM     25  C   UNL     1     -36.857  24.419   4.344  0.00  0.00    +0.293 C 
BRANCH  25  26
ATOM     26  O   UNL     1     -38.131  24.849   4.156  0.00  0.00    -0.482 OA
ATOM     27  H   UNL     1     -38.291  25.709   3.820  0.00  0.00    +0.295 HD
ENDBRANCH  25  26
ENDBRANCH  19  25
ENDBRANCH  18  19
ENDBRANCH  17  18
ENDBRANCH   3  17
TORSDOF 11
ENDMDL
