MODEL 1
REMARK VINA RESULT:      -6.7      0.000      0.000
REMARK  Name = 57824323
REMARK  8 active torsions:
REMARK  status: ('A' for Active; 'I' for Inactive)
REMARK    1  A    between atoms: C_1  and  N_2
REMARK    2  A    between atoms: C_1  and  C_6
REMARK    3  A    between atoms: C_1  and  C_14
REMARK    4  A    between atoms: C_1  and  C_17
REMARK    5  A    between atoms: C_7  and  C_10
REMARK    6  A    between atoms: C_10  and  O_11
REMARK    7  A    between atoms: C_14  and  O_15
REMARK    8  A    between atoms: C_17  and  C_19
REMARK                            x       y       z     vdW  Elec       q    Type
REMARK                         _______ _______ _______ _____ _____    ______ ____
ROOT
ATOM      1  C   UNL     1     -36.707  20.774   1.088  0.00  0.00    +0.047 C 
ENDROOT
BRANCH   1   2
ATOM      2  N   UNL     1     -37.070  19.912   2.217  0.00  0.00    +0.390 N 
ATOM      3  H   UNL     1     -37.022  20.448   3.083  0.00  0.00    -0.088 HD
ATOM      4  H   UNL     1     -36.421  19.126   2.267  0.00  0.00    -0.088 HD
ATOM      5  H   UNL     1     -38.019  19.561   2.086  0.00  0.00    -0.088 HD
ENDBRANCH   1   2
BRANCH   1   6
ATOM      6  C   UNL     1     -35.340  20.324   0.601  0.00  0.00    +0.003 C 
ATOM      7  C   UNL     1     -34.347  19.794   1.593  0.00  0.00    +0.097 C 
ATOM      8  C   UNL     1     -34.132  21.138   0.960  0.00  0.00    +0.010 C 
BRANCH   7  10
ATOM      9  O   UNL     1     -32.265  18.700   1.340  0.00  0.00    -0.250 OA
ATOM     10  C   UNL     1     -33.479  18.672   1.203  0.00  0.00    +0.313 C 
BRANCH  10  11
ATOM     11  O   UNL     1     -34.179  17.633   0.686  0.00  0.00    -0.480 OA
ATOM     12  H   UNL     1     -35.069  17.494   0.944  0.00  0.00    +0.295 HD
ENDBRANCH  10  11
ENDBRANCH   7  10
ENDBRANCH   1   6
BRANCH   1  14
ATOM     13  O   UNL     1     -37.637  20.983  -1.161  0.00  0.00    -0.253 OA
ATOM     14  C   UNL     1     -37.758  20.575  -0.012  0.00  0.00    +0.295 C 
BRANCH  14  15
ATOM     15  O   UNL     1     -38.849  19.873   0.388  0.00  0.00    -0.482 OA
ATOM     16  H   UNL     1     -39.271  19.284  -0.206  0.00  0.00    +0.295 HD
ENDBRANCH  14  15
ENDBRANCH   1  14
BRANCH   1  17
ATOM     17  C   UNL     1     -36.696  22.265   1.487  0.00  0.00    +0.017 C 
BRANCH  17  19
ATOM     18  O   UNL     1     -37.558  25.415   3.555  0.00  0.00    -0.470 OA
ATOM     19  C   UNL     1     -37.511  22.609   2.742  0.00  0.00    -0.021 C 
ATOM     20  C   UNL     1     -38.636  23.556   2.397  0.00  0.00    +0.030 C 
ATOM     21  C   UNL     1     -36.613  23.180   3.815  0.00  0.00    +0.018 C 
ATOM     22  C   UNL     1     -38.584  24.894   2.804  0.00  0.00    +0.139 C 
ATOM     23  C   UNL     1     -36.676  24.538   4.142  0.00  0.00    +0.210 C 
ATOM     24  C   UNL     1     -39.739  23.117   1.651  0.00  0.00    +0.003 C 
ATOM     25  C   UNL     1     -35.692  22.362   4.487  0.00  0.00    -0.001 C 
ATOM     26  C   UNL     1     -39.605  25.782   2.453  0.00  0.00    +0.037 C 
ATOM     27  C   UNL     1     -35.819  25.076   5.106  0.00  0.00    +0.021 C 
ATOM     28  C   UNL     1     -40.763  24.002   1.308  0.00  0.00    +0.000 C 
ATOM     29  C   UNL     1     -34.843  22.898   5.455  0.00  0.00    -0.000 C 
ATOM     30  C   UNL     1     -34.904  24.255   5.762  0.00  0.00    -0.001 C 
ATOM     31  C   UNL     1     -40.693  25.334   1.706  0.00  0.00    +0.003 C 
ENDBRANCH  17  19
ENDBRANCH   1  17
TORSDOF 8
ENDMDL
MODEL 2
REMARK VINA RESULT:      -6.3      2.547      5.928
REMARK  Name = 57824323
REMARK  8 active torsions:
REMARK  status: ('A' for Active; 'I' for Inactive)
REMARK    1  A    between atoms: C_1  and  N_2
REMARK    2  A    between atoms: C_1  and  C_6
REMARK    3  A    between atoms: C_1  and  C_14
REMARK    4  A    between atoms: C_1  and  C_17
REMARK    5  A    between atoms: C_7  and  C_10
REMARK    6  A    between atoms: C_10  and  O_11
REMARK    7  A    between atoms: C_14  and  O_15
REMARK    8  A    between atoms: C_17  and  C_19
REMARK                            x       y       z     vdW  Elec       q    Type
REMARK                         _______ _______ _______ _____ _____    ______ ____
ROOT
ATOM      1  C   UNL     1     -37.430  25.088   1.555  0.00  0.00    +0.047 C 
ENDROOT
BRANCH   1   2
ATOM      2  N   UNL     1     -37.920  25.149   0.175  0.00  0.00    +0.390 N 
ATOM      3  H   UNL     1     -37.175  24.869  -0.463  0.00  0.00    -0.088 HD
ATOM      4  H   UNL     1     -38.213  26.102  -0.041  0.00  0.00    -0.088 HD
ATOM      5  H   UNL     1     -38.715  24.517   0.067  0.00  0.00    -0.088 HD
ENDBRANCH   1   2
BRANCH   1   6
ATOM      6  C   UNL     1     -36.131  25.873   1.605  0.00  0.00    +0.003 C 
ATOM      7  C   UNL     1     -36.136  27.264   2.165  0.00  0.00    +0.097 C 
ATOM      8  C   UNL     1     -35.951  27.049   0.691  0.00  0.00    +0.010 C 
BRANCH   7  10
ATOM      9  O   UNL     1     -34.057  26.977   3.257  0.00  0.00    -0.250 OA
ATOM     10  C   UNL     1     -34.990  27.713   2.973  0.00  0.00    +0.313 C 
BRANCH  10  11
ATOM     11  O   UNL     1     -35.101  29.009   3.350  0.00  0.00    -0.480 OA
ATOM     12  H   UNL     1     -35.899  29.475   3.197  0.00  0.00    +0.295 HD
ENDBRANCH  10  11
ENDBRANCH   7  10
ENDBRANCH   1   6
BRANCH   1  14
ATOM     13  O   UNL     1     -39.268  26.607   2.084  0.00  0.00    -0.253 OA
ATOM     14  C   UNL     1     -38.484  25.742   2.457  0.00  0.00    +0.295 C 
BRANCH  14  15
ATOM     15  O   UNL     1     -38.501  25.259   3.726  0.00  0.00    -0.482 OA
ATOM     16  H   UNL     1     -37.955  24.535   3.959  0.00  0.00    +0.295 HD
ENDBRANCH  14  15
ENDBRANCH   1  14
BRANCH   1  17
ATOM     17  C   UNL     1     -37.223  23.632   2.025  0.00  0.00    +0.017 C 
BRANCH  17  19
ATOM     18  O   UNL     1     -35.295  20.530   3.290  0.00  0.00    -0.470 OA
ATOM     19  C   UNL     1     -35.763  23.228   2.271  0.00  0.00    -0.021 C 
ATOM     20  C   UNL     1     -35.383  22.060   1.391  0.00  0.00    +0.030 C 
ATOM     21  C   UNL     1     -35.541  22.917   3.733  0.00  0.00    +0.018 C 
ATOM     22  C   UNL     1     -35.192  20.790   1.945  0.00  0.00    +0.139 C 
ATOM     23  C   UNL     1     -35.340  21.599   4.154  0.00  0.00    +0.210 C 
ATOM     24  C   UNL     1     -35.232  22.227   0.006  0.00  0.00    +0.003 C 
ATOM     25  C   UNL     1     -35.548  23.941   4.692  0.00  0.00    -0.001 C 
ATOM     26  C   UNL     1     -34.878  19.700   1.128  0.00  0.00    +0.037 C 
ATOM     27  C   UNL     1     -35.174  21.304   5.510  0.00  0.00    +0.021 C 
ATOM     28  C   UNL     1     -34.911  21.140  -0.808  0.00  0.00    +0.000 C 
ATOM     29  C   UNL     1     -35.373  23.648   6.045  0.00  0.00    -0.000 C 
ATOM     30  C   UNL     1     -35.190  22.330   6.454  0.00  0.00    -0.001 C 
ATOM     31  C   UNL     1     -34.738  19.877  -0.248  0.00  0.00    +0.003 C 
ENDBRANCH  17  19
ENDBRANCH   1  17
TORSDOF 8
ENDMDL
MODEL 3
REMARK VINA RESULT:      -6.3      4.152      6.578
REMARK  Name = 57824323
REMARK  8 active torsions:
REMARK  status: ('A' for Active; 'I' for Inactive)
REMARK    1  A    between atoms: C_1  and  N_2
REMARK    2  A    between atoms: C_1  and  C_6
REMARK    3  A    between atoms: C_1  and  C_14
REMARK    4  A    between atoms: C_1  and  C_17
REMARK    5  A    between atoms: C_7  and  C_10
REMARK    6  A    between atoms: C_10  and  O_11
REMARK    7  A    between atoms: C_14  and  O_15
REMARK    8  A    between atoms: C_17  and  C_19
REMARK                            x       y       z     vdW  Elec       q    Type
REMARK                         _______ _______ _______ _____ _____    ______ ____
ROOT
ATOM      1  C   UNL     1     -36.115  25.307   4.342  0.00  0.00    +0.047 C 
ENDROOT
BRANCH   1   2
ATOM      2  N   UNL     1     -36.609  25.691   5.668  0.00  0.00    +0.390 N 
ATOM      3  H   UNL     1     -35.995  25.305   6.385  0.00  0.00    -0.088 HD
ATOM      4  H   UNL     1     -37.553  25.327   5.797  0.00  0.00    -0.088 HD
ATOM      5  H   UNL     1     -36.624  26.709   5.745  0.00  0.00    -0.088 HD
ENDBRANCH   1   2
BRANCH   1   6
ATOM      6  C   UNL     1     -35.258  24.067   4.524  0.00  0.00    +0.003 C 
ATOM      7  C   UNL     1     -35.895  22.801   5.015  0.00  0.00    +0.097 C 
ATOM      8  C   UNL     1     -34.971  23.573   5.911  0.00  0.00    +0.010 C 
BRANCH   7  10
ATOM      9  O   UNL     1     -35.371  21.305   3.260  0.00  0.00    -0.250 OA
ATOM     10  C   UNL     1     -35.445  21.514   4.461  0.00  0.00    +0.313 C 
BRANCH  10  11
ATOM     11  O   UNL     1     -35.133  20.617   5.428  0.00  0.00    -0.480 OA
ATOM     12  H   UNL     1     -35.815  20.163   5.882  0.00  0.00    +0.295 HD
ENDBRANCH  10  11
ENDBRANCH   7  10
ENDBRANCH   1   6
BRANCH   1  14
ATOM     13  O   UNL     1     -37.267  24.763   2.259  0.00  0.00    -0.253 OA
ATOM     14  C   UNL     1     -37.330  24.992   3.461  0.00  0.00    +0.295 C 
BRANCH  14  15
ATOM     15  O   UNL     1     -38.508  24.961   4.135  0.00  0.00    -0.482 OA
ATOM     16  H   UNL     1     -39.309  25.157   3.690  0.00  0.00    +0.295 HD
ENDBRANCH  14  15
ENDBRANCH   1  14
BRANCH   1  17
ATOM     17  C   UNL     1     -35.315  26.449   3.678  0.00  0.00    +0.017 C 
BRANCH  17  19
ATOM     18  O   UNL     1     -32.155  28.516   2.853  0.00  0.00    -0.470 OA
ATOM     19  C   UNL     1     -33.800  26.217   3.589  0.00  0.00    -0.021 C 
ATOM     20  C   UNL     1     -33.075  27.078   4.596  0.00  0.00    +0.030 C 
ATOM     21  C   UNL     1     -33.309  26.472   2.184  0.00  0.00    +0.018 C 
ATOM     22  C   UNL     1     -32.319  28.176   4.174  0.00  0.00    +0.139 C 
ATOM     23  C   UNL     1     -32.539  27.604   1.898  0.00  0.00    +0.210 C 
ATOM     24  C   UNL     1     -33.161  26.801   5.969  0.00  0.00    +0.003 C 
ATOM     25  C   UNL     1     -33.629  25.589   1.142  0.00  0.00    -0.001 C 
ATOM     26  C   UNL     1     -31.678  28.997   5.107  0.00  0.00    +0.037 C 
ATOM     27  C   UNL     1     -32.116  27.863   0.591  0.00  0.00    +0.021 C 
ATOM     28  C   UNL     1     -32.515  27.616   6.899  0.00  0.00    +0.000 C 
ATOM     29  C   UNL     1     -33.200  25.844  -0.161  0.00  0.00    -0.000 C 
ATOM     30  C   UNL     1     -32.447  26.982  -0.437  0.00  0.00    -0.001 C 
ATOM     31  C   UNL     1     -31.777  28.716   6.468  0.00  0.00    +0.003 C 
ENDBRANCH  17  19
ENDBRANCH   1  17
TORSDOF 8
ENDMDL
MODEL 4
REMARK VINA RESULT:      -6.2      3.041      6.633
REMARK  Name = 57824323
REMARK  8 active torsions:
REMARK  status: ('A' for Active; 'I' for Inactive)
REMARK    1  A    between atoms: C_1  and  N_2
REMARK    2  A    between atoms: C_1  and  C_6
REMARK    3  A    between atoms: C_1  and  C_14
REMARK    4  A    between atoms: C_1  and  C_17
REMARK    5  A    between atoms: C_7  and  C_10
REMARK    6  A    between atoms: C_10  and  O_11
REMARK    7  A    between atoms: C_14  and  O_15
REMARK    8  A    between atoms: C_17  and  C_19
REMARK                            x       y       z     vdW  Elec       q    Type
REMARK                         _______ _______ _______ _____ _____    ______ ____
ROOT
ATOM      1  C   UNL     1     -35.802  22.811   4.244  0.00  0.00    +0.047 C 
ENDROOT
BRANCH   1   2
ATOM      2  N   UNL     1     -37.159  22.696   3.699  0.00  0.00    +0.390 N 
ATOM      3  H   UNL     1     -37.426  23.578   3.262  0.00  0.00    -0.088 HD
ATOM      4  H   UNL     1     -37.811  22.479   4.453  0.00  0.00    -0.088 HD
ATOM      5  H   UNL     1     -37.184  21.950   3.003  0.00  0.00    -0.088 HD
ENDBRANCH   1   2
BRANCH   1   6
ATOM      6  C   UNL     1     -35.724  24.139   4.977  0.00  0.00    +0.003 C 
ATOM      7  C   UNL     1     -34.960  25.272   4.360  0.00  0.00    +0.097 C 
ATOM      8  C   UNL     1     -34.416  24.571   5.570  0.00  0.00    +0.010 C 
BRANCH   7  10
ATOM      9  O   UNL     1     -34.942  27.606   3.974  0.00  0.00    -0.250 OA
ATOM     10  C   UNL     1     -35.478  26.642   4.499  0.00  0.00    +0.313 C 
BRANCH  10  11
ATOM     11  O   UNL     1     -36.596  26.696   5.263  0.00  0.00    -0.480 OA
ATOM     12  H   UNL     1     -37.366  27.118   4.938  0.00  0.00    +0.295 HD
ENDBRANCH  10  11
ENDBRANCH   7  10
ENDBRANCH   1   6
BRANCH   1  14
ATOM     13  O   UNL     1     -34.949  20.636   4.956  0.00  0.00    -0.253 OA
ATOM     14  C   UNL     1     -35.588  21.648   5.220  0.00  0.00    +0.295 C 
BRANCH  14  15
ATOM     15  O   UNL     1     -36.154  21.840   6.440  0.00  0.00    -0.482 OA
ATOM     16  H   UNL     1     -36.655  21.156   6.837  0.00  0.00    +0.295 HD
ENDBRANCH  14  15
ENDBRANCH   1  14
BRANCH   1  17
ATOM     17  C   UNL     1     -34.731  22.719   3.135  0.00  0.00    +0.017 C 
BRANCH  17  19
ATOM     18  O   UNL     1     -33.440  22.597  -0.506  0.00  0.00    -0.470 OA
ATOM     19  C   UNL     1     -35.252  22.270   1.763  0.00  0.00    -0.021 C 
ATOM     20  C   UNL     1     -34.396  21.153   1.214  0.00  0.00    +0.030 C 
ATOM     21  C   UNL     1     -35.312  23.443   0.812  0.00  0.00    +0.018 C 
ATOM     22  C   UNL     1     -33.536  21.385   0.136  0.00  0.00    +0.139 C 
ATOM     23  C   UNL     1     -34.400  23.545  -0.244  0.00  0.00    +0.210 C 
ATOM     24  C   UNL     1     -34.437  19.873   1.785  0.00  0.00    +0.003 C 
ATOM     25  C   UNL     1     -36.269  24.454   0.981  0.00  0.00    -0.001 C 
ATOM     26  C   UNL     1     -32.714  20.363  -0.350  0.00  0.00    +0.037 C 
ATOM     27  C   UNL     1     -34.429  24.648  -1.102  0.00  0.00    +0.021 C 
ATOM     28  C   UNL     1     -33.623  18.850   1.295  0.00  0.00    +0.000 C 
ATOM     29  C   UNL     1     -36.303  25.551   0.120  0.00  0.00    -0.000 C 
ATOM     30  C   UNL     1     -35.380  25.650  -0.919  0.00  0.00    -0.001 C 
ATOM     31  C   UNL     1     -32.759  19.097   0.231  0.00  0.00    +0.003 C 
ENDBRANCH  17  19
ENDBRANCH   1  17
TORSDOF 8
ENDMDL
MODEL 5
REMARK VINA RESULT:      -6.1      3.606      7.524
REMARK  Name = 57824323
REMARK  8 active torsions:
REMARK  status: ('A' for Active; 'I' for Inactive)
REMARK    1  A    between atoms: C_1  and  N_2
REMARK    2  A    between atoms: C_1  and  C_6
REMARK    3  A    between atoms: C_1  and  C_14
REMARK    4  A    between atoms: C_1  and  C_17
REMARK    5  A    between atoms: C_7  and  C_10
REMARK    6  A    between atoms: C_10  and  O_11
REMARK    7  A    between atoms: C_14  and  O_15
REMARK    8  A    between atoms: C_17  and  C_19
REMARK                            x       y       z     vdW  Elec       q    Type
REMARK                         _______ _______ _______ _____ _____    ______ ____
ROOT
ATOM      1  C   UNL     1     -34.656  26.830   3.924  0.00  0.00    +0.047 C 
ENDROOT
BRANCH   1   2
ATOM      2  N   UNL     1     -35.934  26.995   4.623  0.00  0.00    +0.390 N 
ATOM      3  H   UNL     1     -36.556  26.224   4.381  0.00  0.00    -0.088 HD
ATOM      4  H   UNL     1     -36.362  27.878   4.346  0.00  0.00    -0.088 HD
ATOM      5  H   UNL     1     -35.773  26.997   5.631  0.00  0.00    -0.088 HD
ENDBRANCH   1   2
BRANCH   1   6
ATOM      6  C   UNL     1     -34.493  28.024   3.000  0.00  0.00    +0.003 C 
ATOM      7  C   UNL     1     -35.618  28.399   2.081  0.00  0.00    +0.097 C 
ATOM      8  C   UNL     1     -34.363  27.794   1.523  0.00  0.00    +0.010 C 
BRANCH   7  10
ATOM      9  O   UNL     1     -36.286  30.243   0.758  0.00  0.00    -0.250 OA
ATOM     10  C   UNL     1     -35.896  29.823   1.837  0.00  0.00    +0.313 C 
BRANCH  10  11
ATOM     11  O   UNL     1     -35.669  30.588   2.933  0.00  0.00    -0.480 OA
ATOM     12  H   UNL     1     -35.380  30.190   3.730  0.00  0.00    +0.295 HD
ENDBRANCH  10  11
ENDBRANCH   7  10
ENDBRANCH   1   6
BRANCH   1  14
ATOM     13  O   UNL     1     -33.729  26.619   6.173  0.00  0.00    -0.253 OA
ATOM     14  C   UNL     1     -33.542  26.813   4.978  0.00  0.00    +0.295 C 
BRANCH  14  15
ATOM     15  O   UNL     1     -32.298  27.010   4.469  0.00  0.00    -0.482 OA
ATOM     16  H   UNL     1     -31.891  26.342   3.954  0.00  0.00    +0.295 HD
ENDBRANCH  14  15
ENDBRANCH   1  14
BRANCH   1  17
ATOM     17  C   UNL     1     -34.602  25.502   3.137  0.00  0.00    +0.017 C 
BRANCH  17  19
ATOM     18  O   UNL     1     -35.668  21.896   2.244  0.00  0.00    -0.470 OA
ATOM     19  C   UNL     1     -35.868  24.640   3.228  0.00  0.00    -0.021 C 
ATOM     20  C   UNL     1     -35.632  23.448   4.127  0.00  0.00    +0.030 C 
ATOM     21  C   UNL     1     -36.318  24.215   1.850  0.00  0.00    +0.018 C 
ATOM     22  C   UNL     1     -35.528  22.163   3.585  0.00  0.00    +0.139 C 
ATOM     23  C   UNL     1     -36.176  22.886   1.437  0.00  0.00    +0.210 C 
ATOM     24  C   UNL     1     -35.496  23.613   5.513  0.00  0.00    +0.003 C 
ATOM     25  C   UNL     1     -36.868  25.147   0.957  0.00  0.00    -0.001 C 
ATOM     26  C   UNL     1     -35.271  21.064   4.410  0.00  0.00    +0.037 C 
ATOM     27  C   UNL     1     -36.555  22.499   0.149  0.00  0.00    +0.021 C 
ATOM     28  C   UNL     1     -35.248  22.514   6.337  0.00  0.00    +0.000 C 
ATOM     29  C   UNL     1     -37.254  24.759  -0.326  0.00  0.00    -0.000 C 
ATOM     30  C   UNL     1     -37.094  23.436  -0.731  0.00  0.00    -0.001 C 
ATOM     31  C   UNL     1     -35.131  21.241   5.785  0.00  0.00    +0.003 C 
ENDBRANCH  17  19
ENDBRANCH   1  17
TORSDOF 8
ENDMDL
MODEL 6
REMARK VINA RESULT:      -6.0      2.894      6.320
REMARK  Name = 57824323
REMARK  8 active torsions:
REMARK  status: ('A' for Active; 'I' for Inactive)
REMARK    1  A    between atoms: C_1  and  N_2
REMARK    2  A    between atoms: C_1  and  C_6
REMARK    3  A    between atoms: C_1  and  C_14
REMARK    4  A    between atoms: C_1  and  C_17
REMARK    5  A    between atoms: C_7  and  C_10
REMARK    6  A    between atoms: C_10  and  O_11
REMARK    7  A    between atoms: C_14  and  O_15
REMARK    8  A    between atoms: C_17  and  C_19
REMARK                            x       y       z     vdW  Elec       q    Type
REMARK                         _______ _______ _______ _____ _____    ______ ____
ROOT
ATOM      1  C   UNL     1     -36.084  21.966   1.613  0.00  0.00    +0.047 C 
ENDROOT
BRANCH   1   2
ATOM      2  N   UNL     1     -36.761  23.232   1.319  0.00  0.00    +0.390 N 
ATOM      3  H   UNL     1     -36.157  23.814   0.738  0.00  0.00    -0.088 HD
ATOM      4  H   UNL     1     -36.965  23.719   2.191  0.00  0.00    -0.088 HD
ATOM      5  H   UNL     1     -37.632  23.046   0.822  0.00  0.00    -0.088 HD
ENDBRANCH   1   2
BRANCH   1   6
ATOM      6  C   UNL     1     -35.245  22.184   2.860  0.00  0.00    +0.003 C 
ATOM      7  C   UNL     1     -35.925  22.559   4.143  0.00  0.00    +0.097 C 
ATOM      8  C   UNL     1     -35.097  23.572   3.408  0.00  0.00    +0.010 C 
BRANCH   7  10
ATOM      9  O   UNL     1     -35.192  22.696   6.389  0.00  0.00    -0.250 OA
ATOM     10  C   UNL     1     -35.419  22.003   5.408  0.00  0.00    +0.313 C 
BRANCH  10  11
ATOM     11  O   UNL     1     -35.241  20.661   5.347  0.00  0.00    -0.480 OA
ATOM     12  H   UNL     1     -35.620  20.170   4.645  0.00  0.00    +0.295 HD
ENDBRANCH  10  11
ENDBRANCH   7  10
ENDBRANCH   1   6
BRANCH   1  14
ATOM     13  O   UNL     1     -38.326  21.004   1.503  0.00  0.00    -0.253 OA
ATOM     14  C   UNL     1     -37.162  20.906   1.872  0.00  0.00    +0.295 C 
BRANCH  14  15
ATOM     15  O   UNL     1     -36.711  19.810   2.536  0.00  0.00    -0.482 OA
ATOM     16  H   UNL     1     -35.939  19.867   3.062  0.00  0.00    +0.295 HD
ENDBRANCH  14  15
ENDBRANCH   1  14
BRANCH   1  17
ATOM     17  C   UNL     1     -35.213  21.495   0.428  0.00  0.00    +0.017 C 
BRANCH  17  19
ATOM     18  O   UNL     1     -31.975  20.865  -1.587  0.00  0.00    -0.470 OA
ATOM     19  C   UNL     1     -33.698  21.545   0.672  0.00  0.00    -0.021 C 
ATOM     20  C   UNL     1     -33.053  22.577  -0.223  0.00  0.00    +0.030 C 
ATOM     21  C   UNL     1     -33.086  20.178   0.475  0.00  0.00    +0.018 C 
ATOM     22  C   UNL     1     -32.254  22.179  -1.300  0.00  0.00    +0.139 C 
ATOM     23  C   UNL     1     -32.284  19.916  -0.641  0.00  0.00    +0.210 C 
ATOM     24  C   UNL     1     -33.259  23.947  -0.001  0.00  0.00    +0.003 C 
ATOM     25  C   UNL     1     -33.324  19.147   1.395  0.00  0.00    -0.001 C 
ATOM     26  C   UNL     1     -31.687  23.131  -2.153  0.00  0.00    +0.037 C 
ATOM     27  C   UNL     1     -31.748  18.641  -0.846  0.00  0.00    +0.021 C 
ATOM     28  C   UNL     1     -32.687  24.897  -0.848  0.00  0.00    +0.000 C 
ATOM     29  C   UNL     1     -32.783  17.877   1.195  0.00  0.00    -0.000 C 
ATOM     30  C   UNL     1     -31.999  17.623   0.072  0.00  0.00    -0.001 C 
ATOM     31  C   UNL     1     -31.905  24.489  -1.925  0.00  0.00    +0.003 C 
ENDBRANCH  17  19
ENDBRANCH   1  17
TORSDOF 8
ENDMDL
MODEL 7
REMARK VINA RESULT:      -6.0      1.749      2.591
REMARK  Name = 57824323
REMARK  8 active torsions:
REMARK  status: ('A' for Active; 'I' for Inactive)
REMARK    1  A    between atoms: C_1  and  N_2
REMARK    2  A    between atoms: C_1  and  C_6
REMARK    3  A    between atoms: C_1  and  C_14
REMARK    4  A    between atoms: C_1  and  C_17
REMARK    5  A    between atoms: C_7  and  C_10
REMARK    6  A    between atoms: C_10  and  O_11
REMARK    7  A    between atoms: C_14  and  O_15
REMARK    8  A    between atoms: C_17  and  C_19
REMARK                            x       y       z     vdW  Elec       q    Type
REMARK                         _______ _______ _______ _____ _____    ______ ____
ROOT
ATOM      1  C   UNL     1     -35.678  21.384   1.312  0.00  0.00    +0.047 C 
ENDROOT
BRANCH   1   2
ATOM      2  N   UNL     1     -34.336  21.178   0.759  0.00  0.00    +0.390 N 
ATOM      3  H   UNL     1     -34.333  20.340   0.179  0.00  0.00    -0.088 HD
ATOM      4  H   UNL     1     -33.668  21.067   1.522  0.00  0.00    -0.088 HD
ATOM      5  H   UNL     1     -34.074  21.985   0.193  0.00  0.00    -0.088 HD
ENDBRANCH   1   2
BRANCH   1   6
ATOM      6  C   UNL     1     -36.673  20.981   0.238  0.00  0.00    +0.003 C 
ATOM      7  C   UNL     1     -36.371  19.800  -0.635  0.00  0.00    +0.097 C 
ATOM      8  C   UNL     1     -36.316  21.187  -1.205  0.00  0.00    +0.010 C 
BRANCH   7  10
ATOM      9  O   UNL     1     -37.468  18.286  -2.086  0.00  0.00    -0.250 OA
ATOM     10  C   UNL     1     -37.471  18.906  -1.033  0.00  0.00    +0.313 C 
BRANCH  10  11
ATOM     11  O   UNL     1     -38.459  18.861  -0.107  0.00  0.00    -0.480 OA
ATOM     12  H   UNL     1     -38.284  19.112   0.778  0.00  0.00    +0.295 HD
ENDBRANCH  10  11
ENDBRANCH   7  10
ENDBRANCH   1   6
BRANCH   1  14
ATOM     13  O   UNL     1     -34.995  20.401   3.441  0.00  0.00    -0.253 OA
ATOM     14  C   UNL     1     -35.824  20.478   2.542  0.00  0.00    +0.295 C 
BRANCH  14  15
ATOM     15  O   UNL     1     -36.982  19.769   2.571  0.00  0.00    -0.482 OA
ATOM     16  H   UNL     1     -37.712  20.043   2.054  0.00  0.00    +0.295 HD
ENDBRANCH  14  15
ENDBRANCH   1  14
BRANCH   1  17
ATOM     17  C   UNL     1     -35.895  22.847   1.757  0.00  0.00    +0.017 C 
BRANCH  17  19
ATOM     18  O   UNL     1     -37.741  25.735   3.542  0.00  0.00    -0.470 OA
ATOM     19  C   UNL     1     -36.797  23.027   2.986  0.00  0.00    -0.021 C 
ATOM     20  C   UNL     1     -38.158  23.535   2.572  0.00  0.00    +0.030 C 
ATOM     21  C   UNL     1     -36.142  23.947   3.990  0.00  0.00    +0.018 C 
ATOM     22  C   UNL     1     -38.538  24.851   2.855  0.00  0.00    +0.139 C 
ATOM     23  C   UNL     1     -36.637  25.239   4.194  0.00  0.00    +0.210 C 
ATOM     24  C   UNL     1     -39.054  22.703   1.884  0.00  0.00    +0.003 C 
ATOM     25  C   UNL     1     -35.021  23.527   4.721  0.00  0.00    -0.001 C 
ATOM     26  C   UNL     1     -39.782  25.335   2.439  0.00  0.00    +0.037 C 
ATOM     27  C   UNL     1     -36.010  26.106   5.093  0.00  0.00    +0.021 C 
ATOM     28  C   UNL     1     -40.299  23.184   1.476  0.00  0.00    +0.000 C 
ATOM     29  C   UNL     1     -34.400  24.389   5.626  0.00  0.00    -0.000 C 
ATOM     30  C   UNL     1     -34.892  25.679   5.808  0.00  0.00    -0.001 C 
ATOM     31  C   UNL     1     -40.661  24.501   1.750  0.00  0.00    +0.003 C 
ENDBRANCH  17  19
ENDBRANCH   1  17
TORSDOF 8
ENDMDL
MODEL 8
REMARK VINA RESULT:      -5.9      2.707      5.853
REMARK  Name = 57824323
REMARK  8 active torsions:
REMARK  status: ('A' for Active; 'I' for Inactive)
REMARK    1  A    between atoms: C_1  and  N_2
REMARK    2  A    between atoms: C_1  and  C_6
REMARK    3  A    between atoms: C_1  and  C_14
REMARK    4  A    between atoms: C_1  and  C_17
REMARK    5  A    between atoms: C_7  and  C_10
REMARK    6  A    between atoms: C_10  and  O_11
REMARK    7  A    between atoms: C_14  and  O_15
REMARK    8  A    between atoms: C_17  and  C_19
REMARK                            x       y       z     vdW  Elec       q    Type
REMARK                         _______ _______ _______ _____ _____    ______ ____
ROOT
ATOM      1  C   UNL     1     -38.384  24.694   2.700  0.00  0.00    +0.047 C 
ENDROOT
BRANCH   1   2
ATOM      2  N   UNL     1     -37.970  24.462   4.087  0.00  0.00    +0.390 N 
ATOM      3  H   UNL     1     -38.160  25.296   4.643  0.00  0.00    -0.088 HD
ATOM      4  H   UNL     1     -36.972  24.255   4.114  0.00  0.00    -0.088 HD
ATOM      5  H   UNL     1     -38.491  23.672   4.470  0.00  0.00    -0.088 HD
ENDBRANCH   1   2
BRANCH   1   6
ATOM      6  C   UNL     1     -39.565  23.781   2.424  0.00  0.00    +0.003 C 
ATOM      7  C   UNL     1     -39.536  22.891   1.216  0.00  0.00    +0.097 C 
ATOM      8  C   UNL     1     -40.460  24.074   1.256  0.00  0.00    +0.010 C 
BRANCH   7  10
ATOM      9  O   UNL     1     -40.706  21.007   0.393  0.00  0.00    -0.250 OA
ATOM     10  C   UNL     1     -40.104  21.537   1.314  0.00  0.00    +0.313 C 
BRANCH  10  11
ATOM     11  O   UNL     1     -39.879  20.969   2.524  0.00  0.00    -0.480 OA
ATOM     12  H   UNL     1     -39.866  20.037   2.608  0.00  0.00    +0.295 HD
ENDBRANCH  10  11
ENDBRANCH   7  10
ENDBRANCH   1   6
BRANCH   1  14
ATOM     13  O   UNL     1     -38.406  26.922   1.698  0.00  0.00    -0.253 OA
ATOM     14  C   UNL     1     -38.804  26.164   2.575  0.00  0.00    +0.295 C 
BRANCH  14  15
ATOM     15  O   UNL     1     -39.694  26.566   3.519  0.00  0.00    -0.482 OA
ATOM     16  H   UNL     1     -40.164  27.369   3.409  0.00  0.00    +0.295 HD
ENDBRANCH  14  15
ENDBRANCH   1  14
BRANCH   1  17
ATOM     17  C   UNL     1     -37.229  24.433   1.708  0.00  0.00    +0.017 C 
BRANCH  17  19
ATOM     18  O   UNL     1     -33.713  23.329   0.545  0.00  0.00    -0.470 OA
ATOM     19  C   UNL     1     -35.889  24.055   2.354  0.00  0.00    -0.021 C 
ATOM     20  C   UNL     1     -34.807  25.017   1.926  0.00  0.00    +0.030 C 
ATOM     21  C   UNL     1     -35.526  22.626   2.018  0.00  0.00    +0.018 C 
ATOM     22  C   UNL     1     -33.804  24.608   1.041  0.00  0.00    +0.139 C 
ATOM     23  C   UNL     1     -34.482  22.352   1.129  0.00  0.00    +0.210 C 
ATOM     24  C   UNL     1     -34.800  26.340   2.394  0.00  0.00    +0.003 C 
ATOM     25  C   UNL     1     -36.239  21.556   2.579  0.00  0.00    -0.001 C 
ATOM     26  C   UNL     1     -32.824  25.508   0.613  0.00  0.00    +0.037 C 
ATOM     27  C   UNL     1     -34.170  21.033   0.787  0.00  0.00    +0.021 C 
ATOM     28  C   UNL     1     -33.816  27.236   1.973  0.00  0.00    +0.000 C 
ATOM     29  C   UNL     1     -35.922  20.239   2.244  0.00  0.00    -0.000 C 
ATOM     30  C   UNL     1     -34.890  19.978   1.346  0.00  0.00    -0.001 C 
ATOM     31  C   UNL     1     -32.831  26.821   1.080  0.00  0.00    +0.003 C 
ENDBRANCH  17  19
ENDBRANCH   1  17
TORSDOF 8
ENDMDL
MODEL 9
REMARK VINA RESULT:      -5.9      1.764      4.375
REMARK  Name = 57824323
REMARK  8 active torsions:
REMARK  status: ('A' for Active; 'I' for Inactive)
REMARK    1  A    between atoms: C_1  and  N_2
REMARK    2  A    between atoms: C_1  and  C_6
REMARK    3  A    between atoms: C_1  and  C_14
REMARK    4  A    between atoms: C_1  and  C_17
REMARK    5  A    between atoms: C_7  and  C_10
REMARK    6  A    between atoms: C_10  and  O_11
REMARK    7  A    between atoms: C_14  and  O_15
REMARK    8  A    between atoms: C_17  and  C_19
REMARK                            x       y       z     vdW  Elec       q    Type
REMARK                         _______ _______ _______ _____ _____    ______ ____
ROOT
ATOM      1  C   UNL     1     -36.294  21.043   1.662  0.00  0.00    +0.047 C 
ENDROOT
BRANCH   1   2
ATOM      2  N   UNL     1     -35.662  21.811   0.585  0.00  0.00    +0.390 N 
ATOM      3  H   UNL     1     -35.855  21.362  -0.311  0.00  0.00    -0.088 HD
ATOM      4  H   UNL     1     -34.654  21.845   0.738  0.00  0.00    -0.088 HD
ATOM      5  H   UNL     1     -36.036  22.760   0.578  0.00  0.00    -0.088 HD
ENDBRANCH   1   2
BRANCH   1   6
ATOM      6  C   UNL     1     -37.188  20.005   1.008  0.00  0.00    +0.003 C 
ATOM      7  C   UNL     1     -36.828  19.478  -0.350  0.00  0.00    +0.097 C 
ATOM      8  C   UNL     1     -38.007  20.393  -0.188  0.00  0.00    +0.010 C 
BRANCH   7  10
ATOM      9  O   UNL     1     -37.016  17.606  -1.784  0.00  0.00    -0.250 OA
ATOM     10  C   UNL     1     -37.061  18.056  -0.649  0.00  0.00    +0.313 C 
BRANCH  10  11
ATOM     11  O   UNL     1     -37.325  17.331   0.465  0.00  0.00    -0.480 OA
ATOM     12  H   UNL     1     -37.827  17.708   1.161  0.00  0.00    +0.295 HD
ENDBRANCH  10  11
ENDBRANCH   7  10
ENDBRANCH   1   6
BRANCH   1  14
ATOM     13  O   UNL     1     -34.241  19.755   1.966  0.00  0.00    -0.253 OA
ATOM     14  C   UNL     1     -35.182  20.360   2.467  0.00  0.00    +0.295 C 
BRANCH  14  15
ATOM     15  O   UNL     1     -35.307  20.502   3.812  0.00  0.00    -0.482 OA
ATOM     16  H   UNL     1     -36.065  20.919   4.171  0.00  0.00    +0.295 HD
ENDBRANCH  14  15
ENDBRANCH   1  14
BRANCH   1  17
ATOM     17  C   UNL     1     -37.098  21.953   2.616  0.00  0.00    +0.017 C 
BRANCH  17  19
ATOM     18  O   UNL     1     -38.182  25.265   4.287  0.00  0.00    -0.470 OA
ATOM     19  C   UNL     1     -36.994  23.456   2.324  0.00  0.00    -0.021 C 
ATOM     20  C   UNL     1     -36.199  24.150   3.405  0.00  0.00    +0.030 C 
ATOM     21  C   UNL     1     -38.371  24.060   2.173  0.00  0.00    +0.018 C 
ATOM     22  C   UNL     1     -36.836  24.990   4.324  0.00  0.00    +0.139 C 
ATOM     23  C   UNL     1     -38.885  24.906   3.161  0.00  0.00    +0.210 C 
ATOM     24  C   UNL     1     -34.814  23.951   3.514  0.00  0.00    +0.003 C 
ATOM     25  C   UNL     1     -39.160  23.771   1.050  0.00  0.00    -0.001 C 
ATOM     26  C   UNL     1     -36.109  25.603   5.348  0.00  0.00    +0.037 C 
ATOM     27  C   UNL     1     -40.174  25.435   3.042  0.00  0.00    +0.021 C 
ATOM     28  C   UNL     1     -34.087  24.570   4.532  0.00  0.00    +0.000 C 
ATOM     29  C   UNL     1     -40.443  24.306   0.927  0.00  0.00    -0.000 C 
ATOM     30  C   UNL     1     -40.951  25.134   1.925  0.00  0.00    -0.001 C 
ATOM     31  C   UNL     1     -34.735  25.392   5.451  0.00  0.00    +0.003 C 
ENDBRANCH  17  19
ENDBRANCH   1  17
TORSDOF 8
ENDMDL
