MODEL 1
REMARK VINA RESULT:      -6.9      0.000      0.000
REMARK  Name = 191426
REMARK  4 active torsions:
REMARK  status: ('A' for Active; 'I' for Inactive)
REMARK    1  A    between atoms: P_1  and  O_22
REMARK    2  A    between atoms: C_8  and  N_10
REMARK    3  A    between atoms: C_9  and  C_24
REMARK    4  A    between atoms: C_24  and  O_25
REMARK                            x       y       z     vdW  Elec       q    Type
REMARK                         _______ _______ _______ _____ _____    ______ ____
ROOT
ATOM      1  P   UNL     1     -34.586  26.133   4.620  0.00  0.00    +0.477 P 
ATOM      2  O   UNL     1     -35.262  22.076   3.975  0.00  0.00    -0.333 OA
ATOM      3  O   UNL     1     -34.709  25.173   3.314  0.00  0.00    -0.269 OA
ATOM      4  O   UNL     1     -35.483  25.232   5.632  0.00  0.00    -0.271 OA
ATOM      5  O   UNL     1     -33.199  26.475   5.069  0.00  0.00    -0.227 OA
ATOM      6  C   UNL     1     -35.867  24.335   3.456  0.00  0.00    +0.203 C 
ATOM      7  C   UNL     1     -35.995  24.090   4.950  0.00  0.00    +0.187 C 
ATOM      8  C   UNL     1     -35.593  22.954   2.879  0.00  0.00    +0.226 C 
ATOM      9  C   UNL     1     -35.111  22.871   5.160  0.00  0.00    +0.176 C 
ENDROOT
BRANCH   8  10
ATOM     10  N   UNL     1     -36.729  22.391   2.150  0.00  0.00    -0.246 N 
ATOM     11  N   UNL     1     -38.820  22.197   1.351  0.00  0.00    -0.242 NA
ATOM     12  N   UNL     1     -35.716  20.393   1.180  0.00  0.00    -0.126 NA
ATOM     13  N   UNL     1     -37.215  19.215  -0.067  0.00  0.00    -0.160 N 
ATOM     14  N   UNL     1     -35.933  19.371   0.446  0.00  0.00    -0.038 NA
ATOM     15  N   UNL     1     -39.373  19.682  -0.461  0.00  0.00    -0.224 NA
ATOM     16  C   UNL     1     -36.749  21.249   1.403  0.00  0.00    +0.176 C 
ATOM     17  C   UNL     1     -37.999  22.925   2.087  0.00  0.00    +0.223 C 
ATOM     18  C   UNL     1     -38.039  21.170   0.937  0.00  0.00    +0.144 C 
ATOM     19  C   UNL     1     -38.280  20.070   0.145  0.00  0.00    +0.174 C 
ATOM     20  C   UNL     1     -37.679  18.210  -0.871  0.00  0.00    +0.111 C 
ATOM     21  C   UNL     1     -39.005  18.519  -1.098  0.00  0.00    +0.118 C 
ENDBRANCH   8  10
BRANCH   1  22
ATOM     22  O   UNL     1     -35.553  27.379   4.266  0.00  0.00    -0.302 OA
ATOM     23  H   UNL     1     -35.649  27.945   5.048  0.00  0.00    +0.222 HD
ENDBRANCH   1  22
BRANCH   9  24
ATOM     24  C   UNL     1     -35.499  22.054   6.378  0.00  0.00    +0.169 C 
BRANCH  24  25
ATOM     25  O   UNL     1     -35.563  20.687   6.006  0.00  0.00    -0.379 OA
ATOM     26  H   UNL     1     -35.772  20.150   6.787  0.00  0.00    +0.211 HD
ENDBRANCH  24  25
ENDBRANCH   9  24
TORSDOF 4
ENDMDL
MODEL 2
REMARK VINA RESULT:      -6.6      5.065      8.239
REMARK  Name = 191426
REMARK  4 active torsions:
REMARK  status: ('A' for Active; 'I' for Inactive)
REMARK    1  A    between atoms: P_1  and  O_22
REMARK    2  A    between atoms: C_8  and  N_10
REMARK    3  A    between atoms: C_9  and  C_24
REMARK    4  A    between atoms: C_24  and  O_25
REMARK                            x       y       z     vdW  Elec       q    Type
REMARK                         _______ _______ _______ _____ _____    ______ ____
ROOT
ATOM      1  P   UNL     1     -36.105  21.729   2.613  0.00  0.00    +0.477 P 
ATOM      2  O   UNL     1     -35.975  25.887   2.769  0.00  0.00    -0.333 OA
ATOM      3  O   UNL     1     -34.932  22.854   2.566  0.00  0.00    -0.269 OA
ATOM      4  O   UNL     1     -37.202  22.601   3.436  0.00  0.00    -0.271 OA
ATOM      5  O   UNL     1     -36.541  21.163   1.297  0.00  0.00    -0.227 OA
ATOM      6  C   UNL     1     -35.152  23.805   3.619  0.00  0.00    +0.203 C 
ATOM      7  C   UNL     1     -36.662  23.874   3.778  0.00  0.00    +0.187 C 
ATOM      8  C   UNL     1     -34.767  25.203   3.158  0.00  0.00    +0.226 C 
ATOM      9  C   UNL     1     -37.051  24.937   2.763  0.00  0.00    +0.176 C 
ENDROOT
BRANCH   8  10
ATOM     10  N   UNL     1     -34.088  25.990   4.187  0.00  0.00    -0.246 N 
ATOM     11  N   UNL     1     -33.468  26.675   6.234  0.00  0.00    -0.242 NA
ATOM     12  N   UNL     1     -32.817  27.556   2.812  0.00  0.00    -0.126 NA
ATOM     13  N   UNL     1     -31.592  28.989   4.090  0.00  0.00    -0.160 N 
ATOM     14  N   UNL     1     -31.999  28.536   2.841  0.00  0.00    -0.038 NA
ATOM     15  N   UNL     1     -31.452  29.091   6.326  0.00  0.00    -0.224 NA
ATOM     16  C   UNL     1     -33.226  27.031   3.997  0.00  0.00    +0.176 C 
ATOM     17  C   UNL     1     -34.200  25.814   5.550  0.00  0.00    +0.223 C 
ATOM     18  C   UNL     1     -32.875  27.416   5.268  0.00  0.00    +0.144 C 
ATOM     19  C   UNL     1     -31.993  28.473   5.308  0.00  0.00    +0.174 C 
ATOM     20  C   UNL     1     -30.729  30.014   4.369  0.00  0.00    +0.111 C 
ATOM     21  C   UNL     1     -30.660  30.057   5.747  0.00  0.00    +0.118 C 
ENDBRANCH   8  10
BRANCH   1  22
ATOM     22  O   UNL     1     -35.568  20.668   3.707  0.00  0.00    -0.302 OA
ATOM     23  H   UNL     1     -34.859  21.073   4.229  0.00  0.00    +0.222 HD
ENDBRANCH   1  22
BRANCH   9  24
ATOM     24  C   UNL     1     -38.354  25.637   3.100  0.00  0.00    +0.169 C 
BRANCH  24  25
ATOM     25  O   UNL     1     -39.143  24.770   3.897  0.00  0.00    -0.379 OA
ATOM     26  H   UNL     1     -38.576  24.323   4.546  0.00  0.00    +0.211 HD
ENDBRANCH  24  25
ENDBRANCH   9  24
TORSDOF 4
ENDMDL
MODEL 3
REMARK VINA RESULT:      -6.6      3.070      4.687
REMARK  Name = 191426
REMARK  4 active torsions:
REMARK  status: ('A' for Active; 'I' for Inactive)
REMARK    1  A    between atoms: P_1  and  O_22
REMARK    2  A    between atoms: C_8  and  N_10
REMARK    3  A    between atoms: C_9  and  C_24
REMARK    4  A    between atoms: C_24  and  O_25
REMARK                            x       y       z     vdW  Elec       q    Type
REMARK                         _______ _______ _______ _____ _____    ______ ____
ROOT
ATOM      1  P   UNL     1     -32.027  28.194   5.984  0.00  0.00    +0.477 P 
ATOM      2  O   UNL     1     -35.238  26.744   3.768  0.00  0.00    -0.333 OA
ATOM      3  O   UNL     1     -33.333  27.280   6.301  0.00  0.00    -0.269 OA
ATOM      4  O   UNL     1     -31.901  27.845   4.402  0.00  0.00    -0.271 OA
ATOM      5  O   UNL     1     -32.119  29.643   6.351  0.00  0.00    -0.227 OA
ATOM      6  C   UNL     1     -33.452  26.267   5.291  0.00  0.00    +0.203 C 
ATOM      7  C   UNL     1     -32.904  26.906   4.025  0.00  0.00    +0.187 C 
ATOM      8  C   UNL     1     -34.917  26.011   4.968  0.00  0.00    +0.226 C 
ATOM      9  C   UNL     1     -34.128  27.596   3.448  0.00  0.00    +0.176 C 
ENDROOT
BRANCH   8  10
ATOM     10  N   UNL     1     -35.229  24.598   4.756  0.00  0.00    -0.246 N 
ATOM     11  N   UNL     1     -35.927  22.513   5.216  0.00  0.00    -0.242 NA
ATOM     12  N   UNL     1     -34.591  24.326   2.416  0.00  0.00    -0.126 NA
ATOM     13  N   UNL     1     -34.942  22.194   1.694  0.00  0.00    -0.160 N 
ATOM     14  N   UNL     1     -34.520  23.494   1.449  0.00  0.00    -0.038 NA
ATOM     15  N   UNL     1     -35.760  20.450   2.844  0.00  0.00    -0.224 NA
ATOM     16  C   UNL     1     -35.072  23.879   3.606  0.00  0.00    +0.176 C 
ATOM     17  C   UNL     1     -35.747  23.731   5.695  0.00  0.00    +0.223 C 
ATOM     18  C   UNL     1     -35.508  22.618   3.932  0.00  0.00    +0.144 C 
ATOM     19  C   UNL     1     -35.434  21.717   2.895  0.00  0.00    +0.174 C 
ATOM     20  C   UNL     1     -34.961  21.141   0.821  0.00  0.00    +0.111 C 
ATOM     21  C   UNL     1     -35.466  20.083   1.550  0.00  0.00    +0.118 C 
ENDBRANCH   8  10
BRANCH   1  22
ATOM     22  O   UNL     1     -30.813  27.362   6.652  0.00  0.00    -0.302 OA
ATOM     23  H   UNL     1     -31.062  26.428   6.724  0.00  0.00    +0.222 HD
ENDBRANCH   1  22
BRANCH   9  24
ATOM     24  C   UNL     1     -34.051  27.795   1.946  0.00  0.00    +0.169 C 
BRANCH  24  25
ATOM     25  O   UNL     1     -33.427  26.661   1.369  0.00  0.00    -0.379 OA
ATOM     26  H   UNL     1     -33.317  26.803   0.416  0.00  0.00    +0.211 HD
ENDBRANCH  24  25
ENDBRANCH   9  24
TORSDOF 4
ENDMDL
MODEL 4
REMARK VINA RESULT:      -6.6      4.878      7.491
REMARK  Name = 191426
REMARK  4 active torsions:
REMARK  status: ('A' for Active; 'I' for Inactive)
REMARK    1  A    between atoms: P_1  and  O_22
REMARK    2  A    between atoms: C_8  and  N_10
REMARK    3  A    between atoms: C_9  and  C_24
REMARK    4  A    between atoms: C_24  and  O_25
REMARK                            x       y       z     vdW  Elec       q    Type
REMARK                         _______ _______ _______ _____ _____    ______ ____
ROOT
ATOM      1  P   UNL     1     -37.199  22.499   2.146  0.00  0.00    +0.477 P 
ATOM      2  O   UNL     1     -35.825  24.210   5.683  0.00  0.00    -0.333 OA
ATOM      3  O   UNL     1     -37.101  24.009   2.740  0.00  0.00    -0.269 OA
ATOM      4  O   UNL     1     -35.981  21.852   3.006  0.00  0.00    -0.271 OA
ATOM      5  O   UNL     1     -38.532  21.825   2.250  0.00  0.00    -0.227 OA
ATOM      6  C   UNL     1     -35.789  24.212   3.289  0.00  0.00    +0.203 C 
ATOM      7  C   UNL     1     -35.368  22.851   3.817  0.00  0.00    +0.187 C 
ATOM      8  C   UNL     1     -35.867  25.082   4.535  0.00  0.00    +0.226 C 
ATOM      9  C   UNL     1     -35.936  22.854   5.226  0.00  0.00    +0.176 C 
ENDROOT
BRANCH   8  10
ATOM     10  N   UNL     1     -34.777  26.052   4.638  0.00  0.00    -0.246 N 
ATOM     11  N   UNL     1     -32.958  27.083   5.459  0.00  0.00    -0.242 NA
ATOM     12  N   UNL     1     -35.191  27.427   2.664  0.00  0.00    -0.126 NA
ATOM     13  N   UNL     1     -33.654  29.097   2.470  0.00  0.00    -0.160 N 
ATOM     14  N   UNL     1     -34.777  28.432   1.994  0.00  0.00    -0.038 NA
ATOM     15  N   UNL     1     -31.924  29.564   3.819  0.00  0.00    -0.224 NA
ATOM     16  C   UNL     1     -34.505  27.083   3.787  0.00  0.00    +0.176 C 
ATOM     17  C   UNL     1     -33.818  26.094   5.627  0.00  0.00    +0.223 C 
ATOM     18  C   UNL     1     -33.393  27.683   4.324  0.00  0.00    +0.144 C 
ATOM     19  C   UNL     1     -32.941  28.767   3.607  0.00  0.00    +0.174 C 
ATOM     20  C   UNL     1     -33.033  30.188   1.926  0.00  0.00    +0.111 C 
ATOM     21  C   UNL     1     -31.975  30.455   2.772  0.00  0.00    +0.118 C 
ENDBRANCH   8  10
BRANCH   1  22
ATOM     22  O   UNL     1     -36.579  22.636   0.660  0.00  0.00    -0.302 OA
ATOM     23  H   UNL     1     -35.800  23.213   0.686  0.00  0.00    +0.222 HD
ENDBRANCH   1  22
BRANCH   9  24
ATOM     24  C   UNL     1     -35.193  21.932   6.173  0.00  0.00    +0.169 C 
BRANCH  24  25
ATOM     25  O   UNL     1     -35.188  20.625   5.625  0.00  0.00    -0.379 OA
ATOM     26  H   UNL     1     -36.092  20.274   5.618  0.00  0.00    +0.211 HD
ENDBRANCH  24  25
ENDBRANCH   9  24
TORSDOF 4
ENDMDL
MODEL 5
REMARK VINA RESULT:      -6.5      7.178      9.391
REMARK  Name = 191426
REMARK  4 active torsions:
REMARK  status: ('A' for Active; 'I' for Inactive)
REMARK    1  A    between atoms: P_1  and  O_22
REMARK    2  A    between atoms: C_8  and  N_10
REMARK    3  A    between atoms: C_9  and  C_24
REMARK    4  A    between atoms: C_24  and  O_25
REMARK                            x       y       z     vdW  Elec       q    Type
REMARK                         _______ _______ _______ _____ _____    ______ ____
ROOT
ATOM      1  P   UNL     1     -38.195  25.253   2.792  0.00  0.00    +0.477 P 
ATOM      2  O   UNL     1     -41.846  26.201   1.030  0.00  0.00    -0.333 OA
ATOM      3  O   UNL     1     -39.240  26.496   2.887  0.00  0.00    -0.269 OA
ATOM      4  O   UNL     1     -39.262  24.113   2.340  0.00  0.00    -0.271 OA
ATOM      5  O   UNL     1     -37.002  25.450   1.909  0.00  0.00    -0.227 OA
ATOM      6  C   UNL     1     -40.570  25.979   3.044  0.00  0.00    +0.203 C 
ATOM      7  C   UNL     1     -40.575  24.665   2.280  0.00  0.00    +0.187 C 
ATOM      8  C   UNL     1     -41.567  26.845   2.289  0.00  0.00    +0.226 C 
ATOM      9  C   UNL     1     -40.933  25.105   0.871  0.00  0.00    +0.176 C 
ENDROOT
BRANCH   8  10
ATOM     10  N   UNL     1     -42.825  27.046   3.006  0.00  0.00    -0.246 N 
ATOM     11  N   UNL     1     -44.968  26.742   3.608  0.00  0.00    -0.242 NA
ATOM     12  N   UNL     1     -42.217  28.871   4.510  0.00  0.00    -0.126 NA
ATOM     13  N   UNL     1     -43.967  29.485   5.833  0.00  0.00    -0.160 N 
ATOM     14  N   UNL     1     -42.646  29.642   5.433  0.00  0.00    -0.038 NA
ATOM     15  N   UNL     1     -46.043  28.635   5.882  0.00  0.00    -0.224 NA
ATOM     16  C   UNL     1     -43.080  27.958   3.991  0.00  0.00    +0.176 C 
ATOM     17  C   UNL     1     -43.992  26.339   2.813  0.00  0.00    +0.223 C 
ATOM     18  C   UNL     1     -44.393  27.737   4.326  0.00  0.00    +0.144 C 
ATOM     19  C   UNL     1     -44.863  28.565   5.320  0.00  0.00    +0.174 C 
ATOM     20  C   UNL     1     -44.641  30.188   6.794  0.00  0.00    +0.111 C 
ATOM     21  C   UNL     1     -45.912  29.648   6.805  0.00  0.00    +0.118 C 
ENDBRANCH   8  10
BRANCH   1  22
ATOM     22  O   UNL     1     -37.892  24.894   4.338  0.00  0.00    -0.302 OA
ATOM     23  H   UNL     1     -38.559  25.313   4.904  0.00  0.00    +0.222 HD
ENDBRANCH   1  22
BRANCH   9  24
ATOM     24  C   UNL     1     -41.586  24.009   0.050  0.00  0.00    +0.169 C 
BRANCH  24  25
ATOM     25  O   UNL     1     -41.169  22.752   0.555  0.00  0.00    -0.379 OA
ATOM     26  H   UNL     1     -41.912  22.324   1.010  0.00  0.00    +0.211 HD
ENDBRANCH  24  25
ENDBRANCH   9  24
TORSDOF 4
ENDMDL
MODEL 6
REMARK VINA RESULT:      -6.4      3.125      4.784
REMARK  Name = 191426
REMARK  4 active torsions:
REMARK  status: ('A' for Active; 'I' for Inactive)
REMARK    1  A    between atoms: P_1  and  O_22
REMARK    2  A    between atoms: C_8  and  N_10
REMARK    3  A    between atoms: C_9  and  C_24
REMARK    4  A    between atoms: C_24  and  O_25
REMARK                            x       y       z     vdW  Elec       q    Type
REMARK                         _______ _______ _______ _____ _____    ______ ____
ROOT
ATOM      1  P   UNL     1     -34.799  25.375   4.887  0.00  0.00    +0.477 P 
ATOM      2  O   UNL     1     -36.408  22.825   2.017  0.00  0.00    -0.333 OA
ATOM      3  O   UNL     1     -35.708  25.561   3.552  0.00  0.00    -0.269 OA
ATOM      4  O   UNL     1     -35.237  23.847   5.232  0.00  0.00    -0.271 OA
ATOM      5  O   UNL     1     -33.333  25.641   4.741  0.00  0.00    -0.227 OA
ATOM      6  C   UNL     1     -36.779  24.604   3.577  0.00  0.00    +0.203 C 
ATOM      7  C   UNL     1     -36.207  23.391   4.293  0.00  0.00    +0.187 C 
ATOM      8  C   UNL     1     -37.068  24.098   2.172  0.00  0.00    +0.226 C 
ATOM      9  C   UNL     1     -35.564  22.612   3.158  0.00  0.00    +0.176 C 
ENDROOT
BRANCH   8  10
ATOM     10  N   UNL     1     -38.494  23.928   1.896  0.00  0.00    -0.246 N 
ATOM     11  N   UNL     1     -40.438  22.885   1.469  0.00  0.00    -0.242 NA
ATOM     12  N   UNL     1     -39.250  26.248   1.905  0.00  0.00    -0.126 NA
ATOM     13  N   UNL     1     -41.487  26.403   1.502  0.00  0.00    -0.160 N 
ATOM     14  N   UNL     1     -40.266  27.010   1.767  0.00  0.00    -0.038 NA
ATOM     15  N   UNL     1     -42.953  24.747   1.125  0.00  0.00    -0.224 NA
ATOM     16  C   UNL     1     -39.438  24.908   1.784  0.00  0.00    +0.176 C 
ATOM     17  C   UNL     1     -39.146  22.729   1.698  0.00  0.00    +0.223 C 
ATOM     18  C   UNL     1     -40.603  24.229   1.524  0.00  0.00    +0.144 C 
ATOM     19  C   UNL     1     -41.702  25.043   1.374  0.00  0.00    +0.174 C 
ATOM     20  C   UNL     1     -42.701  27.007   1.318  0.00  0.00    +0.111 C 
ATOM     21  C   UNL     1     -43.583  25.970   1.088  0.00  0.00    +0.118 C 
ENDBRANCH   8  10
BRANCH   1  22
ATOM     22  O   UNL     1     -35.579  26.250   6.000  0.00  0.00    -0.302 OA
ATOM     23  H   UNL     1     -36.156  25.670   6.522  0.00  0.00    +0.222 HD
ENDBRANCH   1  22
BRANCH   9  24
ATOM     24  C   UNL     1     -35.450  21.126   3.441  0.00  0.00    +0.169 C 
BRANCH  24  25
ATOM     25  O   UNL     1     -35.483  20.927   4.844  0.00  0.00    -0.379 OA
ATOM     26  H   UNL     1     -35.461  21.787   5.293  0.00  0.00    +0.211 HD
ENDBRANCH  24  25
ENDBRANCH   9  24
TORSDOF 4
ENDMDL
MODEL 7
REMARK VINA RESULT:      -6.3      1.964      3.020
REMARK  Name = 191426
REMARK  4 active torsions:
REMARK  status: ('A' for Active; 'I' for Inactive)
REMARK    1  A    between atoms: P_1  and  O_22
REMARK    2  A    between atoms: C_8  and  N_10
REMARK    3  A    between atoms: C_9  and  C_24
REMARK    4  A    between atoms: C_24  and  O_25
REMARK                            x       y       z     vdW  Elec       q    Type
REMARK                         _______ _______ _______ _____ _____    ______ ____
ROOT
ATOM      1  P   UNL     1     -34.215  25.316   4.328  0.00  0.00    +0.477 P 
ATOM      2  O   UNL     1     -37.572  22.982   3.547  0.00  0.00    -0.333 OA
ATOM      3  O   UNL     1     -34.511  23.724   4.189  0.00  0.00    -0.269 OA
ATOM      4  O   UNL     1     -35.440  25.842   3.398  0.00  0.00    -0.271 OA
ATOM      5  O   UNL     1     -34.140  25.863   5.720  0.00  0.00    -0.227 OA
ATOM      6  C   UNL     1     -35.295  23.494   3.008  0.00  0.00    +0.203 C 
ATOM      7  C   UNL     1     -36.160  24.736   2.862  0.00  0.00    +0.187 C 
ATOM      8  C   UNL     1     -36.298  22.375   3.248  0.00  0.00    +0.226 C 
ATOM      9  C   UNL     1     -37.373  24.394   3.710  0.00  0.00    +0.176 C 
ENDROOT
BRANCH   8  10
ATOM     10  N   UNL     1     -36.457  21.480   2.103  0.00  0.00    -0.246 N 
ATOM     11  N   UNL     1     -37.384  20.553   0.279  0.00  0.00    -0.242 NA
ATOM     12  N   UNL     1     -34.427  20.136   2.277  0.00  0.00    -0.126 NA
ATOM     13  N   UNL     1     -34.306  18.582   0.616  0.00  0.00    -0.160 N 
ATOM     14  N   UNL     1     -33.765  19.181   1.747  0.00  0.00    -0.038 NA
ATOM     15  N   UNL     1     -35.767  18.196  -1.042  0.00  0.00    -0.224 NA
ATOM     16  C   UNL     1     -35.604  20.494   1.699  0.00  0.00    +0.176 C 
ATOM     17  C   UNL     1     -37.513  21.475   1.216  0.00  0.00    +0.223 C 
ATOM     18  C   UNL     1     -36.207  19.957   0.588  0.00  0.00    +0.144 C 
ATOM     19  C   UNL     1     -35.500  18.927   0.011  0.00  0.00    +0.174 C 
ATOM     20  C   UNL     1     -33.783  17.552  -0.117  0.00  0.00    +0.111 C 
ATOM     21  C   UNL     1     -34.698  17.334  -1.128  0.00  0.00    +0.118 C 
ENDBRANCH   8  10
BRANCH   1  22
ATOM     22  O   UNL     1     -32.913  25.541   3.399  0.00  0.00    -0.302 OA
ATOM     23  H   UNL     1     -32.606  26.457   3.487  0.00  0.00    +0.222 HD
ENDBRANCH   1  22
BRANCH   9  24
ATOM     24  C   UNL     1     -38.626  25.139   3.290  0.00  0.00    +0.169 C 
BRANCH  24  25
ATOM     25  O   UNL     1     -38.372  26.531   3.362  0.00  0.00    -0.379 OA
ATOM     26  H   UNL     1     -39.188  26.996   3.608  0.00  0.00    +0.211 HD
ENDBRANCH  24  25
ENDBRANCH   9  24
TORSDOF 4
ENDMDL
MODEL 8
REMARK VINA RESULT:      -6.2      5.656      8.648
REMARK  Name = 191426
REMARK  4 active torsions:
REMARK  status: ('A' for Active; 'I' for Inactive)
REMARK    1  A    between atoms: P_1  and  O_22
REMARK    2  A    between atoms: C_8  and  N_10
REMARK    3  A    between atoms: C_9  and  C_24
REMARK    4  A    between atoms: C_24  and  O_25
REMARK                            x       y       z     vdW  Elec       q    Type
REMARK                         _______ _______ _______ _____ _____    ______ ____
ROOT
ATOM      1  P   UNL     1     -35.686  23.251   4.493  0.00  0.00    +0.477 P 
ATOM      2  O   UNL     1     -35.774  26.558   1.966  0.00  0.00    -0.333 OA
ATOM      3  O   UNL     1     -34.572  24.235   3.834  0.00  0.00    -0.269 OA
ATOM      4  O   UNL     1     -36.930  24.298   4.477  0.00  0.00    -0.271 OA
ATOM      5  O   UNL     1     -35.901  21.935   3.814  0.00  0.00    -0.227 OA
ATOM      6  C   UNL     1     -34.985  25.598   4.014  0.00  0.00    +0.203 C 
ATOM      7  C   UNL     1     -36.504  25.559   3.968  0.00  0.00    +0.187 C 
ATOM      8  C   UNL     1     -34.603  26.431   2.799  0.00  0.00    +0.226 C 
ATOM      9  C   UNL     1     -36.792  25.688   2.481  0.00  0.00    +0.176 C 
ENDROOT
BRANCH   8  10
ATOM     10  N   UNL     1     -34.118  27.768   3.139  0.00  0.00    -0.246 N 
ATOM     11  N   UNL     1     -34.118  30.002   3.375  0.00  0.00    -0.242 NA
ATOM     12  N   UNL     1     -31.892  27.251   3.997  0.00  0.00    -0.126 NA
ATOM     13  N   UNL     1     -30.787  29.133   4.651  0.00  0.00    -0.160 N 
ATOM     14  N   UNL     1     -30.826  27.754   4.489  0.00  0.00    -0.038 NA
ATOM     15  N   UNL     1     -31.497  31.260   4.585  0.00  0.00    -0.224 NA
ATOM     16  C   UNL     1     -32.904  28.097   3.671  0.00  0.00    +0.176 C 
ATOM     17  C   UNL     1     -34.811  28.949   2.980  0.00  0.00    +0.223 C 
ATOM     18  C   UNL     1     -32.948  29.464   3.797  0.00  0.00    +0.144 C 
ATOM     19  C   UNL     1     -31.802  30.013   4.326  0.00  0.00    +0.174 C 
ATOM     20  C   UNL     1     -29.763  29.889   5.153  0.00  0.00    +0.111 C 
ATOM     21  C   UNL     1     -30.223  31.190   5.102  0.00  0.00    +0.118 C 
ENDBRANCH   8  10
BRANCH   1  22
ATOM     22  O   UNL     1     -35.264  23.192   6.052  0.00  0.00    -0.302 OA
ATOM     23  H   UNL     1     -34.899  24.050   6.321  0.00  0.00    +0.222 HD
ENDBRANCH   1  22
BRANCH   9  24
ATOM     24  C   UNL     1     -38.161  26.270   2.185  0.00  0.00    +0.169 C 
BRANCH  24  25
ATOM     25  O   UNL     1     -38.930  26.251   3.375  0.00  0.00    -0.379 OA
ATOM     26  H   UNL     1     -39.747  26.758   3.241  0.00  0.00    +0.211 HD
ENDBRANCH  24  25
ENDBRANCH   9  24
TORSDOF 4
ENDMDL
MODEL 9
REMARK VINA RESULT:      -6.1      1.604      2.810
REMARK  Name = 191426
REMARK  4 active torsions:
REMARK  status: ('A' for Active; 'I' for Inactive)
REMARK    1  A    between atoms: P_1  and  O_22
REMARK    2  A    between atoms: C_8  and  N_10
REMARK    3  A    between atoms: C_9  and  C_24
REMARK    4  A    between atoms: C_24  and  O_25
REMARK                            x       y       z     vdW  Elec       q    Type
REMARK                         _______ _______ _______ _____ _____    ______ ____
ROOT
ATOM      1  P   UNL     1     -33.787  26.146   4.374  0.00  0.00    +0.477 P 
ATOM      2  O   UNL     1     -37.114  23.648   4.216  0.00  0.00    -0.333 OA
ATOM      3  O   UNL     1     -34.053  24.555   4.585  0.00  0.00    -0.269 OA
ATOM      4  O   UNL     1     -35.050  26.444   3.396  0.00  0.00    -0.271 OA
ATOM      5  O   UNL     1     -33.683  26.976   5.616  0.00  0.00    -0.227 OA
ATOM      6  C   UNL     1     -34.866  24.069   3.506  0.00  0.00    +0.203 C 
ATOM      7  C   UNL     1     -35.761  25.239   3.129  0.00  0.00    +0.187 C 
ATOM      8  C   UNL     1     -35.837  23.012   4.010  0.00  0.00    +0.226 C 
ATOM      9  C   UNL     1     -36.941  25.066   4.071  0.00  0.00    +0.176 C 
ENDROOT
BRANCH   8  10
ATOM     10  N   UNL     1     -36.010  21.892   3.086  0.00  0.00    -0.246 N 
ATOM     11  N   UNL     1     -35.588  19.945   2.048  0.00  0.00    -0.242 NA
ATOM     12  N   UNL     1     -38.065  22.546   1.943  0.00  0.00    -0.126 NA
ATOM     13  N   UNL     1     -38.682  21.006   0.381  0.00  0.00    -0.160 N 
ATOM     14  N   UNL     1     -38.908  22.205   1.046  0.00  0.00    -0.038 NA
ATOM     15  N   UNL     1     -37.657  19.087  -0.166  0.00  0.00    -0.224 NA
ATOM     16  C   UNL     1     -37.015  21.716   2.179  0.00  0.00    +0.176 C 
ATOM     17  C   UNL     1     -35.178  20.799   2.969  0.00  0.00    +0.223 C 
ATOM     18  C   UNL     1     -36.718  20.521   1.570  0.00  0.00    +0.144 C 
ATOM     19  C   UNL     1     -37.622  20.147   0.603  0.00  0.00    +0.174 C 
ATOM     20  C   UNL     1     -39.441  20.440  -0.606  0.00  0.00    +0.111 C 
ATOM     21  C   UNL     1     -38.791  19.264  -0.925  0.00  0.00    +0.118 C 
ENDBRANCH   8  10
BRANCH   1  22
ATOM     22  O   UNL     1     -32.518  26.188   3.375  0.00  0.00    -0.302 OA
ATOM     23  H   UNL     1     -32.356  25.300   3.021  0.00  0.00    +0.222 HD
ENDBRANCH   1  22
BRANCH   9  24
ATOM     24  C   UNL     1     -38.222  25.686   3.545  0.00  0.00    +0.169 C 
BRANCH  24  25
ATOM     25  O   UNL     1     -39.301  24.812   3.830  0.00  0.00    -0.379 OA
ATOM     26  H   UNL     1     -40.030  24.989   3.214  0.00  0.00    +0.211 HD
ENDBRANCH  24  25
ENDBRANCH   9  24
TORSDOF 4
ENDMDL
