MODEL 1
REMARK VINA RESULT:      -6.5      0.000      0.000
REMARK  Name = 5283893
REMARK  9 active torsions:
REMARK  status: ('A' for Active; 'I' for Inactive)
REMARK    1  A    between atoms: C_6  and  C_28
REMARK    2  A    between atoms: C_7  and  O_20
REMARK    3  A    between atoms: C_10  and  O_22
REMARK    4  A    between atoms: C_14  and  O_24
REMARK    5  A    between atoms: C_19  and  O_26
REMARK    6  A    between atoms: C_28  and  C_30
REMARK    7  A    between atoms: C_30  and  C_31
REMARK    8  A    between atoms: C_31  and  C_33
REMARK    9  A    between atoms: C_33  and  O_34
REMARK                            x       y       z     vdW  Elec       q    Type
REMARK                         _______ _______ _______ _____ _____    ______ ____
ROOT
ATOM      1  C   UNL     1     -39.738  25.012   1.689  0.00  0.00    +0.025 C 
ATOM      2  C   UNL     1     -39.270  23.548   1.506  0.00  0.00    +0.005 C 
ATOM      3  C   UNL     1     -37.742  23.389   1.564  0.00  0.00    +0.027 C 
ATOM      4  C   UNL     1     -37.221  23.915   2.947  0.00  0.00    +0.007 C 
ATOM      5  C   UNL     1     -35.645  23.800   3.070  0.00  0.00    +0.025 C 
ATOM      6  C   UNL     1     -41.262  24.801   1.488  0.00  0.00    +0.002 C 
ATOM      7  C   UNL     1     -39.291  25.494   3.083  0.00  0.00    +0.110 C 
ATOM      8  C   UNL     1     -35.228  22.308   2.816  0.00  0.00    +0.007 C 
ATOM      9  C   UNL     1     -37.767  25.340   3.264  0.00  0.00    +0.029 C 
ATOM     10  C   UNL     1     -37.285  21.942   1.286  0.00  0.00    +0.110 C 
ATOM     11  C   UNL     1     -39.996  23.096   0.238  0.00  0.00    +0.000 C 
ATOM     12  C   UNL     1     -41.344  23.835   0.284  0.00  0.00    +0.000 C 
ATOM     13  C   UNL     1     -35.778  21.763   1.481  0.00  0.00    +0.029 C 
ATOM     14  C   UNL     1     -35.131  24.248   4.484  0.00  0.00    +0.113 C 
ATOM     15  C   UNL     1     -39.176  25.986   0.617  0.00  0.00    +0.002 C 
ATOM     16  C   UNL     1     -35.596  21.375   3.990  0.00  0.00    +0.029 C 
ATOM     17  C   UNL     1     -34.943  24.706   2.020  0.00  0.00    +0.002 C 
ATOM     18  C   UNL     1     -35.521  23.296   5.612  0.00  0.00    +0.058 C 
ATOM     19  C   UNL     1     -35.065  21.867   5.332  0.00  0.00    +0.113 C 
ENDROOT
BRANCH   7  20
ATOM     20  O   UNL     1     -39.920  24.752   4.126  0.00  0.00    -0.384 OA
ATOM     21  H   UNL     1     -39.540  23.860   4.163  0.00  0.00    +0.210 HD
ENDBRANCH   7  20
BRANCH  10  22
ATOM     22  O   UNL     1     -37.968  21.004   2.110  0.00  0.00    -0.384 OA
ATOM     23  H   UNL     1     -37.616  20.115   1.949  0.00  0.00    +0.210 HD
ENDBRANCH  10  22
BRANCH  14  24
ATOM     24  O   UNL     1     -33.705  24.397   4.500  0.00  0.00    -0.384 OA
ATOM     25  H   UNL     1     -33.479  25.338   4.563  0.00  0.00    +0.210 HD
ENDBRANCH  14  24
BRANCH  19  26
ATOM     26  O   UNL     1     -35.555  21.027   6.375  0.00  0.00    -0.384 OA
ATOM     27  H   UNL     1     -35.182  21.314   7.223  0.00  0.00    +0.210 HD
ENDBRANCH  19  26
BRANCH   6  28
ATOM     28  C   UNL     1     -42.100  26.058   1.300  0.00  0.00    +0.001 C 
ATOM     29  C   UNL     1     -42.511  26.623   2.665  0.00  0.00    +0.000 C 
BRANCH  28  30
ATOM     30  C   UNL     1     -43.323  25.753   0.410  0.00  0.00    +0.012 C 
BRANCH  30  31
ATOM     31  C   UNL     1     -44.655  25.786   1.160  0.00  0.00    +0.109 C 
BRANCH  31  33
ATOM     32  O   UNL     1     -44.938  23.403   0.750  0.00  0.00    -0.250 OA
ATOM     33  C   UNL     1     -45.193  24.396   1.415  0.00  0.00    +0.314 C 
BRANCH  33  34
ATOM     34  O   UNL     1     -46.021  24.375   2.493  0.00  0.00    -0.480 OA
ATOM     35  H   UNL     1     -46.943  24.258   2.372  0.00  0.00    +0.295 HD
ENDBRANCH  33  34
ENDBRANCH  31  33
ENDBRANCH  30  31
ENDBRANCH  28  30
ENDBRANCH   6  28
TORSDOF 9
ENDMDL
MODEL 2
REMARK VINA RESULT:      -6.5      3.506      7.560
REMARK  Name = 5283893
REMARK  9 active torsions:
REMARK  status: ('A' for Active; 'I' for Inactive)
REMARK    1  A    between atoms: C_6  and  C_28
REMARK    2  A    between atoms: C_7  and  O_20
REMARK    3  A    between atoms: C_10  and  O_22
REMARK    4  A    between atoms: C_14  and  O_24
REMARK    5  A    between atoms: C_19  and  O_26
REMARK    6  A    between atoms: C_28  and  C_30
REMARK    7  A    between atoms: C_30  and  C_31
REMARK    8  A    between atoms: C_31  and  C_33
REMARK    9  A    between atoms: C_33  and  O_34
REMARK                            x       y       z     vdW  Elec       q    Type
REMARK                         _______ _______ _______ _____ _____    ______ ____
ROOT
ATOM      1  C   UNL     1     -36.093  22.083   2.331  0.00  0.00    +0.025 C 
ATOM      2  C   UNL     1     -37.489  22.340   1.715  0.00  0.00    +0.005 C 
ATOM      3  C   UNL     1     -37.561  22.006   0.215  0.00  0.00    +0.027 C 
ATOM      4  C   UNL     1     -37.186  20.498   0.004  0.00  0.00    +0.007 C 
ATOM      5  C   UNL     1     -37.219  20.087  -1.526  0.00  0.00    +0.025 C 
ATOM      6  C   UNL     1     -36.370  22.596   3.769  0.00  0.00    +0.002 C 
ATOM      7  C   UNL     1     -35.768  20.582   2.190  0.00  0.00    +0.110 C 
ATOM      8  C   UNL     1     -38.636  20.426  -2.108  0.00  0.00    +0.007 C 
ATOM      9  C   UNL     1     -35.851  20.130   0.719  0.00  0.00    +0.029 C 
ATOM     10  C   UNL     1     -38.928  22.356  -0.406  0.00  0.00    +0.110 C 
ATOM     11  C   UNL     1     -37.818  23.767   2.154  0.00  0.00    +0.000 C 
ATOM     12  C   UNL     1     -37.175  23.897   3.546  0.00  0.00    +0.000 C 
ATOM     13  C   UNL     1     -39.038  21.896  -1.862  0.00  0.00    +0.029 C 
ATOM     14  C   UNL     1     -36.926  18.559  -1.732  0.00  0.00    +0.113 C 
ATOM     15  C   UNL     1     -34.956  22.906   1.666  0.00  0.00    +0.002 C 
ATOM     16  C   UNL     1     -39.735  19.461  -1.612  0.00  0.00    +0.029 C 
ATOM     17  C   UNL     1     -36.143  20.871  -2.330  0.00  0.00    +0.002 C 
ATOM     18  C   UNL     1     -38.039  17.645  -1.224  0.00  0.00    +0.058 C 
ATOM     19  C   UNL     1     -39.389  17.994  -1.843  0.00  0.00    +0.113 C 
ENDROOT
BRANCH   7  20
ATOM     20  O   UNL     1     -36.677  19.772   2.935  0.00  0.00    -0.384 OA
ATOM     21  H   UNL     1     -36.965  20.254   3.727  0.00  0.00    +0.210 HD
ENDBRANCH   7  20
BRANCH  10  22
ATOM     22  O   UNL     1     -40.005  21.793   0.334  0.00  0.00    -0.384 OA
ATOM     23  H   UNL     1     -40.063  20.842   0.150  0.00  0.00    +0.210 HD
ENDBRANCH  10  22
BRANCH  14  24
ATOM     24  O   UNL     1     -36.693  18.251  -3.113  0.00  0.00    -0.384 OA
ATOM     25  H   UNL     1     -36.855  19.040  -3.652  0.00  0.00    +0.210 HD
ENDBRANCH  14  24
BRANCH  19  26
ATOM     26  O   UNL     1     -40.385  17.169  -1.243  0.00  0.00    -0.384 OA
ATOM     27  H   UNL     1     -41.139  17.717  -0.975  0.00  0.00    +0.210 HD
ENDBRANCH  19  26
BRANCH   6  28
ATOM     28  C   UNL     1     -35.154  22.796   4.662  0.00  0.00    +0.001 C 
ATOM     29  C   UNL     1     -35.133  21.732   5.765  0.00  0.00    +0.000 C 
BRANCH  28  30
ATOM     30  C   UNL     1     -35.147  24.226   5.239  0.00  0.00    +0.012 C 
BRANCH  30  31
ATOM     31  C   UNL     1     -33.992  25.091   4.731  0.00  0.00    +0.109 C 
BRANCH  31  33
ATOM     32  O   UNL     1     -33.383  27.353   5.396  0.00  0.00    -0.250 OA
ATOM     33  C   UNL     1     -34.226  26.560   5.002  0.00  0.00    +0.314 C 
BRANCH  33  34
ATOM     34  O   UNL     1     -35.517  26.909   4.758  0.00  0.00    -0.480 OA
ATOM     35  H   UNL     1     -36.010  27.364   5.412  0.00  0.00    +0.295 HD
ENDBRANCH  33  34
ENDBRANCH  31  33
ENDBRANCH  30  31
ENDBRANCH  28  30
ENDBRANCH   6  28
TORSDOF 9
ENDMDL
MODEL 3
REMARK VINA RESULT:      -6.5      3.553      7.280
REMARK  Name = 5283893
REMARK  9 active torsions:
REMARK  status: ('A' for Active; 'I' for Inactive)
REMARK    1  A    between atoms: C_6  and  C_28
REMARK    2  A    between atoms: C_7  and  O_20
REMARK    3  A    between atoms: C_10  and  O_22
REMARK    4  A    between atoms: C_14  and  O_24
REMARK    5  A    between atoms: C_19  and  O_26
REMARK    6  A    between atoms: C_28  and  C_30
REMARK    7  A    between atoms: C_30  and  C_31
REMARK    8  A    between atoms: C_31  and  C_33
REMARK    9  A    between atoms: C_33  and  O_34
REMARK                            x       y       z     vdW  Elec       q    Type
REMARK                         _______ _______ _______ _____ _____    ______ ____
ROOT
ATOM      1  C   UNL     1     -36.148  22.508   2.471  0.00  0.00    +0.025 C 
ATOM      2  C   UNL     1     -37.534  22.186   1.863  0.00  0.00    +0.005 C 
ATOM      3  C   UNL     1     -37.454  21.629   0.432  0.00  0.00    +0.027 C 
ATOM      4  C   UNL     1     -36.588  20.321   0.435  0.00  0.00    +0.007 C 
ATOM      5  C   UNL     1     -36.445  19.701  -1.016  0.00  0.00    +0.025 C 
ATOM      6  C   UNL     1     -36.615  23.106   3.824  0.00  0.00    +0.002 C 
ATOM      7  C   UNL     1     -35.333  21.201   2.544  0.00  0.00    +0.110 C 
ATOM      8  C   UNL     1     -37.880  19.453  -1.601  0.00  0.00    +0.007 C 
ATOM      9  C   UNL     1     -35.224  20.534   1.158  0.00  0.00    +0.029 C 
ATOM     10  C   UNL     1     -38.844  21.402  -0.195  0.00  0.00    +0.110 C 
ATOM     11  C   UNL     1     -38.334  23.468   2.096  0.00  0.00    +0.000 C 
ATOM     12  C   UNL     1     -37.805  24.012   3.435  0.00  0.00    +0.000 C 
ATOM     13  C   UNL     1     -38.758  20.721  -1.563  0.00  0.00    +0.029 C 
ATOM     14  C   UNL     1     -35.650  18.347  -1.002  0.00  0.00    +0.113 C 
ATOM     15  C   UNL     1     -35.339  23.558   1.660  0.00  0.00    +0.002 C 
ATOM     16  C   UNL     1     -38.601  18.260  -0.937  0.00  0.00    +0.029 C 
ATOM     17  C   UNL     1     -35.677  20.672  -1.957  0.00  0.00    +0.002 C 
ATOM     18  C   UNL     1     -36.402  17.199  -0.333  0.00  0.00    +0.058 C 
ATOM     19  C   UNL     1     -37.775  16.977  -0.959  0.00  0.00    +0.113 C 
ENDROOT
BRANCH   7  20
ATOM     20  O   UNL     1     -35.933  20.253   3.426  0.00  0.00    -0.384 OA
ATOM     21  H   UNL     1     -35.932  19.377   3.008  0.00  0.00    +0.210 HD
ENDBRANCH   7  20
BRANCH  10  22
ATOM     22  O   UNL     1     -39.686  20.627   0.651  0.00  0.00    -0.384 OA
ATOM     23  H   UNL     1     -39.400  20.728   1.572  0.00  0.00    +0.210 HD
ENDBRANCH  10  22
BRANCH  14  24
ATOM     24  O   UNL     1     -35.295  17.934  -2.328  0.00  0.00    -0.384 OA
ATOM     25  H   UNL     1     -36.082  17.598  -2.784  0.00  0.00    +0.210 HD
ENDBRANCH  14  24
BRANCH  19  26
ATOM     26  O   UNL     1     -38.449  15.964  -0.216  0.00  0.00    -0.384 OA
ATOM     27  H   UNL     1     -37.796  15.390   0.214  0.00  0.00    +0.210 HD
ENDBRANCH  19  26
BRANCH   6  28
ATOM     28  C   UNL     1     -35.558  23.834   4.643  0.00  0.00    +0.001 C 
ATOM     29  C   UNL     1     -35.148  22.980   5.848  0.00  0.00    +0.000 C 
BRANCH  28  30
ATOM     30  C   UNL     1     -36.078  25.222   5.070  0.00  0.00    +0.012 C 
BRANCH  30  31
ATOM     31  C   UNL     1     -35.260  26.386   4.507  0.00  0.00    +0.109 C 
BRANCH  31  33
ATOM     32  O   UNL     1     -33.640  26.667   6.302  0.00  0.00    -0.250 OA
ATOM     33  C   UNL     1     -33.882  26.456   5.123  0.00  0.00    +0.314 C 
BRANCH  33  34
ATOM     34  O   UNL     1     -32.912  26.259   4.191  0.00  0.00    -0.480 OA
ATOM     35  H   UNL     1     -33.130  26.268   3.279  0.00  0.00    +0.295 HD
ENDBRANCH  33  34
ENDBRANCH  31  33
ENDBRANCH  30  31
ENDBRANCH  28  30
ENDBRANCH   6  28
TORSDOF 9
ENDMDL
MODEL 4
REMARK VINA RESULT:      -6.4      1.826      2.335
REMARK  Name = 5283893
REMARK  9 active torsions:
REMARK  status: ('A' for Active; 'I' for Inactive)
REMARK    1  A    between atoms: C_6  and  C_28
REMARK    2  A    between atoms: C_7  and  O_20
REMARK    3  A    between atoms: C_10  and  O_22
REMARK    4  A    between atoms: C_14  and  O_24
REMARK    5  A    between atoms: C_19  and  O_26
REMARK    6  A    between atoms: C_28  and  C_30
REMARK    7  A    between atoms: C_30  and  C_31
REMARK    8  A    between atoms: C_31  and  C_33
REMARK    9  A    between atoms: C_33  and  O_34
REMARK                            x       y       z     vdW  Elec       q    Type
REMARK                         _______ _______ _______ _____ _____    ______ ____
ROOT
ATOM      1  C   UNL     1     -39.681  25.356   1.742  0.00  0.00    +0.025 C 
ATOM      2  C   UNL     1     -39.196  23.926   1.401  0.00  0.00    +0.005 C 
ATOM      3  C   UNL     1     -37.668  23.772   1.471  0.00  0.00    +0.027 C 
ATOM      4  C   UNL     1     -37.179  24.139   2.915  0.00  0.00    +0.007 C 
ATOM      5  C   UNL     1     -35.604  24.021   3.056  0.00  0.00    +0.025 C 
ATOM      6  C   UNL     1     -41.199  25.158   1.488  0.00  0.00    +0.002 C 
ATOM      7  C   UNL     1     -39.265  25.677   3.191  0.00  0.00    +0.110 C 
ATOM      8  C   UNL     1     -35.168  22.572   2.641  0.00  0.00    +0.007 C 
ATOM      9  C   UNL     1     -37.744  25.514   3.383  0.00  0.00    +0.029 C 
ATOM     10  C   UNL     1     -37.192  22.370   1.038  0.00  0.00    +0.110 C 
ATOM     11  C   UNL     1     -39.893  23.618   0.076  0.00  0.00    +0.000 C 
ATOM     12  C   UNL     1     -41.249  24.338   0.179  0.00  0.00    +0.000 C 
ATOM     13  C   UNL     1     -35.687  22.180   1.241  0.00  0.00    +0.029 C 
ATOM     14  C   UNL     1     -35.121  24.307   4.522  0.00  0.00    +0.113 C 
ATOM     15  C   UNL     1     -39.107  26.451   0.801  0.00  0.00    +0.002 C 
ATOM     16  C   UNL     1     -35.550  21.507   3.691  0.00  0.00    +0.029 C 
ATOM     17  C   UNL     1     -34.890  25.048   2.132  0.00  0.00    +0.002 C 
ATOM     18  C   UNL     1     -35.524  23.228   5.525  0.00  0.00    +0.058 C 
ATOM     19  C   UNL     1     -35.050  21.845   5.092  0.00  0.00    +0.113 C 
ENDROOT
BRANCH   7  20
ATOM     20  O   UNL     1     -39.907  24.815   4.129  0.00  0.00    -0.384 OA
ATOM     21  H   UNL     1     -40.637  25.290   4.557  0.00  0.00    +0.210 HD
ENDBRANCH   7  20
BRANCH  10  22
ATOM     22  O   UNL     1     -37.882  21.338   1.734  0.00  0.00    -0.384 OA
ATOM     23  H   UNL     1     -37.273  20.899   2.348  0.00  0.00    +0.210 HD
ENDBRANCH  10  22
BRANCH  14  24
ATOM     24  O   UNL     1     -33.697  24.463   4.584  0.00  0.00    -0.384 OA
ATOM     25  H   UNL     1     -33.303  23.676   4.989  0.00  0.00    +0.210 HD
ENDBRANCH  14  24
BRANCH  19  26
ATOM     26  O   UNL     1     -35.551  20.886   6.021  0.00  0.00    -0.384 OA
ATOM     27  H   UNL     1     -35.201  20.009   5.801  0.00  0.00    +0.210 HD
ENDBRANCH  19  26
BRANCH   6  28
ATOM     28  C   UNL     1     -42.045  26.423   1.429  0.00  0.00    +0.001 C 
ATOM     29  C   UNL     1     -43.367  26.204   2.173  0.00  0.00    +0.000 C 
BRANCH  28  30
ATOM     30  C   UNL     1     -42.270  26.844  -0.038  0.00  0.00    +0.012 C 
BRANCH  30  31
ATOM     31  C   UNL     1     -42.704  28.302  -0.200  0.00  0.00    +0.109 C 
BRANCH  31  33
ATOM     32  O   UNL     1     -42.186  29.772   1.671  0.00  0.00    -0.250 OA
ATOM     33  C   UNL     1     -41.850  29.239   0.624  0.00  0.00    +0.314 C 
BRANCH  33  34
ATOM     34  O   UNL     1     -40.633  29.433   0.050  0.00  0.00    -0.480 OA
ATOM     35  H   UNL     1     -39.903  28.905   0.309  0.00  0.00    +0.295 HD
ENDBRANCH  33  34
ENDBRANCH  31  33
ENDBRANCH  30  31
ENDBRANCH  28  30
ENDBRANCH   6  28
TORSDOF 9
ENDMDL
MODEL 5
REMARK VINA RESULT:      -6.2      5.394      9.038
REMARK  Name = 5283893
REMARK  9 active torsions:
REMARK  status: ('A' for Active; 'I' for Inactive)
REMARK    1  A    between atoms: C_6  and  C_28
REMARK    2  A    between atoms: C_7  and  O_20
REMARK    3  A    between atoms: C_10  and  O_22
REMARK    4  A    between atoms: C_14  and  O_24
REMARK    5  A    between atoms: C_19  and  O_26
REMARK    6  A    between atoms: C_28  and  C_30
REMARK    7  A    between atoms: C_30  and  C_31
REMARK    8  A    between atoms: C_31  and  C_33
REMARK    9  A    between atoms: C_33  and  O_34
REMARK                            x       y       z     vdW  Elec       q    Type
REMARK                         _______ _______ _______ _____ _____    ______ ____
ROOT
ATOM      1  C   UNL     1     -34.073  26.814   3.625  0.00  0.00    +0.025 C 
ATOM      2  C   UNL     1     -33.382  27.625   4.748  0.00  0.00    +0.005 C 
ATOM      3  C   UNL     1     -32.029  28.219   4.322  0.00  0.00    +0.027 C 
ATOM      4  C   UNL     1     -32.245  29.156   3.082  0.00  0.00    +0.007 C 
ATOM      5  C   UNL     1     -30.884  29.790   2.574  0.00  0.00    +0.025 C 
ATOM      6  C   UNL     1     -35.310  26.316   4.418  0.00  0.00    +0.002 C 
ATOM      7  C   UNL     1     -34.353  27.762   2.442  0.00  0.00    +0.110 C 
ATOM      8  C   UNL     1     -30.204  30.546   3.769  0.00  0.00    +0.007 C 
ATOM      9  C   UNL     1     -33.059  28.447   1.958  0.00  0.00    +0.029 C 
ATOM     10  C   UNL     1     -31.309  28.944   5.477  0.00  0.00    +0.110 C 
ATOM     11  C   UNL     1     -33.409  26.675   5.945  0.00  0.00    +0.000 C 
ATOM     12  C   UNL     1     -34.725  25.893   5.785  0.00  0.00    +0.000 C 
ATOM     13  C   UNL     1     -30.033  29.648   5.013  0.00  0.00    +0.029 C 
ATOM     14  C   UNL     1     -31.109  30.793   1.387  0.00  0.00    +0.113 C 
ATOM     15  C   UNL     1     -33.231  25.611   3.115  0.00  0.00    +0.002 C 
ATOM     16  C   UNL     1     -30.923  31.864   4.132  0.00  0.00    +0.029 C 
ATOM     17  C   UNL     1     -29.919  28.684   2.062  0.00  0.00    +0.002 C 
ATOM     18  C   UNL     1     -31.825  32.078   1.794  0.00  0.00    +0.058 C 
ATOM     19  C   UNL     1     -31.108  32.792   2.936  0.00  0.00    +0.113 C 
ENDROOT
BRANCH   7  20
ATOM     20  O   UNL     1     -35.272  28.793   2.798  0.00  0.00    -0.384 OA
ATOM     21  H   UNL     1     -36.079  28.396   3.162  0.00  0.00    +0.210 HD
ENDBRANCH   7  20
BRANCH  10  22
ATOM     22  O   UNL     1     -32.154  29.897   6.112  0.00  0.00    -0.384 OA
ATOM     23  H   UNL     1     -31.929  30.788   5.799  0.00  0.00    +0.210 HD
ENDBRANCH  10  22
BRANCH  14  24
ATOM     24  O   UNL     1     -29.870  31.152   0.763  0.00  0.00    -0.384 OA
ATOM     25  H   UNL     1     -29.192  30.495   0.986  0.00  0.00    +0.210 HD
ENDBRANCH  14  24
BRANCH  19  26
ATOM     26  O   UNL     1     -31.890  33.919   3.323  0.00  0.00    -0.384 OA
ATOM     27  H   UNL     1     -32.813  33.778   3.060  0.00  0.00    +0.210 HD
ENDBRANCH  19  26
BRANCH   6  28
ATOM     28  C   UNL     1     -36.139  25.221   3.762  0.00  0.00    +0.001 C 
ATOM     29  C   UNL     1     -37.458  25.802   3.242  0.00  0.00    +0.000 C 
BRANCH  28  30
ATOM     30  C   UNL     1     -36.369  24.062   4.754  0.00  0.00    +0.012 C 
BRANCH  30  31
ATOM     31  C   UNL     1     -35.599  22.787   4.401  0.00  0.00    +0.109 C 
BRANCH  31  33
ATOM     32  O   UNL     1     -35.263  22.351   6.773  0.00  0.00    -0.250 OA
ATOM     33  C   UNL     1     -35.321  21.941   5.622  0.00  0.00    +0.314 C 
BRANCH  33  34
ATOM     34  O   UNL     1     -35.129  20.638   5.289  0.00  0.00    -0.480 OA
ATOM     35  H   UNL     1     -35.863  20.059   5.218  0.00  0.00    +0.295 HD
ENDBRANCH  33  34
ENDBRANCH  31  33
ENDBRANCH  30  31
ENDBRANCH  28  30
ENDBRANCH   6  28
TORSDOF 9
ENDMDL
MODEL 6
REMARK VINA RESULT:      -6.0      4.398      8.924
REMARK  Name = 5283893
REMARK  9 active torsions:
REMARK  status: ('A' for Active; 'I' for Inactive)
REMARK    1  A    between atoms: C_6  and  C_28
REMARK    2  A    between atoms: C_7  and  O_20
REMARK    3  A    between atoms: C_10  and  O_22
REMARK    4  A    between atoms: C_14  and  O_24
REMARK    5  A    between atoms: C_19  and  O_26
REMARK    6  A    between atoms: C_28  and  C_30
REMARK    7  A    between atoms: C_30  and  C_31
REMARK    8  A    between atoms: C_31  and  C_33
REMARK    9  A    between atoms: C_33  and  O_34
REMARK                            x       y       z     vdW  Elec       q    Type
REMARK                         _______ _______ _______ _____ _____    ______ ____
ROOT
ATOM      1  C   UNL     1     -33.387  26.875   3.590  0.00  0.00    +0.025 C 
ATOM      2  C   UNL     1     -33.857  25.675   4.447  0.00  0.00    +0.005 C 
ATOM      3  C   UNL     1     -35.024  24.899   3.814  0.00  0.00    +0.027 C 
ATOM      4  C   UNL     1     -34.588  24.371   2.404  0.00  0.00    +0.007 C 
ATOM      5  C   UNL     1     -35.753  23.575   1.682  0.00  0.00    +0.025 C 
ATOM      6  C   UNL     1     -32.307  27.443   4.548  0.00  0.00    +0.002 C 
ATOM      7  C   UNL     1     -32.885  26.337   2.234  0.00  0.00    +0.110 C 
ATOM      8  C   UNL     1     -36.227  22.412   2.623  0.00  0.00    +0.007 C 
ATOM      9  C   UNL     1     -33.973  25.504   1.528  0.00  0.00    +0.029 C 
ATOM     10  C   UNL     1     -35.545  23.766   4.722  0.00  0.00    +0.110 C 
ATOM     11  C   UNL     1     -34.061  26.284   5.834  0.00  0.00    +0.000 C 
ATOM     12  C   UNL     1     -32.976  27.370   5.940  0.00  0.00    +0.000 C 
ATOM     13  C   UNL     1     -36.611  22.914   4.031  0.00  0.00    +0.029 C 
ATOM     14  C   UNL     1     -35.292  22.974   0.307  0.00  0.00    +0.113 C 
ATOM     15  C   UNL     1     -34.497  27.930   3.330  0.00  0.00    +0.002 C 
ATOM     16  C   UNL     1     -35.208  21.255   2.706  0.00  0.00    +0.029 C 
ATOM     17  C   UNL     1     -36.960  24.511   1.390  0.00  0.00    +0.002 C 
ATOM     18  C   UNL     1     -34.283  21.836   0.440  0.00  0.00    +0.058 C 
ATOM     19  C   UNL     1     -34.804  20.717   1.337  0.00  0.00    +0.113 C 
ENDROOT
BRANCH   7  20
ATOM     20  O   UNL     1     -31.741  25.498   2.390  0.00  0.00    -0.384 OA
ATOM     21  H   UNL     1     -31.397  25.585   3.293  0.00  0.00    +0.210 HD
ENDBRANCH   7  20
BRANCH  10  22
ATOM     22  O   UNL     1     -34.492  22.915   5.162  0.00  0.00    -0.384 OA
ATOM     23  H   UNL     1     -34.098  23.279   5.970  0.00  0.00    +0.210 HD
ENDBRANCH  10  22
BRANCH  14  24
ATOM     24  O   UNL     1     -36.407  22.494  -0.456  0.00  0.00    -0.384 OA
ATOM     25  H   UNL     1     -37.216  22.942  -0.163  0.00  0.00    +0.210 HD
ENDBRANCH  14  24
BRANCH  19  26
ATOM     26  O   UNL     1     -33.770  19.748   1.492  0.00  0.00    -0.384 OA
ATOM     27  H   UNL     1     -33.165  20.031   2.196  0.00  0.00    +0.210 HD
ENDBRANCH  19  26
BRANCH   6  28
ATOM     28  C   UNL     1     -31.772  28.829   4.219  0.00  0.00    +0.001 C 
ATOM     29  C   UNL     1     -30.543  28.714   3.309  0.00  0.00    +0.000 C 
BRANCH  28  30
ATOM     30  C   UNL     1     -31.458  29.601   5.517  0.00  0.00    +0.012 C 
BRANCH  30  31
ATOM     31  C   UNL     1     -29.961  29.773   5.785  0.00  0.00    +0.109 C 
BRANCH  31  33
ATOM     32  O   UNL     1     -29.271  27.538   6.463  0.00  0.00    -0.250 OA
ATOM     33  C   UNL     1     -29.434  28.720   6.733  0.00  0.00    +0.314 C 
BRANCH  33  34
ATOM     34  O   UNL     1     -29.161  29.246   7.956  0.00  0.00    -0.480 OA
ATOM     35  H   UNL     1     -28.450  29.848   8.059  0.00  0.00    +0.295 HD
ENDBRANCH  33  34
ENDBRANCH  31  33
ENDBRANCH  30  31
ENDBRANCH  28  30
ENDBRANCH   6  28
TORSDOF 9
ENDMDL
MODEL 7
REMARK VINA RESULT:      -5.9      2.364      3.212
REMARK  Name = 5283893
REMARK  9 active torsions:
REMARK  status: ('A' for Active; 'I' for Inactive)
REMARK    1  A    between atoms: C_6  and  C_28
REMARK    2  A    between atoms: C_7  and  O_20
REMARK    3  A    between atoms: C_10  and  O_22
REMARK    4  A    between atoms: C_14  and  O_24
REMARK    5  A    between atoms: C_19  and  O_26
REMARK    6  A    between atoms: C_28  and  C_30
REMARK    7  A    between atoms: C_30  and  C_31
REMARK    8  A    between atoms: C_31  and  C_33
REMARK    9  A    between atoms: C_33  and  O_34
REMARK                            x       y       z     vdW  Elec       q    Type
REMARK                         _______ _______ _______ _____ _____    ______ ____
ROOT
ATOM      1  C   UNL     1     -39.412  22.290  -0.088  0.00  0.00    +0.025 C 
ATOM      2  C   UNL     1     -38.590  21.120   0.503  0.00  0.00    +0.005 C 
ATOM      3  C   UNL     1     -37.154  21.519   0.882  0.00  0.00    +0.027 C 
ATOM      4  C   UNL     1     -37.202  22.684   1.931  0.00  0.00    +0.007 C 
ATOM      5  C   UNL     1     -35.750  23.161   2.354  0.00  0.00    +0.025 C 
ATOM      6  C   UNL     1     -40.718  21.520  -0.419  0.00  0.00    +0.002 C 
ATOM      7  C   UNL     1     -39.521  23.397   0.980  0.00  0.00    +0.110 C 
ATOM      8  C   UNL     1     -34.948  21.923   2.888  0.00  0.00    +0.007 C 
ATOM      9  C   UNL     1     -38.127  23.846   1.462  0.00  0.00    +0.029 C 
ATOM     10  C   UNL     1     -36.318  20.324   1.380  0.00  0.00    +0.110 C 
ATOM     11  C   UNL     1     -38.784  19.996  -0.514  0.00  0.00    +0.000 C 
ATOM     12  C   UNL     1     -40.216  20.196  -1.039  0.00  0.00    +0.000 C 
ATOM     13  C   UNL     1     -34.937  20.751   1.883  0.00  0.00    +0.029 C 
ATOM     14  C   UNL     1     -35.796  24.268   3.466  0.00  0.00    +0.113 C 
ATOM     15  C   UNL     1     -38.795  22.898  -1.378  0.00  0.00    +0.002 C 
ATOM     16  C   UNL     1     -35.425  21.454   4.280  0.00  0.00    +0.029 C 
ATOM     17  C   UNL     1     -34.994  23.766   1.137  0.00  0.00    +0.002 C 
ATOM     18  C   UNL     1     -36.275  23.758   4.823  0.00  0.00    +0.058 C 
ATOM     19  C   UNL     1     -35.444  22.577   5.313  0.00  0.00    +0.113 C 
ENDROOT
BRANCH   7  20
ATOM     20  O   UNL     1     -40.245  22.954   2.127  0.00  0.00    -0.384 OA
ATOM     21  H   UNL     1     -39.866  23.356   2.924  0.00  0.00    +0.210 HD
ENDBRANCH   7  20
BRANCH  10  22
ATOM     22  O   UNL     1     -36.982  19.609   2.417  0.00  0.00    -0.384 OA
ATOM     23  H   UNL     1     -36.632  18.706   2.463  0.00  0.00    +0.210 HD
ENDBRANCH  10  22
BRANCH  14  24
ATOM     24  O   UNL     1     -34.513  24.881   3.649  0.00  0.00    -0.384 OA
ATOM     25  H   UNL     1     -34.629  25.772   4.012  0.00  0.00    +0.210 HD
ENDBRANCH  14  24
BRANCH  19  26
ATOM     26  O   UNL     1     -36.016  22.097   6.527  0.00  0.00    -0.384 OA
ATOM     27  H   UNL     1     -35.318  21.989   7.192  0.00  0.00    +0.210 HD
ENDBRANCH  19  26
BRANCH   6  28
ATOM     28  C   UNL     1     -41.726  22.244  -1.300  0.00  0.00    +0.001 C 
ATOM     29  C   UNL     1     -42.507  23.269  -0.470  0.00  0.00    +0.000 C 
BRANCH  28  30
ATOM     30  C   UNL     1     -42.658  21.226  -1.988  0.00  0.00    +0.012 C 
BRANCH  30  31
ATOM     31  C   UNL     1     -43.939  20.935  -1.203  0.00  0.00    +0.109 C 
BRANCH  31  33
ATOM     32  O   UNL     1     -44.181  18.512  -1.232  0.00  0.00    -0.250 OA
ATOM     33  C   UNL     1     -43.936  19.541  -0.618  0.00  0.00    +0.314 C 
BRANCH  33  34
ATOM     34  O   UNL     1     -43.629  19.559   0.705  0.00  0.00    -0.480 OA
ATOM     35  H   UNL     1     -44.309  19.482   1.345  0.00  0.00    +0.295 HD
ENDBRANCH  33  34
ENDBRANCH  31  33
ENDBRANCH  30  31
ENDBRANCH  28  30
ENDBRANCH   6  28
TORSDOF 9
ENDMDL
MODEL 8
REMARK VINA RESULT:      -5.8      2.324      3.914
REMARK  Name = 5283893
REMARK  9 active torsions:
REMARK  status: ('A' for Active; 'I' for Inactive)
REMARK    1  A    between atoms: C_6  and  C_28
REMARK    2  A    between atoms: C_7  and  O_20
REMARK    3  A    between atoms: C_10  and  O_22
REMARK    4  A    between atoms: C_14  and  O_24
REMARK    5  A    between atoms: C_19  and  O_26
REMARK    6  A    between atoms: C_28  and  C_30
REMARK    7  A    between atoms: C_30  and  C_31
REMARK    8  A    between atoms: C_31  and  C_33
REMARK    9  A    between atoms: C_33  and  O_34
REMARK                            x       y       z     vdW  Elec       q    Type
REMARK                         _______ _______ _______ _____ _____    ______ ____
ROOT
ATOM      1  C   UNL     1     -39.830  24.509   1.851  0.00  0.00    +0.025 C 
ATOM      2  C   UNL     1     -38.540  24.993   1.146  0.00  0.00    +0.005 C 
ATOM      3  C   UNL     1     -37.258  24.403   1.757  0.00  0.00    +0.027 C 
ATOM      4  C   UNL     1     -37.321  22.838   1.676  0.00  0.00    +0.007 C 
ATOM      5  C   UNL     1     -36.036  22.159   2.308  0.00  0.00    +0.025 C 
ATOM      6  C   UNL     1     -40.864  25.348   1.055  0.00  0.00    +0.002 C 
ATOM      7  C   UNL     1     -39.924  22.978   1.697  0.00  0.00    +0.110 C 
ATOM      8  C   UNL     1     -34.761  22.731   1.594  0.00  0.00    +0.007 C 
ATOM      9  C   UNL     1     -38.661  22.284   2.246  0.00  0.00    +0.029 C 
ATOM     10  C   UNL     1     -35.977  24.965   1.108  0.00  0.00    +0.110 C 
ATOM     11  C   UNL     1     -38.694  26.514   1.120  0.00  0.00    +0.000 C 
ATOM     12  C   UNL     1     -40.207  26.742   0.953  0.00  0.00    +0.000 C 
ATOM     13  C   UNL     1     -34.714  24.274   1.624  0.00  0.00    +0.029 C 
ATOM     14  C   UNL     1     -36.058  20.597   2.152  0.00  0.00    +0.113 C 
ATOM     15  C   UNL     1     -39.886  24.865   3.363  0.00  0.00    +0.002 C 
ATOM     16  C   UNL     1     -34.589  22.200   0.155  0.00  0.00    +0.029 C 
ATOM     17  C   UNL     1     -35.944  22.465   3.829  0.00  0.00    +0.002 C 
ATOM     18  C   UNL     1     -35.888  20.119   0.712  0.00  0.00    +0.058 C 
ATOM     19  C   UNL     1     -34.619  20.677   0.075  0.00  0.00    +0.113 C 
ENDROOT
BRANCH   7  20
ATOM     20  O   UNL     1     -40.060  22.593   0.329  0.00  0.00    -0.384 OA
ATOM     21  H   UNL     1     -40.301  21.654   0.281  0.00  0.00    +0.210 HD
ENDBRANCH   7  20
BRANCH  10  22
ATOM     22  O   UNL     1     -36.012  24.856  -0.311  0.00  0.00    -0.384 OA
ATOM     23  H   UNL     1     -35.800  25.716  -0.707  0.00  0.00    +0.210 HD
ENDBRANCH  10  22
BRANCH  14  24
ATOM     24  O   UNL     1     -35.043  19.975   2.951  0.00  0.00    -0.384 OA
ATOM     25  H   UNL     1     -34.572  19.316   2.419  0.00  0.00    +0.210 HD
ENDBRANCH  14  24
BRANCH  19  26
ATOM     26  O   UNL     1     -34.586  20.271  -1.292  0.00  0.00    -0.384 OA
ATOM     27  H   UNL     1     -35.306  19.643  -1.460  0.00  0.00    +0.210 HD
ENDBRANCH  19  26
BRANCH   6  28
ATOM     28  C   UNL     1     -42.276  25.397   1.622  0.00  0.00    +0.001 C 
ATOM     29  C   UNL     1     -43.255  24.728   0.650  0.00  0.00    +0.000 C 
BRANCH  28  30
ATOM     30  C   UNL     1     -42.674  26.855   1.931  0.00  0.00    +0.012 C 
BRANCH  30  31
ATOM     31  C   UNL     1     -43.244  27.053   3.337  0.00  0.00    +0.109 C 
BRANCH  31  33
ATOM     32  O   UNL     1     -43.004  29.272   4.310  0.00  0.00    -0.250 OA
ATOM     33  C   UNL     1     -42.539  28.166   4.079  0.00  0.00    +0.314 C 
BRANCH  33  34
ATOM     34  O   UNL     1     -41.291  27.791   4.465  0.00  0.00    -0.480 OA
ATOM     35  H   UNL     1     -41.123  26.900   4.705  0.00  0.00    +0.295 HD
ENDBRANCH  33  34
ENDBRANCH  31  33
ENDBRANCH  30  31
ENDBRANCH  28  30
ENDBRANCH   6  28
TORSDOF 9
ENDMDL
MODEL 9
REMARK VINA RESULT:      -5.8      3.894      6.812
REMARK  Name = 5283893
REMARK  9 active torsions:
REMARK  status: ('A' for Active; 'I' for Inactive)
REMARK    1  A    between atoms: C_6  and  C_28
REMARK    2  A    between atoms: C_7  and  O_20
REMARK    3  A    between atoms: C_10  and  O_22
REMARK    4  A    between atoms: C_14  and  O_24
REMARK    5  A    between atoms: C_19  and  O_26
REMARK    6  A    between atoms: C_28  and  C_30
REMARK    7  A    between atoms: C_30  and  C_31
REMARK    8  A    between atoms: C_31  and  C_33
REMARK    9  A    between atoms: C_33  and  O_34
REMARK                            x       y       z     vdW  Elec       q    Type
REMARK                         _______ _______ _______ _____ _____    ______ ____
ROOT
ATOM      1  C   UNL     1     -35.884  22.204   2.097  0.00  0.00    +0.025 C 
ATOM      2  C   UNL     1     -37.116  21.579   1.400  0.00  0.00    +0.005 C 
ATOM      3  C   UNL     1     -36.794  20.984   0.019  0.00  0.00    +0.027 C 
ATOM      4  C   UNL     1     -35.691  19.881   0.178  0.00  0.00    +0.007 C 
ATOM      5  C   UNL     1     -35.294  19.234  -1.214  0.00  0.00    +0.025 C 
ATOM      6  C   UNL     1     -36.584  22.758   3.366  0.00  0.00    +0.002 C 
ATOM      7  C   UNL     1     -34.837  21.094   2.321  0.00  0.00    +0.110 C 
ATOM      8  C   UNL     1     -36.590  18.673  -1.897  0.00  0.00    +0.007 C 
ATOM      9  C   UNL     1     -34.469  20.399   0.995  0.00  0.00    +0.029 C 
ATOM     10  C   UNL     1     -38.047  20.450  -0.704  0.00  0.00    +0.110 C 
ATOM     11  C   UNL     1     -38.172  22.682   1.484  0.00  0.00    +0.000 C 
ATOM     12  C   UNL     1     -37.888  23.384   2.823  0.00  0.00    +0.000 C 
ATOM     13  C   UNL     1     -37.702  19.738  -2.013  0.00  0.00    +0.029 C 
ATOM     14  C   UNL     1     -34.251  18.072  -1.047  0.00  0.00    +0.113 C 
ATOM     15  C   UNL     1     -35.226  23.357   1.289  0.00  0.00    +0.002 C 
ATOM     16  C   UNL     1     -37.119  17.392  -1.218  0.00  0.00    +0.029 C 
ATOM     17  C   UNL     1     -34.649  20.296  -2.149  0.00  0.00    +0.002 C 
ATOM     18  C   UNL     1     -34.819  16.828  -0.369  0.00  0.00    +0.058 C 
ATOM     19  C   UNL     1     -36.058  16.303  -1.089  0.00  0.00    +0.113 C 
ENDROOT
BRANCH   7  20
ATOM     20  O   UNL     1     -35.317  20.087   3.210  0.00  0.00    -0.384 OA
ATOM     21  H   UNL     1     -36.090  20.422   3.691  0.00  0.00    +0.210 HD
ENDBRANCH   7  20
BRANCH  10  22
ATOM     22  O   UNL     1     -38.794  19.561   0.119  0.00  0.00    -0.384 OA
ATOM     23  H   UNL     1     -38.368  19.489   0.988  0.00  0.00    +0.210 HD
ENDBRANCH  10  22
BRANCH  14  24
ATOM     24  O   UNL     1     -33.699  17.678  -2.310  0.00  0.00    -0.384 OA
ATOM     25  H   UNL     1     -32.731  17.690  -2.257  0.00  0.00    +0.210 HD
ENDBRANCH  14  24
BRANCH  19  26
ATOM     26  O   UNL     1     -36.584  15.211  -0.340  0.00  0.00    -0.384 OA
ATOM     27  H   UNL     1     -35.854  14.688   0.026  0.00  0.00    +0.210 HD
ENDBRANCH  19  26
BRANCH   6  28
ATOM     28  C   UNL     1     -35.772  23.722   4.220  0.00  0.00    +0.001 C 
ATOM     29  C   UNL     1     -35.432  23.072   5.566  0.00  0.00    +0.000 C 
BRANCH  28  30
ATOM     30  C   UNL     1     -36.539  25.049   4.398  0.00  0.00    +0.012 C 
BRANCH  30  31
ATOM     31  C   UNL     1     -35.768  26.277   3.909  0.00  0.00    +0.109 C 
BRANCH  31  33
ATOM     32  O   UNL     1     -35.530  26.935   1.576  0.00  0.00    -0.250 OA
ATOM     33  C   UNL     1     -36.243  26.736   2.549  0.00  0.00    +0.314 C 
BRANCH  33  34
ATOM     34  O   UNL     1     -37.590  26.914   2.529  0.00  0.00    -0.480 OA
ATOM     35  H   UNL     1     -38.118  26.431   1.924  0.00  0.00    +0.295 HD
ENDBRANCH  33  34
ENDBRANCH  31  33
ENDBRANCH  30  31
ENDBRANCH  28  30
ENDBRANCH   6  28
TORSDOF 9
ENDMDL
