MODEL 1
REMARK VINA RESULT:      -5.3      0.000      0.000
REMARK  Name = 5283120
REMARK  17 active torsions:
REMARK  status: ('A' for Active; 'I' for Inactive)
REMARK    1  A    between atoms: C_2  and  C_19
REMARK    2  A    between atoms: C_3  and  C_9
REMARK    3  A    between atoms: C_4  and  O_7
REMARK    4  A    between atoms: C_10  and  C_11
REMARK    5  A    between atoms: C_11  and  O_12
REMARK    6  A    between atoms: C_11  and  C_14
REMARK    7  A    between atoms: C_14  and  C_15
REMARK    8  A    between atoms: C_15  and  C_16
REMARK    9  A    between atoms: C_16  and  C_17
REMARK   10  A    between atoms: C_19  and  C_20
REMARK   11  A    between atoms: C_21  and  C_22
REMARK   12  A    between atoms: C_22  and  C_23
REMARK   13  A    between atoms: C_23  and  C_24
REMARK   14  A    between atoms: C_24  and  C_27
REMARK   15  A    between atoms: N_26  and  C_29
REMARK   16  A    between atoms: C_29  and  C_30
REMARK   17  A    between atoms: C_30  and  O_31
REMARK                            x       y       z     vdW  Elec       q    Type
REMARK                         _______ _______ _______ _____ _____    ______ ____
ROOT
ATOM      1  O   UNL     1     -39.977  21.550   1.678  0.00  0.00    -0.296 OA
ATOM      2  C   UNL     1     -36.471  21.163   1.301  0.00  0.00    +0.043 C 
ATOM      3  C   UNL     1     -37.627  21.380   2.296  0.00  0.00    +0.082 C 
ATOM      4  C   UNL     1     -37.033  20.141   0.300  0.00  0.00    +0.119 C 
ATOM      5  C   UNL     1     -38.465  20.611   0.052  0.00  0.00    +0.094 C 
ATOM      6  C   UNL     1     -38.832  21.225   1.383  0.00  0.00    +0.157 C 
ENDROOT
BRANCH   4   7
ATOM      7  O   UNL     1     -37.076  18.828   0.846  0.00  0.00    -0.384 OA
ATOM      8  H   UNL     1     -36.303  18.689   1.416  0.00  0.00    +0.210 HD
ENDBRANCH   4   7
BRANCH   3   9
ATOM      9  C   UNL     1     -37.615  22.714   2.956  0.00  0.00    -0.021 C 
ATOM     10  C   UNL     1     -37.380  23.865   2.308  0.00  0.00    -0.002 C 
BRANCH  10  11
ATOM     11  C   UNL     1     -37.369  25.210   2.979  0.00  0.00    +0.132 C 
BRANCH  11  12
ATOM     12  O   UNL     1     -38.290  25.176   4.072  0.00  0.00    -0.380 OA
ATOM     13  H   UNL     1     -37.987  24.531   4.730  0.00  0.00    +0.211 HD
ENDBRANCH  11  12
BRANCH  11  14
ATOM     14  C   UNL     1     -35.993  25.581   3.549  0.00  0.00    +0.034 C 
BRANCH  14  15
ATOM     15  C   UNL     1     -35.988  25.715   5.074  0.00  0.00    +0.003 C 
BRANCH  15  16
ATOM     16  C   UNL     1     -35.011  24.757   5.765  0.00  0.00    +0.000 C 
BRANCH  16  17
ATOM     17  C   UNL     1     -34.873  23.410   5.054  0.00  0.00    +0.000 C 
ATOM     18  C   UNL     1     -35.191  22.253   5.990  0.00  0.00    +0.000 C 
ENDBRANCH  16  17
ENDBRANCH  15  16
ENDBRANCH  14  15
ENDBRANCH  11  14
ENDBRANCH  10  11
ENDBRANCH   3   9
BRANCH   2  19
ATOM     19  C   UNL     1     -35.181  20.721   1.985  0.00  0.00    +0.029 C 
BRANCH  19  20
ATOM     20  C   UNL     1     -33.997  20.907   1.085  0.00  0.00    -0.031 C 
ATOM     21  C   UNL     1     -33.239  19.896   0.636  0.00  0.00    -0.031 C 
BRANCH  21  22
ATOM     22  C   UNL     1     -33.481  18.454   0.978  0.00  0.00    +0.026 C 
BRANCH  22  23
ATOM     23  C   UNL     1     -33.984  17.674  -0.240  0.00  0.00    +0.014 C 
BRANCH  23  24
ATOM     24  C   UNL     1     -34.175  16.187   0.061  0.00  0.00    +0.085 C 
BRANCH  24  27
ATOM     25  O   UNL     1     -35.621  14.386  -0.666  0.00  0.00    -0.275 OA
ATOM     26  N   UNL     1     -36.305  16.584  -0.983  0.00  0.00    -0.302 N 
ATOM     27  C   UNL     1     -35.432  15.595  -0.554  0.00  0.00    +0.223 C 
ATOM     28  H   UNL     1     -36.052  17.526  -0.843  0.00  0.00    +0.150 HD
BRANCH  26  29
ATOM     29  C   UNL     1     -37.568  16.300  -1.626  0.00  0.00    +0.121 C 
BRANCH  29  30
ATOM     30  C   UNL     1     -38.681  16.116  -0.611  0.00  0.00    +0.158 C 
BRANCH  30  31
ATOM     31  O   UNL     1     -38.745  14.751  -0.219  0.00  0.00    -0.380 OA
ATOM     32  H   UNL     1     -38.559  14.186  -0.985  0.00  0.00    +0.211 HD
ENDBRANCH  30  31
ENDBRANCH  29  30
ENDBRANCH  26  29
ENDBRANCH  24  27
ENDBRANCH  23  24
ENDBRANCH  22  23
ENDBRANCH  21  22
ENDBRANCH  19  20
ENDBRANCH   2  19
TORSDOF 17
ENDMDL
MODEL 2
REMARK VINA RESULT:      -5.3      3.873      7.826
REMARK  Name = 5283120
REMARK  17 active torsions:
REMARK  status: ('A' for Active; 'I' for Inactive)
REMARK    1  A    between atoms: C_2  and  C_19
REMARK    2  A    between atoms: C_3  and  C_9
REMARK    3  A    between atoms: C_4  and  O_7
REMARK    4  A    between atoms: C_10  and  C_11
REMARK    5  A    between atoms: C_11  and  O_12
REMARK    6  A    between atoms: C_11  and  C_14
REMARK    7  A    between atoms: C_14  and  C_15
REMARK    8  A    between atoms: C_15  and  C_16
REMARK    9  A    between atoms: C_16  and  C_17
REMARK   10  A    between atoms: C_19  and  C_20
REMARK   11  A    between atoms: C_21  and  C_22
REMARK   12  A    between atoms: C_22  and  C_23
REMARK   13  A    between atoms: C_23  and  C_24
REMARK   14  A    between atoms: C_24  and  C_27
REMARK   15  A    between atoms: N_26  and  C_29
REMARK   16  A    between atoms: C_29  and  C_30
REMARK   17  A    between atoms: C_30  and  O_31
REMARK                            x       y       z     vdW  Elec       q    Type
REMARK                         _______ _______ _______ _____ _____    ______ ____
ROOT
ATOM      1  O   UNL     1     -40.168  21.655   1.643  0.00  0.00    -0.296 OA
ATOM      2  C   UNL     1     -36.677  22.202   1.956  0.00  0.00    +0.043 C 
ATOM      3  C   UNL     1     -38.065  22.465   2.569  0.00  0.00    +0.082 C 
ATOM      4  C   UNL     1     -36.749  20.739   1.494  0.00  0.00    +0.119 C 
ATOM      5  C   UNL     1     -38.137  20.613   0.869  0.00  0.00    +0.094 C 
ATOM      6  C   UNL     1     -38.944  21.591   1.690  0.00  0.00    +0.157 C 
ENDROOT
BRANCH   4   7
ATOM      7  O   UNL     1     -36.661  19.830   2.586  0.00  0.00    -0.384 OA
ATOM      8  H   UNL     1     -37.465  19.894   3.127  0.00  0.00    +0.210 HD
ENDBRANCH   4   7
BRANCH   3   9
ATOM      9  C   UNL     1     -38.492  23.891   2.514  0.00  0.00    -0.021 C 
ATOM     10  C   UNL     1     -39.613  24.357   3.085  0.00  0.00    -0.002 C 
BRANCH  10  11
ATOM     11  C   UNL     1     -40.040  25.796   3.026  0.00  0.00    +0.132 C 
BRANCH  11  12
ATOM     12  O   UNL     1     -38.869  26.615   3.062  0.00  0.00    -0.380 OA
ATOM     13  H   UNL     1     -38.650  26.825   3.983  0.00  0.00    +0.211 HD
ENDBRANCH  11  12
BRANCH  11  14
ATOM     14  C   UNL     1     -40.802  26.141   1.740  0.00  0.00    +0.034 C 
BRANCH  14  15
ATOM     15  C   UNL     1     -41.896  25.127   1.396  0.00  0.00    +0.003 C 
BRANCH  15  16
ATOM     16  C   UNL     1     -43.315  25.681   1.571  0.00  0.00    +0.000 C 
BRANCH  16  17
ATOM     17  C   UNL     1     -43.365  26.988   2.363  0.00  0.00    +0.000 C 
ATOM     18  C   UNL     1     -43.869  26.760   3.780  0.00  0.00    +0.000 C 
ENDBRANCH  16  17
ENDBRANCH  15  16
ENDBRANCH  14  15
ENDBRANCH  11  14
ENDBRANCH  10  11
ENDBRANCH   3   9
BRANCH   2  19
ATOM     19  C   UNL     1     -35.540  22.493   2.930  0.00  0.00    +0.029 C 
BRANCH  19  20
ATOM     20  C   UNL     1     -36.017  22.453   4.351  0.00  0.00    -0.031 C 
ATOM     21  C   UNL     1     -35.451  23.154   5.345  0.00  0.00    -0.031 C 
BRANCH  21  22
ATOM     22  C   UNL     1     -34.272  24.064   5.159  0.00  0.00    +0.026 C 
BRANCH  22  23
ATOM     23  C   UNL     1     -34.584  25.481   5.650  0.00  0.00    +0.014 C 
BRANCH  23  24
ATOM     24  C   UNL     1     -35.839  26.060   4.995  0.00  0.00    +0.085 C 
BRANCH  24  27
ATOM     25  O   UNL     1     -35.882  25.957   2.576  0.00  0.00    -0.275 OA
ATOM     26  N   UNL     1     -35.029  27.854   3.613  0.00  0.00    -0.302 N 
ATOM     27  C   UNL     1     -35.605  26.592   3.591  0.00  0.00    +0.223 C 
ATOM     28  H   UNL     1     -34.849  28.272   4.486  0.00  0.00    +0.150 HD
BRANCH  26  29
ATOM     29  C   UNL     1     -34.679  28.584   2.416  0.00  0.00    +0.121 C 
BRANCH  29  30
ATOM     30  C   UNL     1     -35.821  29.468   1.949  0.00  0.00    +0.158 C 
BRANCH  30  31
ATOM     31  O   UNL     1     -36.928  28.655   1.578  0.00  0.00    -0.380 OA
ATOM     32  H   UNL     1     -37.741  29.025   1.954  0.00  0.00    +0.211 HD
ENDBRANCH  30  31
ENDBRANCH  29  30
ENDBRANCH  26  29
ENDBRANCH  24  27
ENDBRANCH  23  24
ENDBRANCH  22  23
ENDBRANCH  21  22
ENDBRANCH  19  20
ENDBRANCH   2  19
TORSDOF 17
ENDMDL
MODEL 3
REMARK VINA RESULT:      -5.3      4.240      9.437
REMARK  Name = 5283120
REMARK  17 active torsions:
REMARK  status: ('A' for Active; 'I' for Inactive)
REMARK    1  A    between atoms: C_2  and  C_19
REMARK    2  A    between atoms: C_3  and  C_9
REMARK    3  A    between atoms: C_4  and  O_7
REMARK    4  A    between atoms: C_10  and  C_11
REMARK    5  A    between atoms: C_11  and  O_12
REMARK    6  A    between atoms: C_11  and  C_14
REMARK    7  A    between atoms: C_14  and  C_15
REMARK    8  A    between atoms: C_15  and  C_16
REMARK    9  A    between atoms: C_16  and  C_17
REMARK   10  A    between atoms: C_19  and  C_20
REMARK   11  A    between atoms: C_21  and  C_22
REMARK   12  A    between atoms: C_22  and  C_23
REMARK   13  A    between atoms: C_23  and  C_24
REMARK   14  A    between atoms: C_24  and  C_27
REMARK   15  A    between atoms: N_26  and  C_29
REMARK   16  A    between atoms: C_29  and  C_30
REMARK   17  A    between atoms: C_30  and  O_31
REMARK                            x       y       z     vdW  Elec       q    Type
REMARK                         _______ _______ _______ _____ _____    ______ ____
ROOT
ATOM      1  O   UNL     1     -35.790  22.825   6.305  0.00  0.00    -0.296 OA
ATOM      2  C   UNL     1     -35.518  24.841   3.398  0.00  0.00    +0.043 C 
ATOM      3  C   UNL     1     -36.365  23.791   4.143  0.00  0.00    +0.082 C 
ATOM      4  C   UNL     1     -35.041  25.787   4.511  0.00  0.00    +0.119 C 
ATOM      5  C   UNL     1     -34.658  24.851   5.656  0.00  0.00    +0.094 C 
ATOM      6  C   UNL     1     -35.627  23.708   5.469  0.00  0.00    +0.157 C 
ENDROOT
BRANCH   4   7
ATOM      7  O   UNL     1     -36.080  26.650   4.960  0.00  0.00    -0.384 OA
ATOM      8  H   UNL     1     -36.255  26.484   5.900  0.00  0.00    +0.210 HD
ENDBRANCH   4   7
BRANCH   3   9
ATOM      9  C   UNL     1     -36.417  22.465   3.468  0.00  0.00    -0.021 C 
ATOM     10  C   UNL     1     -35.330  21.742   3.160  0.00  0.00    -0.002 C 
BRANCH  10  11
ATOM     11  C   UNL     1     -35.388  20.404   2.477  0.00  0.00    +0.132 C 
BRANCH  11  12
ATOM     12  O   UNL     1     -36.728  19.914   2.560  0.00  0.00    -0.380 OA
ATOM     13  H   UNL     1     -37.251  20.498   3.131  0.00  0.00    +0.211 HD
ENDBRANCH  11  12
BRANCH  11  14
ATOM     14  C   UNL     1     -35.016  20.476   0.990  0.00  0.00    +0.034 C 
BRANCH  14  15
ATOM     15  C   UNL     1     -33.598  19.980   0.698  0.00  0.00    +0.003 C 
BRANCH  15  16
ATOM     16  C   UNL     1     -33.359  18.530   1.134  0.00  0.00    +0.000 C 
BRANCH  16  17
ATOM     17  C   UNL     1     -31.879  18.157   1.228  0.00  0.00    +0.000 C 
ATOM     18  C   UNL     1     -31.033  19.003   0.287  0.00  0.00    +0.000 C 
ENDBRANCH  16  17
ENDBRANCH  15  16
ENDBRANCH  14  15
ENDBRANCH  11  14
ENDBRANCH  10  11
ENDBRANCH   3   9
BRANCH   2  19
ATOM     19  C   UNL     1     -36.291  25.534   2.281  0.00  0.00    +0.029 C 
BRANCH  19  20
ATOM     20  C   UNL     1     -35.366  26.073   1.232  0.00  0.00    -0.031 C 
ATOM     21  C   UNL     1     -35.040  27.369   1.124  0.00  0.00    -0.031 C 
BRANCH  21  22
ATOM     22  C   UNL     1     -35.560  28.441   2.037  0.00  0.00    +0.026 C 
BRANCH  22  23
ATOM     23  C   UNL     1     -34.414  29.247   2.653  0.00  0.00    +0.014 C 
BRANCH  23  24
ATOM     24  C   UNL     1     -33.044  28.654   2.325  0.00  0.00    +0.085 C 
BRANCH  24  27
ATOM     25  O   UNL     1     -31.678  26.960   3.387  0.00  0.00    -0.275 OA
ATOM     26  N   UNL     1     -32.681  28.592   4.701  0.00  0.00    -0.302 N 
ATOM     27  C   UNL     1     -32.377  27.963   3.503  0.00  0.00    +0.223 C 
ATOM     28  H   UNL     1     -33.253  29.393   4.679  0.00  0.00    +0.150 HD
BRANCH  26  29
ATOM     29  C   UNL     1     -32.196  28.129   5.982  0.00  0.00    +0.121 C 
BRANCH  29  30
ATOM     30  C   UNL     1     -30.801  28.651   6.272  0.00  0.00    +0.158 C 
BRANCH  30  31
ATOM     31  O   UNL     1     -29.840  27.696   5.840  0.00  0.00    -0.380 OA
ATOM     32  H   UNL     1     -29.685  27.800   4.888  0.00  0.00    +0.211 HD
ENDBRANCH  30  31
ENDBRANCH  29  30
ENDBRANCH  26  29
ENDBRANCH  24  27
ENDBRANCH  23  24
ENDBRANCH  22  23
ENDBRANCH  21  22
ENDBRANCH  19  20
ENDBRANCH   2  19
TORSDOF 17
ENDMDL
MODEL 4
REMARK VINA RESULT:      -5.3      3.755      8.686
REMARK  Name = 5283120
REMARK  17 active torsions:
REMARK  status: ('A' for Active; 'I' for Inactive)
REMARK    1  A    between atoms: C_2  and  C_19
REMARK    2  A    between atoms: C_3  and  C_9
REMARK    3  A    between atoms: C_4  and  O_7
REMARK    4  A    between atoms: C_10  and  C_11
REMARK    5  A    between atoms: C_11  and  O_12
REMARK    6  A    between atoms: C_11  and  C_14
REMARK    7  A    between atoms: C_14  and  C_15
REMARK    8  A    between atoms: C_15  and  C_16
REMARK    9  A    between atoms: C_16  and  C_17
REMARK   10  A    between atoms: C_19  and  C_20
REMARK   11  A    between atoms: C_21  and  C_22
REMARK   12  A    between atoms: C_22  and  C_23
REMARK   13  A    between atoms: C_23  and  C_24
REMARK   14  A    between atoms: C_24  and  C_27
REMARK   15  A    between atoms: N_26  and  C_29
REMARK   16  A    between atoms: C_29  and  C_30
REMARK   17  A    between atoms: C_30  and  O_31
REMARK                            x       y       z     vdW  Elec       q    Type
REMARK                         _______ _______ _______ _____ _____    ______ ____
ROOT
ATOM      1  O   UNL     1     -35.882  22.701   6.188  0.00  0.00    -0.296 OA
ATOM      2  C   UNL     1     -35.680  24.938   3.442  0.00  0.00    +0.043 C 
ATOM      3  C   UNL     1     -36.502  23.823   4.116  0.00  0.00    +0.082 C 
ATOM      4  C   UNL     1     -35.195  25.801   4.617  0.00  0.00    +0.119 C 
ATOM      5  C   UNL     1     -34.783  24.785   5.681  0.00  0.00    +0.094 C 
ATOM      6  C   UNL     1     -35.743  23.647   5.421  0.00  0.00    +0.157 C 
ENDROOT
BRANCH   4   7
ATOM      7  O   UNL     1     -36.237  26.614   5.147  0.00  0.00    -0.384 OA
ATOM      8  H   UNL     1     -36.946  26.048   5.491  0.00  0.00    +0.210 HD
ENDBRANCH   4   7
BRANCH   3   9
ATOM      9  C   UNL     1     -36.550  22.553   3.342  0.00  0.00    -0.021 C 
ATOM     10  C   UNL     1     -35.464  21.833   3.020  0.00  0.00    -0.002 C 
BRANCH  10  11
ATOM     11  C   UNL     1     -35.517  20.552   2.238  0.00  0.00    +0.132 C 
BRANCH  11  12
ATOM     12  O   UNL     1     -36.688  19.832   2.631  0.00  0.00    -0.380 OA
ATOM     13  H   UNL     1     -36.850  19.111   2.003  0.00  0.00    +0.211 HD
ENDBRANCH  11  12
BRANCH  11  14
ATOM     14  C   UNL     1     -35.606  20.780   0.723  0.00  0.00    +0.034 C 
BRANCH  14  15
ATOM     15  C   UNL     1     -34.477  20.102  -0.057  0.00  0.00    +0.003 C 
BRANCH  15  16
ATOM     16  C   UNL     1     -33.079  20.564   0.370  0.00  0.00    +0.000 C 
BRANCH  16  17
ATOM     17  C   UNL     1     -32.090  19.414   0.565  0.00  0.00    +0.000 C 
ATOM     18  C   UNL     1     -32.693  18.302   1.412  0.00  0.00    +0.000 C 
ENDBRANCH  16  17
ENDBRANCH  15  16
ENDBRANCH  14  15
ENDBRANCH  11  14
ENDBRANCH  10  11
ENDBRANCH   3   9
BRANCH   2  19
ATOM     19  C   UNL     1     -36.478  25.704   2.393  0.00  0.00    +0.029 C 
BRANCH  19  20
ATOM     20  C   UNL     1     -36.453  25.002   1.069  0.00  0.00    -0.031 C 
ATOM     21  C   UNL     1     -37.488  24.985   0.216  0.00  0.00    -0.031 C 
BRANCH  21  22
ATOM     22  C   UNL     1     -38.799  25.666   0.481  0.00  0.00    +0.026 C 
BRANCH  22  23
ATOM     23  C   UNL     1     -39.650  24.864   1.471  0.00  0.00    +0.014 C 
BRANCH  23  24
ATOM     24  C   UNL     1     -40.097  25.705   2.666  0.00  0.00    +0.085 C 
BRANCH  24  27
ATOM     25  O   UNL     1     -42.169  26.212   1.520  0.00  0.00    -0.275 OA
ATOM     26  N   UNL     1     -42.015  26.604   3.805  0.00  0.00    -0.302 N 
ATOM     27  C   UNL     1     -41.536  26.186   2.572  0.00  0.00    +0.223 C 
ATOM     28  H   UNL     1     -41.419  26.539   4.587  0.00  0.00    +0.150 HD
BRANCH  26  29
ATOM     29  C   UNL     1     -43.347  27.130   3.998  0.00  0.00    +0.121 C 
BRANCH  29  30
ATOM     30  C   UNL     1     -43.321  28.619   4.293  0.00  0.00    +0.158 C 
BRANCH  30  31
ATOM     31  O   UNL     1     -42.047  28.975   4.813  0.00  0.00    -0.380 OA
ATOM     32  H   UNL     1     -42.051  28.875   5.777  0.00  0.00    +0.211 HD
ENDBRANCH  30  31
ENDBRANCH  29  30
ENDBRANCH  26  29
ENDBRANCH  24  27
ENDBRANCH  23  24
ENDBRANCH  22  23
ENDBRANCH  21  22
ENDBRANCH  19  20
ENDBRANCH   2  19
TORSDOF 17
ENDMDL
MODEL 5
REMARK VINA RESULT:      -5.2      3.640      6.936
REMARK  Name = 5283120
REMARK  17 active torsions:
REMARK  status: ('A' for Active; 'I' for Inactive)
REMARK    1  A    between atoms: C_2  and  C_19
REMARK    2  A    between atoms: C_3  and  C_9
REMARK    3  A    between atoms: C_4  and  O_7
REMARK    4  A    between atoms: C_10  and  C_11
REMARK    5  A    between atoms: C_11  and  O_12
REMARK    6  A    between atoms: C_11  and  C_14
REMARK    7  A    between atoms: C_14  and  C_15
REMARK    8  A    between atoms: C_15  and  C_16
REMARK    9  A    between atoms: C_16  and  C_17
REMARK   10  A    between atoms: C_19  and  C_20
REMARK   11  A    between atoms: C_21  and  C_22
REMARK   12  A    between atoms: C_22  and  C_23
REMARK   13  A    between atoms: C_23  and  C_24
REMARK   14  A    between atoms: C_24  and  C_27
REMARK   15  A    between atoms: N_26  and  C_29
REMARK   16  A    between atoms: C_29  and  C_30
REMARK   17  A    between atoms: C_30  and  O_31
REMARK                            x       y       z     vdW  Elec       q    Type
REMARK                         _______ _______ _______ _____ _____    ______ ____
ROOT
ATOM      1  O   UNL     1     -35.112  21.371  -0.860  0.00  0.00    -0.296 OA
ATOM      2  C   UNL     1     -35.334  21.844   2.649  0.00  0.00    +0.043 C 
ATOM      3  C   UNL     1     -35.810  22.331   1.268  0.00  0.00    +0.082 C 
ATOM      4  C   UNL     1     -35.319  20.313   2.515  0.00  0.00    +0.119 C 
ATOM      5  C   UNL     1     -34.725  20.067   1.129  0.00  0.00    +0.094 C 
ATOM      6  C   UNL     1     -35.205  21.274   0.359  0.00  0.00    +0.157 C 
ENDROOT
BRANCH   4   7
ATOM      7  O   UNL     1     -36.631  19.762   2.549  0.00  0.00    -0.384 OA
ATOM      8  H   UNL     1     -36.985  19.712   1.647  0.00  0.00    +0.210 HD
ENDBRANCH   4   7
BRANCH   3   9
ATOM      9  C   UNL     1     -35.330  23.694   0.908  0.00  0.00    -0.021 C 
ATOM     10  C   UNL     1     -34.182  24.224   1.356  0.00  0.00    -0.002 C 
BRANCH  10  11
ATOM     11  C   UNL     1     -33.703  25.600   0.991  0.00  0.00    +0.132 C 
BRANCH  11  12
ATOM     12  O   UNL     1     -34.829  26.373   0.572  0.00  0.00    -0.380 OA
ATOM     13  H   UNL     1     -35.476  25.794   0.140  0.00  0.00    +0.211 HD
ENDBRANCH  11  12
BRANCH  11  14
ATOM     14  C   UNL     1     -33.052  26.338   2.169  0.00  0.00    +0.034 C 
BRANCH  14  15
ATOM     15  C   UNL     1     -33.276  27.851   2.131  0.00  0.00    +0.003 C 
BRANCH  15  16
ATOM     16  C   UNL     1     -33.248  28.505   3.517  0.00  0.00    +0.000 C 
BRANCH  16  17
ATOM     17  C   UNL     1     -32.120  27.988   4.411  0.00  0.00    +0.000 C 
ATOM     18  C   UNL     1     -32.631  27.634   5.800  0.00  0.00    +0.000 C 
ENDBRANCH  16  17
ENDBRANCH  15  16
ENDBRANCH  14  15
ENDBRANCH  11  14
ENDBRANCH  10  11
ENDBRANCH   3   9
BRANCH   2  19
ATOM     19  C   UNL     1     -36.207  22.361   3.788  0.00  0.00    +0.029 C 
BRANCH  19  20
ATOM     20  C   UNL     1     -35.546  22.154   5.117  0.00  0.00    -0.031 C 
ATOM     21  C   UNL     1     -34.845  23.103   5.755  0.00  0.00    -0.031 C 
BRANCH  21  22
ATOM     22  C   UNL     1     -34.636  24.489   5.219  0.00  0.00    +0.026 C 
BRANCH  22  23
ATOM     23  C   UNL     1     -35.874  25.363   5.446  0.00  0.00    +0.014 C 
BRANCH  23  24
ATOM     24  C   UNL     1     -36.075  26.386   4.328  0.00  0.00    +0.085 C 
BRANCH  24  27
ATOM     25  O   UNL     1     -37.159  26.369   2.162  0.00  0.00    -0.275 OA
ATOM     26  N   UNL     1     -38.138  25.217   3.926  0.00  0.00    -0.302 N 
ATOM     27  C   UNL     1     -37.159  26.001   3.334  0.00  0.00    +0.223 C 
ATOM     28  H   UNL     1     -38.039  24.981   4.877  0.00  0.00    +0.150 HD
BRANCH  26  29
ATOM     29  C   UNL     1     -39.298  24.729   3.214  0.00  0.00    +0.121 C 
BRANCH  29  30
ATOM     30  C   UNL     1     -40.415  25.756   3.200  0.00  0.00    +0.158 C 
BRANCH  30  31
ATOM     31  O   UNL     1     -40.196  26.679   2.140  0.00  0.00    -0.380 OA
ATOM     32  H   UNL     1     -39.313  27.069   2.228  0.00  0.00    +0.211 HD
ENDBRANCH  30  31
ENDBRANCH  29  30
ENDBRANCH  26  29
ENDBRANCH  24  27
ENDBRANCH  23  24
ENDBRANCH  22  23
ENDBRANCH  21  22
ENDBRANCH  19  20
ENDBRANCH   2  19
TORSDOF 17
ENDMDL
MODEL 6
REMARK VINA RESULT:      -5.1      4.003      7.982
REMARK  Name = 5283120
REMARK  17 active torsions:
REMARK  status: ('A' for Active; 'I' for Inactive)
REMARK    1  A    between atoms: C_2  and  C_19
REMARK    2  A    between atoms: C_3  and  C_9
REMARK    3  A    between atoms: C_4  and  O_7
REMARK    4  A    between atoms: C_10  and  C_11
REMARK    5  A    between atoms: C_11  and  O_12
REMARK    6  A    between atoms: C_11  and  C_14
REMARK    7  A    between atoms: C_14  and  C_15
REMARK    8  A    between atoms: C_15  and  C_16
REMARK    9  A    between atoms: C_16  and  C_17
REMARK   10  A    between atoms: C_19  and  C_20
REMARK   11  A    between atoms: C_21  and  C_22
REMARK   12  A    between atoms: C_22  and  C_23
REMARK   13  A    between atoms: C_23  and  C_24
REMARK   14  A    between atoms: C_24  and  C_27
REMARK   15  A    between atoms: N_26  and  C_29
REMARK   16  A    between atoms: C_29  and  C_30
REMARK   17  A    between atoms: C_30  and  O_31
REMARK                            x       y       z     vdW  Elec       q    Type
REMARK                         _______ _______ _______ _____ _____    ______ ____
ROOT
ATOM      1  O   UNL     1     -40.088  21.949   1.858  0.00  0.00    -0.296 OA
ATOM      2  C   UNL     1     -36.561  22.234   2.109  0.00  0.00    +0.043 C 
ATOM      3  C   UNL     1     -37.913  22.542   2.780  0.00  0.00    +0.082 C 
ATOM      4  C   UNL     1     -36.746  20.819   1.541  0.00  0.00    +0.119 C 
ATOM      5  C   UNL     1     -38.154  20.835   0.949  0.00  0.00    +0.094 C 
ATOM      6  C   UNL     1     -38.871  21.799   1.865  0.00  0.00    +0.157 C 
ENDROOT
BRANCH   4   7
ATOM      7  O   UNL     1     -36.695  19.824   2.558  0.00  0.00    -0.384 OA
ATOM      8  H   UNL     1     -37.031  18.984   2.207  0.00  0.00    +0.210 HD
ENDBRANCH   4   7
BRANCH   3   9
ATOM      9  C   UNL     1     -38.240  23.993   2.845  0.00  0.00    -0.021 C 
ATOM     10  C   UNL     1     -38.235  24.807   1.779  0.00  0.00    -0.002 C 
BRANCH  10  11
ATOM     11  C   UNL     1     -38.566  26.272   1.850  0.00  0.00    +0.132 C 
BRANCH  11  12
ATOM     12  O   UNL     1     -38.997  26.573   3.179  0.00  0.00    -0.380 OA
ATOM     13  H   UNL     1     -38.228  26.808   3.722  0.00  0.00    +0.211 HD
ENDBRANCH  11  12
BRANCH  11  14
ATOM     14  C   UNL     1     -37.361  27.171   1.542  0.00  0.00    +0.034 C 
BRANCH  14  15
ATOM     15  C   UNL     1     -36.231  26.439   0.814  0.00  0.00    +0.003 C 
BRANCH  15  16
ATOM     16  C   UNL     1     -34.956  26.301   1.653  0.00  0.00    +0.000 C 
BRANCH  16  17
ATOM     17  C   UNL     1     -34.003  25.221   1.140  0.00  0.00    +0.000 C 
ATOM     18  C   UNL     1     -32.568  25.501   1.562  0.00  0.00    +0.000 C 
ENDBRANCH  16  17
ENDBRANCH  15  16
ENDBRANCH  14  15
ENDBRANCH  11  14
ENDBRANCH  10  11
ENDBRANCH   3   9
BRANCH   2  19
ATOM     19  C   UNL     1     -35.383  22.372   3.068  0.00  0.00    +0.029 C 
BRANCH  19  20
ATOM     20  C   UNL     1     -35.850  22.586   4.476  0.00  0.00    -0.031 C 
ATOM     21  C   UNL     1     -35.339  23.517   5.296  0.00  0.00    -0.031 C 
BRANCH  21  22
ATOM     22  C   UNL     1     -34.236  24.458   4.906  0.00  0.00    +0.026 C 
BRANCH  22  23
ATOM     23  C   UNL     1     -34.546  25.889   5.355  0.00  0.00    +0.014 C 
BRANCH  23  24
ATOM     24  C   UNL     1     -33.388  26.517   6.131  0.00  0.00    +0.085 C 
BRANCH  24  27
ATOM     25  O   UNL     1     -32.285  28.672   6.173  0.00  0.00    -0.275 OA
ATOM     26  N   UNL     1     -33.180  27.898   4.174  0.00  0.00    -0.302 N 
ATOM     27  C   UNL     1     -32.876  27.813   5.524  0.00  0.00    +0.223 C 
ATOM     28  H   UNL     1     -33.659  27.148   3.753  0.00  0.00    +0.150 HD
BRANCH  26  29
ATOM     29  C   UNL     1     -32.830  29.036   3.355  0.00  0.00    +0.121 C 
BRANCH  29  30
ATOM     30  C   UNL     1     -33.929  30.083   3.355  0.00  0.00    +0.158 C 
BRANCH  30  31
ATOM     31  O   UNL     1     -35.194  29.440   3.266  0.00  0.00    -0.380 OA
ATOM     32  H   UNL     1     -35.349  29.156   2.352  0.00  0.00    +0.211 HD
ENDBRANCH  30  31
ENDBRANCH  29  30
ENDBRANCH  26  29
ENDBRANCH  24  27
ENDBRANCH  23  24
ENDBRANCH  22  23
ENDBRANCH  21  22
ENDBRANCH  19  20
ENDBRANCH   2  19
TORSDOF 17
ENDMDL
MODEL 7
REMARK VINA RESULT:      -5.1      4.243      8.351
REMARK  Name = 5283120
REMARK  17 active torsions:
REMARK  status: ('A' for Active; 'I' for Inactive)
REMARK    1  A    between atoms: C_2  and  C_19
REMARK    2  A    between atoms: C_3  and  C_9
REMARK    3  A    between atoms: C_4  and  O_7
REMARK    4  A    between atoms: C_10  and  C_11
REMARK    5  A    between atoms: C_11  and  O_12
REMARK    6  A    between atoms: C_11  and  C_14
REMARK    7  A    between atoms: C_14  and  C_15
REMARK    8  A    between atoms: C_15  and  C_16
REMARK    9  A    between atoms: C_16  and  C_17
REMARK   10  A    between atoms: C_19  and  C_20
REMARK   11  A    between atoms: C_21  and  C_22
REMARK   12  A    between atoms: C_22  and  C_23
REMARK   13  A    between atoms: C_23  and  C_24
REMARK   14  A    between atoms: C_24  and  C_27
REMARK   15  A    between atoms: N_26  and  C_29
REMARK   16  A    between atoms: C_29  and  C_30
REMARK   17  A    between atoms: C_30  and  O_31
REMARK                            x       y       z     vdW  Elec       q    Type
REMARK                         _______ _______ _______ _____ _____    ______ ____
ROOT
ATOM      1  O   UNL     1     -40.194  21.830   1.292  0.00  0.00    -0.296 OA
ATOM      2  C   UNL     1     -36.736  22.033   2.059  0.00  0.00    +0.043 C 
ATOM      3  C   UNL     1     -38.166  22.329   2.547  0.00  0.00    +0.082 C 
ATOM      4  C   UNL     1     -36.853  20.655   1.389  0.00  0.00    +0.119 C 
ATOM      5  C   UNL     1     -38.161  20.732   0.605  0.00  0.00    +0.094 C 
ATOM      6  C   UNL     1     -38.992  21.657   1.463  0.00  0.00    +0.157 C 
ENDROOT
BRANCH   4   7
ATOM      7  O   UNL     1     -36.959  19.605   2.344  0.00  0.00    -0.384 OA
ATOM      8  H   UNL     1     -37.611  18.954   2.039  0.00  0.00    +0.210 HD
ENDBRANCH   4   7
BRANCH   3   9
ATOM      9  C   UNL     1     -38.484  23.780   2.648  0.00  0.00    -0.021 C 
ATOM     10  C   UNL     1     -37.850  24.733   1.948  0.00  0.00    -0.002 C 
BRANCH  10  11
ATOM     11  C   UNL     1     -38.173  26.197   2.054  0.00  0.00    +0.132 C 
BRANCH  11  12
ATOM     12  O   UNL     1     -38.768  26.435   3.332  0.00  0.00    -0.380 OA
ATOM     13  H   UNL     1     -39.683  26.114   3.328  0.00  0.00    +0.211 HD
ENDBRANCH  11  12
BRANCH  11  14
ATOM     14  C   UNL     1     -36.931  27.092   1.951  0.00  0.00    +0.034 C 
BRANCH  14  15
ATOM     15  C   UNL     1     -37.043  28.157   0.857  0.00  0.00    +0.003 C 
BRANCH  15  16
ATOM     16  C   UNL     1     -35.938  29.217   0.925  0.00  0.00    +0.000 C 
BRANCH  16  17
ATOM     17  C   UNL     1     -35.237  29.279   2.283  0.00  0.00    +0.000 C 
ATOM     18  C   UNL     1     -35.391  30.651   2.924  0.00  0.00    +0.000 C 
ENDBRANCH  16  17
ENDBRANCH  15  16
ENDBRANCH  14  15
ENDBRANCH  11  14
ENDBRANCH  10  11
ENDBRANCH   3   9
BRANCH   2  19
ATOM     19  C   UNL     1     -35.706  22.095   3.182  0.00  0.00    +0.029 C 
BRANCH  19  20
ATOM     20  C   UNL     1     -34.736  23.217   2.969  0.00  0.00    -0.031 C 
ATOM     21  C   UNL     1     -34.676  24.306   3.750  0.00  0.00    -0.031 C 
BRANCH  21  22
ATOM     22  C   UNL     1     -35.572  24.537   4.932  0.00  0.00    +0.026 C 
BRANCH  22  23
ATOM     23  C   UNL     1     -35.355  25.931   5.527  0.00  0.00    +0.014 C 
BRANCH  23  24
ATOM     24  C   UNL     1     -34.202  26.677   4.854  0.00  0.00    +0.085 C 
BRANCH  24  27
ATOM     25  O   UNL     1     -32.840  26.553   6.852  0.00  0.00    -0.275 OA
ATOM     26  N   UNL     1     -32.567  28.351   5.407  0.00  0.00    -0.302 N 
ATOM     27  C   UNL     1     -33.134  27.156   5.823  0.00  0.00    +0.223 C 
ATOM     28  H   UNL     1     -32.879  28.749   4.562  0.00  0.00    +0.150 HD
BRANCH  26  29
ATOM     29  C   UNL     1     -31.540  29.041   6.154  0.00  0.00    +0.121 C 
BRANCH  29  30
ATOM     30  C   UNL     1     -30.165  28.462   5.877  0.00  0.00    +0.158 C 
BRANCH  30  31
ATOM     31  O   UNL     1     -29.861  27.476   6.855  0.00  0.00    -0.380 OA
ATOM     32  H   UNL     1     -29.585  27.910   7.677  0.00  0.00    +0.211 HD
ENDBRANCH  30  31
ENDBRANCH  29  30
ENDBRANCH  26  29
ENDBRANCH  24  27
ENDBRANCH  23  24
ENDBRANCH  22  23
ENDBRANCH  21  22
ENDBRANCH  19  20
ENDBRANCH   2  19
TORSDOF 17
ENDMDL
MODEL 8
REMARK VINA RESULT:      -5.1      4.270      8.228
REMARK  Name = 5283120
REMARK  17 active torsions:
REMARK  status: ('A' for Active; 'I' for Inactive)
REMARK    1  A    between atoms: C_2  and  C_19
REMARK    2  A    between atoms: C_3  and  C_9
REMARK    3  A    between atoms: C_4  and  O_7
REMARK    4  A    between atoms: C_10  and  C_11
REMARK    5  A    between atoms: C_11  and  O_12
REMARK    6  A    between atoms: C_11  and  C_14
REMARK    7  A    between atoms: C_14  and  C_15
REMARK    8  A    between atoms: C_15  and  C_16
REMARK    9  A    between atoms: C_16  and  C_17
REMARK   10  A    between atoms: C_19  and  C_20
REMARK   11  A    between atoms: C_21  and  C_22
REMARK   12  A    between atoms: C_22  and  C_23
REMARK   13  A    between atoms: C_23  and  C_24
REMARK   14  A    between atoms: C_24  and  C_27
REMARK   15  A    between atoms: N_26  and  C_29
REMARK   16  A    between atoms: C_29  and  C_30
REMARK   17  A    between atoms: C_30  and  O_31
REMARK                            x       y       z     vdW  Elec       q    Type
REMARK                         _______ _______ _______ _____ _____    ______ ____
ROOT
ATOM      1  O   UNL     1     -40.044  21.709   1.621  0.00  0.00    -0.296 OA
ATOM      2  C   UNL     1     -36.563  22.234   2.065  0.00  0.00    +0.043 C 
ATOM      3  C   UNL     1     -37.971  22.489   2.636  0.00  0.00    +0.082 C 
ATOM      4  C   UNL     1     -36.626  20.781   1.568  0.00  0.00    +0.119 C 
ATOM      5  C   UNL     1     -37.992  20.676   0.893  0.00  0.00    +0.094 C 
ATOM      6  C   UNL     1     -38.823  21.639   1.708  0.00  0.00    +0.157 C 
ENDROOT
BRANCH   4   7
ATOM      7  O   UNL     1     -36.578  19.847   2.642  0.00  0.00    -0.384 OA
ATOM      8  H   UNL     1     -36.288  18.984   2.307  0.00  0.00    +0.210 HD
ENDBRANCH   4   7
BRANCH   3   9
ATOM      9  C   UNL     1     -38.389  23.918   2.598  0.00  0.00    -0.021 C 
ATOM     10  C   UNL     1     -39.523  24.378   3.148  0.00  0.00    -0.002 C 
BRANCH  10  11
ATOM     11  C   UNL     1     -39.942  25.820   3.107  0.00  0.00    +0.132 C 
BRANCH  11  12
ATOM     12  O   UNL     1     -38.766  26.632   3.160  0.00  0.00    -0.380 OA
ATOM     13  H   UNL     1     -38.655  26.981   4.058  0.00  0.00    +0.211 HD
ENDBRANCH  11  12
BRANCH  11  14
ATOM     14  C   UNL     1     -40.696  26.187   1.822  0.00  0.00    +0.034 C 
BRANCH  14  15
ATOM     15  C   UNL     1     -42.186  26.453   2.051  0.00  0.00    +0.003 C 
BRANCH  15  16
ATOM     16  C   UNL     1     -42.480  27.873   2.546  0.00  0.00    +0.000 C 
BRANCH  16  17
ATOM     17  C   UNL     1     -42.989  27.922   3.988  0.00  0.00    +0.000 C 
ATOM     18  C   UNL     1     -44.107  26.916   4.216  0.00  0.00    +0.000 C 
ENDBRANCH  16  17
ENDBRANCH  15  16
ENDBRANCH  14  15
ENDBRANCH  11  14
ENDBRANCH  10  11
ENDBRANCH   3   9
BRANCH   2  19
ATOM     19  C   UNL     1     -35.459  22.497   3.083  0.00  0.00    +0.029 C 
BRANCH  19  20
ATOM     20  C   UNL     1     -35.929  22.222   4.479  0.00  0.00    -0.031 C 
ATOM     21  C   UNL     1     -35.660  23.018   5.525  0.00  0.00    -0.031 C 
BRANCH  21  22
ATOM     22  C   UNL     1     -34.856  24.282   5.427  0.00  0.00    +0.026 C 
BRANCH  22  23
ATOM     23  C   UNL     1     -35.747  25.480   5.087  0.00  0.00    +0.014 C 
BRANCH  23  24
ATOM     24  C   UNL     1     -35.227  26.267   3.883  0.00  0.00    +0.085 C 
BRANCH  24  27
ATOM     25  O   UNL     1     -32.874  25.883   3.461  0.00  0.00    -0.275 OA
ATOM     26  N   UNL     1     -33.515  27.760   4.672  0.00  0.00    -0.302 N 
ATOM     27  C   UNL     1     -33.744  26.592   3.959  0.00  0.00    +0.223 C 
ATOM     28  H   UNL     1     -34.290  28.252   5.029  0.00  0.00    +0.150 HD
BRANCH  26  29
ATOM     29  C   UNL     1     -32.193  28.290   4.916  0.00  0.00    +0.121 C 
BRANCH  29  30
ATOM     30  C   UNL     1     -31.880  28.347   6.400  0.00  0.00    +0.158 C 
BRANCH  30  31
ATOM     31  O   UNL     1     -30.787  27.484   6.687  0.00  0.00    -0.380 OA
ATOM     32  H   UNL     1     -31.029  26.571   6.466  0.00  0.00    +0.211 HD
ENDBRANCH  30  31
ENDBRANCH  29  30
ENDBRANCH  26  29
ENDBRANCH  24  27
ENDBRANCH  23  24
ENDBRANCH  22  23
ENDBRANCH  21  22
ENDBRANCH  19  20
ENDBRANCH   2  19
TORSDOF 17
ENDMDL
MODEL 9
REMARK VINA RESULT:      -5.1      4.531      8.752
REMARK  Name = 5283120
REMARK  17 active torsions:
REMARK  status: ('A' for Active; 'I' for Inactive)
REMARK    1  A    between atoms: C_2  and  C_19
REMARK    2  A    between atoms: C_3  and  C_9
REMARK    3  A    between atoms: C_4  and  O_7
REMARK    4  A    between atoms: C_10  and  C_11
REMARK    5  A    between atoms: C_11  and  O_12
REMARK    6  A    between atoms: C_11  and  C_14
REMARK    7  A    between atoms: C_14  and  C_15
REMARK    8  A    between atoms: C_15  and  C_16
REMARK    9  A    between atoms: C_16  and  C_17
REMARK   10  A    between atoms: C_19  and  C_20
REMARK   11  A    between atoms: C_21  and  C_22
REMARK   12  A    between atoms: C_22  and  C_23
REMARK   13  A    between atoms: C_23  and  C_24
REMARK   14  A    between atoms: C_24  and  C_27
REMARK   15  A    between atoms: N_26  and  C_29
REMARK   16  A    between atoms: C_29  and  C_30
REMARK   17  A    between atoms: C_30  and  O_31
REMARK                            x       y       z     vdW  Elec       q    Type
REMARK                         _______ _______ _______ _____ _____    ______ ____
ROOT
ATOM      1  O   UNL     1     -36.128  22.319  -0.551  0.00  0.00    -0.296 OA
ATOM      2  C   UNL     1     -35.439  21.691   2.873  0.00  0.00    +0.043 C 
ATOM      3  C   UNL     1     -36.184  22.593   1.870  0.00  0.00    +0.082 C 
ATOM      4  C   UNL     1     -35.617  20.277   2.299  0.00  0.00    +0.119 C 
ATOM      5  C   UNL     1     -35.407  20.455   0.796  0.00  0.00    +0.094 C 
ATOM      6  C   UNL     1     -35.931  21.853   0.566  0.00  0.00    +0.157 C 
ENDROOT
BRANCH   4   7
ATOM      7  O   UNL     1     -36.931  19.774   2.515  0.00  0.00    -0.384 OA
ATOM      8  H   UNL     1     -36.922  18.806   2.449  0.00  0.00    +0.210 HD
ENDBRANCH   4   7
BRANCH   3   9
ATOM      9  C   UNL     1     -35.667  23.988   1.810  0.00  0.00    -0.021 C 
ATOM     10  C   UNL     1     -34.369  24.308   1.921  0.00  0.00    -0.002 C 
BRANCH  10  11
ATOM     11  C   UNL     1     -33.852  25.717   1.860  0.00  0.00    +0.132 C 
BRANCH  11  12
ATOM     12  O   UNL     1     -32.600  25.768   2.549  0.00  0.00    -0.380 OA
ATOM     13  H   UNL     1     -32.563  25.054   3.205  0.00  0.00    +0.211 HD
ENDBRANCH  11  12
BRANCH  11  14
ATOM     14  C   UNL     1     -33.607  26.203   0.425  0.00  0.00    +0.034 C 
BRANCH  14  15
ATOM     15  C   UNL     1     -32.630  25.318  -0.353  0.00  0.00    +0.003 C 
BRANCH  15  16
ATOM     16  C   UNL     1     -33.245  24.690  -1.608  0.00  0.00    +0.000 C 
BRANCH  16  17
ATOM     17  C   UNL     1     -33.073  23.173  -1.677  0.00  0.00    +0.000 C 
ATOM     18  C   UNL     1     -32.277  22.650  -0.491  0.00  0.00    +0.000 C 
ENDBRANCH  16  17
ENDBRANCH  15  16
ENDBRANCH  14  15
ENDBRANCH  11  14
ENDBRANCH  10  11
ENDBRANCH   3   9
BRANCH   2  19
ATOM     19  C   UNL     1     -35.950  21.853   4.300  0.00  0.00    +0.029 C 
BRANCH  19  20
ATOM     20  C   UNL     1     -34.879  22.386   5.204  0.00  0.00    -0.031 C 
ATOM     21  C   UNL     1     -34.852  23.647   5.661  0.00  0.00    -0.031 C 
BRANCH  21  22
ATOM     22  C   UNL     1     -35.888  24.680   5.325  0.00  0.00    +0.026 C 
BRANCH  22  23
ATOM     23  C   UNL     1     -35.302  26.093   5.389  0.00  0.00    +0.014 C 
BRANCH  23  24
ATOM     24  C   UNL     1     -33.887  26.109   5.970  0.00  0.00    +0.085 C 
BRANCH  24  27
ATOM     25  O   UNL     1     -33.115  27.915   4.553  0.00  0.00    -0.275 OA
ATOM     26  N   UNL     1     -32.400  27.825   6.762  0.00  0.00    -0.302 N 
ATOM     27  C   UNL     1     -33.112  27.379   5.659  0.00  0.00    +0.223 C 
ATOM     28  H   UNL     1     -32.470  27.316   7.603  0.00  0.00    +0.150 HD
BRANCH  26  29
ATOM     29  C   UNL     1     -31.559  29.000   6.738  0.00  0.00    +0.121 C 
BRANCH  29  30
ATOM     30  C   UNL     1     -30.155  28.670   6.265  0.00  0.00    +0.158 C 
BRANCH  30  31
ATOM     31  O   UNL     1     -29.729  27.451   6.859  0.00  0.00    -0.380 OA
ATOM     32  H   UNL     1     -29.131  27.642   7.597  0.00  0.00    +0.211 HD
ENDBRANCH  30  31
ENDBRANCH  29  30
ENDBRANCH  26  29
ENDBRANCH  24  27
ENDBRANCH  23  24
ENDBRANCH  22  23
ENDBRANCH  21  22
ENDBRANCH  19  20
ENDBRANCH   2  19
TORSDOF 17
ENDMDL
