MODEL 1
REMARK VINA RESULT:      -7.1      0.000      0.000
REMARK  Name = 53362276
REMARK  10 active torsions:
REMARK  status: ('A' for Active; 'I' for Inactive)
REMARK    1  A    between atoms: C_7  and  O_15
REMARK    2  A    between atoms: C_7  and  C_19
REMARK    3  A    between atoms: C_8  and  O_17
REMARK    4  A    between atoms: C_8  and  C_29
REMARK    5  A    between atoms: C_19  and  O_20
REMARK    6  A    between atoms: O_20  and  C_22
REMARK    7  A    between atoms: C_22  and  C_23
REMARK    8  A    between atoms: C_29  and  O_30
REMARK    9  A    between atoms: O_30  and  C_32
REMARK   10  A    between atoms: C_32  and  C_33
REMARK                            x       y       z     vdW  Elec       q    Type
REMARK                         _______ _______ _______ _____ _____    ______ ____
ROOT
ATOM      1  O   UNL     1     -41.933  29.228   1.948  0.00  0.00    -0.294 OA
ATOM      2  O   UNL     1     -47.854  26.965   5.184  0.00  0.00    -0.289 OA
ATOM      3  C   UNL     1     -44.462  28.106   4.834  0.00  0.00    +0.043 C 
ATOM      4  C   UNL     1     -43.832  26.901   4.037  0.00  0.00    +0.038 C 
ATOM      5  C   UNL     1     -44.772  29.284   3.829  0.00  0.00    +0.032 C 
ATOM      6  C   UNL     1     -44.286  28.879   2.406  0.00  0.00    +0.064 C 
ATOM      7  C   UNL     1     -42.466  27.368   3.426  0.00  0.00    +0.179 C 
ATOM      8  C   UNL     1     -45.639  27.750   5.774  0.00  0.00    +0.184 C 
ATOM      9  C   UNL     1     -42.795  28.561   2.514  0.00  0.00    +0.178 C 
ATOM     10  C   UNL     1     -44.750  26.560   2.883  0.00  0.00    +0.003 C 
ATOM     11  C   UNL     1     -44.934  27.567   2.014  0.00  0.00    +0.008 C 
ATOM     12  C   UNL     1     -46.221  29.700   3.735  0.00  0.00    -0.023 C 
ATOM     13  C   UNL     1     -46.983  27.823   5.061  0.00  0.00    +0.200 C 
ATOM     14  C   UNL     1     -47.253  29.030   4.253  0.00  0.00    +0.035 C 
ENDROOT
BRANCH   7  15
ATOM     15  O   UNL     1     -41.601  27.823   4.457  0.00  0.00    -0.376 OA
ATOM     16  H   UNL     1     -41.624  27.197   5.197  0.00  0.00    +0.211 HD
ENDBRANCH   7  15
BRANCH   8  17
ATOM     17  O   UNL     1     -45.475  26.431   6.283  0.00  0.00    -0.376 OA
ATOM     18  H   UNL     1     -45.034  25.881   5.618  0.00  0.00    +0.211 HD
ENDBRANCH   8  17
BRANCH   7  19
ATOM     19  C   UNL     1     -41.749  26.269   2.642  0.00  0.00    +0.242 C 
BRANCH  19  20
ATOM     20  O   UNL     1     -40.540  25.961   3.310  0.00  0.00    -0.442 OA
BRANCH  20  22
ATOM     21  O   UNL     1     -39.166  26.914   1.727  0.00  0.00    -0.245 OA
ATOM     22  C   UNL     1     -39.397  26.060   2.569  0.00  0.00    +0.341 C 
BRANCH  22  23
ATOM     23  C   UNL     1     -38.442  24.979   2.917  0.00  0.00    +0.076 C 
ATOM     24  C   UNL     1     -38.614  23.700   2.387  0.00  0.00    +0.006 C 
ATOM     25  C   UNL     1     -37.371  25.241   3.772  0.00  0.00    +0.006 C 
ATOM     26  C   UNL     1     -37.716  22.684   2.713  0.00  0.00    +0.000 C 
ATOM     27  C   UNL     1     -36.474  24.225   4.097  0.00  0.00    +0.000 C 
ATOM     28  C   UNL     1     -36.645  22.947   3.568  0.00  0.00    +0.000 C 
ENDBRANCH  22  23
ENDBRANCH  20  22
ENDBRANCH  19  20
ENDBRANCH   7  19
BRANCH   8  29
ATOM     29  C   UNL     1     -45.684  28.701   6.981  0.00  0.00    +0.243 C 
BRANCH  29  30
ATOM     30  O   UNL     1     -44.420  29.321   7.099  0.00  0.00    -0.442 OA
BRANCH  30  32
ATOM     31  O   UNL     1     -44.013  30.808   8.809  0.00  0.00    -0.245 OA
ATOM     32  C   UNL     1     -44.402  30.557   7.678  0.00  0.00    +0.341 C 
BRANCH  32  33
ATOM     33  C   UNL     1     -44.925  31.591   6.748  0.00  0.00    +0.076 C 
ATOM     34  C   UNL     1     -46.240  32.039   6.871  0.00  0.00    +0.006 C 
ATOM     35  C   UNL     1     -44.100  32.115   5.755  0.00  0.00    +0.006 C 
ATOM     36  C   UNL     1     -46.730  33.011   6.000  0.00  0.00    +0.000 C 
ATOM     37  C   UNL     1     -44.589  33.088   4.883  0.00  0.00    +0.000 C 
ATOM     38  C   UNL     1     -45.905  33.535   5.005  0.00  0.00    +0.000 C 
ENDBRANCH  32  33
ENDBRANCH  30  32
ENDBRANCH  29  30
ENDBRANCH   8  29
TORSDOF 10
ENDMDL
MODEL 2
REMARK VINA RESULT:      -6.9      8.034      9.875
REMARK  Name = 53362276
REMARK  10 active torsions:
REMARK  status: ('A' for Active; 'I' for Inactive)
REMARK    1  A    between atoms: C_7  and  O_15
REMARK    2  A    between atoms: C_7  and  C_19
REMARK    3  A    between atoms: C_8  and  O_17
REMARK    4  A    between atoms: C_8  and  C_29
REMARK    5  A    between atoms: C_19  and  O_20
REMARK    6  A    between atoms: O_20  and  C_22
REMARK    7  A    between atoms: C_22  and  C_23
REMARK    8  A    between atoms: C_29  and  O_30
REMARK    9  A    between atoms: O_30  and  C_32
REMARK   10  A    between atoms: C_32  and  C_33
REMARK                            x       y       z     vdW  Elec       q    Type
REMARK                         _______ _______ _______ _____ _____    ______ ____
ROOT
ATOM      1  O   UNL     1     -33.147  27.485   5.412  0.00  0.00    -0.294 OA
ATOM      2  O   UNL     1     -34.837  25.695  -1.266  0.00  0.00    -0.289 OA
ATOM      3  C   UNL     1     -35.237  27.081   2.028  0.00  0.00    +0.043 C 
ATOM      4  C   UNL     1     -35.184  25.771   2.902  0.00  0.00    +0.038 C 
ATOM      5  C   UNL     1     -33.834  27.802   2.091  0.00  0.00    +0.032 C 
ATOM      6  C   UNL     1     -32.898  27.009   3.050  0.00  0.00    +0.064 C 
ATOM      7  C   UNL     1     -34.932  26.178   4.394  0.00  0.00    +0.179 C 
ATOM      8  C   UNL     1     -35.799  26.913   0.595  0.00  0.00    +0.184 C 
ATOM      9  C   UNL     1     -33.598  26.942   4.407  0.00  0.00    +0.178 C 
ATOM     10  C   UNL     1     -33.997  24.945   2.452  0.00  0.00    +0.003 C 
ATOM     11  C   UNL     1     -32.815  25.570   2.585  0.00  0.00    +0.008 C 
ATOM     12  C   UNL     1     -33.125  27.971   0.768  0.00  0.00    -0.023 C 
ATOM     13  C   UNL     1     -34.707  26.567  -0.410  0.00  0.00    +0.200 C 
ATOM     14  C   UNL     1     -33.479  27.386  -0.379  0.00  0.00    +0.035 C 
ENDROOT
BRANCH   7  15
ATOM     15  O   UNL     1     -35.953  27.060   4.838  0.00  0.00    -0.376 OA
ATOM     16  H   UNL     1     -36.727  26.976   4.260  0.00  0.00    +0.211 HD
ENDBRANCH   7  15
BRANCH   8  17
ATOM     17  O   UNL     1     -36.772  25.875   0.571  0.00  0.00    -0.376 OA
ATOM     18  H   UNL     1     -37.097  25.757  -0.335  0.00  0.00    +0.211 HD
ENDBRANCH   8  17
BRANCH   7  19
ATOM     19  C   UNL     1     -34.880  24.982   5.345  0.00  0.00    +0.242 C 
BRANCH  19  20
ATOM     20  O   UNL     1     -36.105  24.280   5.247  0.00  0.00    -0.442 OA
BRANCH  20  22
ATOM     21  O   UNL     1     -35.893  22.257   6.327  0.00  0.00    -0.245 OA
ATOM     22  C   UNL     1     -36.028  22.918   5.309  0.00  0.00    +0.341 C 
BRANCH  22  23
ATOM     23  C   UNL     1     -36.130  22.318   3.955  0.00  0.00    +0.076 C 
ATOM     24  C   UNL     1     -37.090  22.784   3.056  0.00  0.00    +0.006 C 
ATOM     25  C   UNL     1     -35.266  21.289   3.581  0.00  0.00    +0.006 C 
ATOM     26  C   UNL     1     -37.185  22.221   1.784  0.00  0.00    +0.000 C 
ATOM     27  C   UNL     1     -35.361  20.726   2.309  0.00  0.00    +0.000 C 
ATOM     28  C   UNL     1     -36.320  21.192   1.410  0.00  0.00    +0.000 C 
ENDBRANCH  22  23
ENDBRANCH  20  22
ENDBRANCH  19  20
ENDBRANCH   7  19
BRANCH   8  29
ATOM     29  C   UNL     1     -36.495  28.200   0.124  0.00  0.00    +0.243 C 
BRANCH  29  30
ATOM     30  O   UNL     1     -36.918  28.914   1.267  0.00  0.00    -0.442 OA
BRANCH  30  32
ATOM     31  O   UNL     1     -37.787  30.984   0.756  0.00  0.00    -0.245 OA
ATOM     32  C   UNL     1     -36.885  30.276   1.178  0.00  0.00    +0.341 C 
BRANCH  32  33
ATOM     33  C   UNL     1     -35.590  30.813   1.668  0.00  0.00    +0.076 C 
ATOM     34  C   UNL     1     -34.674  31.357   0.767  0.00  0.00    +0.006 C 
ATOM     35  C   UNL     1     -35.290  30.776   3.029  0.00  0.00    +0.006 C 
ATOM     36  C   UNL     1     -33.459  31.862   1.227  0.00  0.00    +0.000 C 
ATOM     37  C   UNL     1     -34.075  31.282   3.490  0.00  0.00    +0.000 C 
ATOM     38  C   UNL     1     -33.159  31.824   2.589  0.00  0.00    +0.000 C 
ENDBRANCH  32  33
ENDBRANCH  30  32
ENDBRANCH  29  30
ENDBRANCH   8  29
TORSDOF 10
ENDMDL
MODEL 3
REMARK VINA RESULT:      -6.8      8.539     12.604
REMARK  Name = 53362276
REMARK  10 active torsions:
REMARK  status: ('A' for Active; 'I' for Inactive)
REMARK    1  A    between atoms: C_7  and  O_15
REMARK    2  A    between atoms: C_7  and  C_19
REMARK    3  A    between atoms: C_8  and  O_17
REMARK    4  A    between atoms: C_8  and  C_29
REMARK    5  A    between atoms: C_19  and  O_20
REMARK    6  A    between atoms: O_20  and  C_22
REMARK    7  A    between atoms: C_22  and  C_23
REMARK    8  A    between atoms: C_29  and  O_30
REMARK    9  A    between atoms: O_30  and  C_32
REMARK   10  A    between atoms: C_32  and  C_33
REMARK                            x       y       z     vdW  Elec       q    Type
REMARK                         _______ _______ _______ _____ _____    ______ ____
ROOT
ATOM      1  O   UNL     1     -32.595  27.011   5.584  0.00  0.00    -0.294 OA
ATOM      2  O   UNL     1     -37.798  22.786   3.190  0.00  0.00    -0.289 OA
ATOM      3  C   UNL     1     -34.611  24.450   3.269  0.00  0.00    +0.043 C 
ATOM      4  C   UNL     1     -35.064  25.950   3.101  0.00  0.00    +0.038 C 
ATOM      5  C   UNL     1     -34.302  24.171   4.792  0.00  0.00    +0.032 C 
ATOM      6  C   UNL     1     -34.481  25.492   5.597  0.00  0.00    +0.064 C 
ATOM      7  C   UNL     1     -33.871  26.879   3.514  0.00  0.00    +0.179 C 
ATOM      8  C   UNL     1     -35.526  23.392   2.605  0.00  0.00    +0.184 C 
ATOM      9  C   UNL     1     -33.546  26.529   4.975  0.00  0.00    +0.178 C 
ATOM     10  C   UNL     1     -36.199  26.217   4.065  0.00  0.00    +0.003 C 
ATOM     11  C   UNL     1     -35.875  26.034   5.356  0.00  0.00    +0.008 C 
ATOM     12  C   UNL     1     -35.140  23.099   5.445  0.00  0.00    -0.023 C 
ATOM     13  C   UNL     1     -36.629  22.920   3.544  0.00  0.00    +0.200 C 
ATOM     14  C   UNL     1     -36.231  22.540   4.915  0.00  0.00    +0.035 C 
ENDROOT
BRANCH   7  15
ATOM     15  O   UNL     1     -32.728  26.587   2.723  0.00  0.00    -0.376 OA
ATOM     16  H   UNL     1     -32.992  26.049   1.960  0.00  0.00    +0.211 HD
ENDBRANCH   7  15
BRANCH   8  17
ATOM     17  O   UNL     1     -36.135  23.936   1.439  0.00  0.00    -0.376 OA
ATOM     18  H   UNL     1     -36.680  23.257   1.013  0.00  0.00    +0.211 HD
ENDBRANCH   8  17
BRANCH   7  19
ATOM     19  C   UNL     1     -34.188  28.368   3.372  0.00  0.00    +0.242 C 
BRANCH  19  20
ATOM     20  O   UNL     1     -33.052  29.018   2.833  0.00  0.00    -0.442 OA
BRANCH  20  22
ATOM     21  O   UNL     1     -33.085  31.299   3.138  0.00  0.00    -0.245 OA
ATOM     22  C   UNL     1     -32.681  30.185   3.434  0.00  0.00    +0.341 C 
BRANCH  22  23
ATOM     23  C   UNL     1     -31.701  29.936   4.521  0.00  0.00    +0.076 C 
ATOM     24  C   UNL     1     -30.454  29.387   4.223  0.00  0.00    +0.006 C 
ATOM     25  C   UNL     1     -32.028  30.251   5.841  0.00  0.00    +0.006 C 
ATOM     26  C   UNL     1     -29.533  29.154   5.244  0.00  0.00    +0.000 C 
ATOM     27  C   UNL     1     -31.107  30.017   6.861  0.00  0.00    +0.000 C 
ATOM     28  C   UNL     1     -29.859  29.470   6.563  0.00  0.00    +0.000 C 
ENDBRANCH  22  23
ENDBRANCH  20  22
ENDBRANCH  19  20
ENDBRANCH   7  19
BRANCH   8  29
ATOM     29  C   UNL     1     -34.714  22.164   2.163  0.00  0.00    +0.243 C 
BRANCH  29  30
ATOM     30  O   UNL     1     -34.661  22.158   0.751  0.00  0.00    -0.442 OA
BRANCH  30  32
ATOM     31  O   UNL     1     -35.758  20.577  -0.513  0.00  0.00    -0.245 OA
ATOM     32  C   UNL     1     -34.795  20.942   0.144  0.00  0.00    +0.341 C 
BRANCH  32  33
ATOM     33  C   UNL     1     -33.601  20.091   0.382  0.00  0.00    +0.076 C 
ATOM     34  C   UNL     1     -32.356  20.480  -0.113  0.00  0.00    +0.006 C 
ATOM     35  C   UNL     1     -33.725  18.904   1.103  0.00  0.00    +0.006 C 
ATOM     36  C   UNL     1     -31.236  19.681   0.112  0.00  0.00    +0.000 C 
ATOM     37  C   UNL     1     -32.604  18.105   1.329  0.00  0.00    +0.000 C 
ATOM     38  C   UNL     1     -31.360  18.493   0.832  0.00  0.00    +0.000 C 
ENDBRANCH  32  33
ENDBRANCH  30  32
ENDBRANCH  29  30
ENDBRANCH   8  29
TORSDOF 10
ENDMDL
MODEL 4
REMARK VINA RESULT:      -6.8      8.967     12.394
REMARK  Name = 53362276
REMARK  10 active torsions:
REMARK  status: ('A' for Active; 'I' for Inactive)
REMARK    1  A    between atoms: C_7  and  O_15
REMARK    2  A    between atoms: C_7  and  C_19
REMARK    3  A    between atoms: C_8  and  O_17
REMARK    4  A    between atoms: C_8  and  C_29
REMARK    5  A    between atoms: C_19  and  O_20
REMARK    6  A    between atoms: O_20  and  C_22
REMARK    7  A    between atoms: C_22  and  C_23
REMARK    8  A    between atoms: C_29  and  O_30
REMARK    9  A    between atoms: O_30  and  C_32
REMARK   10  A    between atoms: C_32  and  C_33
REMARK                            x       y       z     vdW  Elec       q    Type
REMARK                         _______ _______ _______ _____ _____    ______ ____
ROOT
ATOM      1  O   UNL     1     -31.675  18.906  -1.048  0.00  0.00    -0.294 OA
ATOM      2  O   UNL     1     -37.664  21.834   1.444  0.00  0.00    -0.289 OA
ATOM      3  C   UNL     1     -34.568  20.006   1.483  0.00  0.00    +0.043 C 
ATOM      4  C   UNL     1     -34.948  18.772   0.580  0.00  0.00    +0.038 C 
ATOM      5  C   UNL     1     -33.739  21.039   0.623  0.00  0.00    +0.032 C 
ATOM      6  C   UNL     1     -33.521  20.455  -0.803  0.00  0.00    +0.064 C 
ATOM      7  C   UNL     1     -33.628  18.057   0.131  0.00  0.00    +0.179 C 
ATOM      8  C   UNL     1     -35.731  20.639   2.284  0.00  0.00    +0.184 C 
ATOM      9  C   UNL     1     -32.813  19.110  -0.636  0.00  0.00    +0.178 C 
ATOM     10  C   UNL     1     -35.629  19.287  -0.670  0.00  0.00    +0.003 C 
ATOM     11  C   UNL     1     -34.867  20.110  -1.409  0.00  0.00    +0.008 C 
ATOM     12  C   UNL     1     -34.348  22.414   0.485  0.00  0.00    -0.023 C 
ATOM     13  C   UNL     1     -36.440  21.732   1.495  0.00  0.00    +0.200 C 
ATOM     14  C   UNL     1     -35.593  22.747   0.837  0.00  0.00    +0.035 C 
ENDROOT
BRANCH   7  15
ATOM     15  O   UNL     1     -32.878  17.659   1.270  0.00  0.00    -0.376 OA
ATOM     16  H   UNL     1     -33.483  17.373   1.972  0.00  0.00    +0.211 HD
ENDBRANCH   7  15
BRANCH   8  17
ATOM     17  O   UNL     1     -36.688  19.642   2.625  0.00  0.00    -0.376 OA
ATOM     18  H   UNL     1     -36.760  19.003   1.900  0.00  0.00    +0.211 HD
ENDBRANCH   8  17
BRANCH   7  19
ATOM     19  C   UNL     1     -33.875  16.824  -0.739  0.00  0.00    +0.242 C 
BRANCH  19  20
ATOM     20  O   UNL     1     -34.656  15.905   0.000  0.00  0.00    -0.442 OA
BRANCH  20  22
ATOM     21  O   UNL     1     -35.265  13.904  -0.963  0.00  0.00    -0.245 OA
ATOM     22  C   UNL     1     -35.471  15.084  -0.725  0.00  0.00    +0.341 C 
BRANCH  22  23
ATOM     23  C   UNL     1     -36.671  15.814  -1.205  0.00  0.00    +0.076 C 
ATOM     24  C   UNL     1     -37.657  16.207  -0.299  0.00  0.00    +0.006 C 
ATOM     25  C   UNL     1     -36.813  16.108  -2.562  0.00  0.00    +0.006 C 
ATOM     26  C   UNL     1     -38.783  16.895  -0.750  0.00  0.00    +0.000 C 
ATOM     27  C   UNL     1     -37.940  16.795  -3.012  0.00  0.00    +0.000 C 
ATOM     28  C   UNL     1     -38.925  17.190  -2.107  0.00  0.00    +0.000 C 
ENDBRANCH  22  23
ENDBRANCH  20  22
ENDBRANCH  19  20
ENDBRANCH   7  19
BRANCH   8  29
ATOM     29  C   UNL     1     -35.222  21.249   3.600  0.00  0.00    +0.243 C 
BRANCH  29  30
ATOM     30  O   UNL     1     -36.235  22.088   4.115  0.00  0.00    -0.442 OA
BRANCH  30  32
ATOM     31  O   UNL     1     -35.938  22.423   6.374  0.00  0.00    -0.245 OA
ATOM     32  C   UNL     1     -35.912  22.823   5.220  0.00  0.00    +0.341 C 
BRANCH  32  33
ATOM     33  C   UNL     1     -35.514  24.204   4.845  0.00  0.00    +0.076 C 
ATOM     34  C   UNL     1     -36.218  24.889   3.855  0.00  0.00    +0.006 C 
ATOM     35  C   UNL     1     -34.438  24.817   5.486  0.00  0.00    +0.006 C 
ATOM     36  C   UNL     1     -35.845  26.186   3.505  0.00  0.00    +0.000 C 
ATOM     37  C   UNL     1     -34.065  26.114   5.137  0.00  0.00    +0.000 C 
ATOM     38  C   UNL     1     -34.768  26.799   4.145  0.00  0.00    +0.000 C 
ENDBRANCH  32  33
ENDBRANCH  30  32
ENDBRANCH  29  30
ENDBRANCH   8  29
TORSDOF 10
ENDMDL
MODEL 5
REMARK VINA RESULT:      -6.8      3.453      9.824
REMARK  Name = 53362276
REMARK  10 active torsions:
REMARK  status: ('A' for Active; 'I' for Inactive)
REMARK    1  A    between atoms: C_7  and  O_15
REMARK    2  A    between atoms: C_7  and  C_19
REMARK    3  A    between atoms: C_8  and  O_17
REMARK    4  A    between atoms: C_8  and  C_29
REMARK    5  A    between atoms: C_19  and  O_20
REMARK    6  A    between atoms: O_20  and  C_22
REMARK    7  A    between atoms: C_22  and  C_23
REMARK    8  A    between atoms: C_29  and  O_30
REMARK    9  A    between atoms: O_30  and  C_32
REMARK   10  A    between atoms: C_32  and  C_33
REMARK                            x       y       z     vdW  Elec       q    Type
REMARK                         _______ _______ _______ _____ _____    ______ ____
ROOT
ATOM      1  O   UNL     1     -40.163  22.951   2.174  0.00  0.00    -0.294 OA
ATOM      2  O   UNL     1     -35.801  27.885  -0.525  0.00  0.00    -0.289 OA
ATOM      3  C   UNL     1     -37.404  25.837   1.958  0.00  0.00    +0.043 C 
ATOM      4  C   UNL     1     -38.885  26.365   1.857  0.00  0.00    +0.038 C 
ATOM      5  C   UNL     1     -37.287  24.474   1.169  0.00  0.00    +0.032 C 
ATOM      6  C   UNL     1     -38.689  24.082   0.619  0.00  0.00    +0.064 C 
ATOM      7  C   UNL     1     -39.831  25.332   2.561  0.00  0.00    +0.179 C 
ATOM      8  C   UNL     1     -36.298  26.864   1.616  0.00  0.00    +0.184 C 
ATOM      9  C   UNL     1     -39.636  24.001   1.817  0.00  0.00    +0.178 C 
ATOM     10  C   UNL     1     -39.277  26.412   0.395  0.00  0.00    +0.003 C 
ATOM     11  C   UNL     1     -39.228  25.221  -0.223  0.00  0.00    +0.008 C 
ATOM     12  C   UNL     1     -36.307  24.466   0.020  0.00  0.00    -0.023 C 
ATOM     13  C   UNL     1     -35.951  26.858   0.132  0.00  0.00    +0.200 C 
ATOM     14  C   UNL     1     -35.714  25.544  -0.500  0.00  0.00    +0.035 C 
ENDROOT
BRANCH   7  15
ATOM     15  O   UNL     1     -39.433  25.148   3.912  0.00  0.00    -0.376 OA
ATOM     16  H   UNL     1     -38.681  24.537   3.947  0.00  0.00    +0.211 HD
ENDBRANCH   7  15
BRANCH   8  17
ATOM     17  O   UNL     1     -36.723  28.175   1.969  0.00  0.00    -0.376 OA
ATOM     18  H   UNL     1     -37.301  28.525   1.275  0.00  0.00    +0.211 HD
ENDBRANCH   8  17
BRANCH   7  19
ATOM     19  C   UNL     1     -41.302  25.751   2.543  0.00  0.00    +0.242 C 
BRANCH  19  20
ATOM     20  O   UNL     1     -41.577  26.464   3.734  0.00  0.00    -0.442 OA
BRANCH  20  22
ATOM     21  O   UNL     1     -42.392  28.599   3.451  0.00  0.00    -0.245 OA
ATOM     22  C   UNL     1     -42.561  27.408   3.659  0.00  0.00    +0.341 C 
BRANCH  22  23
ATOM     23  C   UNL     1     -43.899  26.798   3.867  0.00  0.00    +0.076 C 
ATOM     24  C   UNL     1     -44.491  26.052   2.849  0.00  0.00    +0.006 C 
ATOM     25  C   UNL     1     -44.563  26.972   5.082  0.00  0.00    +0.006 C 
ATOM     26  C   UNL     1     -45.747  25.478   3.046  0.00  0.00    +0.000 C 
ATOM     27  C   UNL     1     -45.819  26.399   5.278  0.00  0.00    +0.000 C 
ATOM     28  C   UNL     1     -46.411  25.651   4.260  0.00  0.00    +0.000 C 
ENDBRANCH  22  23
ENDBRANCH  20  22
ENDBRANCH  19  20
ENDBRANCH   7  19
BRANCH   8  29
ATOM     29  C   UNL     1     -35.014  26.573   2.410  0.00  0.00    +0.243 C 
BRANCH  29  30
ATOM     30  O   UNL     1     -35.386  26.080   3.680  0.00  0.00    -0.442 OA
BRANCH  30  32
ATOM     31  O   UNL     1     -33.365  25.945   4.776  0.00  0.00    -0.245 OA
ATOM     32  C   UNL     1     -34.412  25.443   4.393  0.00  0.00    +0.341 C 
BRANCH  32  33
ATOM     33  C   UNL     1     -34.780  24.029   4.658  0.00  0.00    +0.076 C 
ATOM     34  C   UNL     1     -35.057  23.169   3.594  0.00  0.00    +0.006 C 
ATOM     35  C   UNL     1     -34.848  23.560   5.969  0.00  0.00    +0.006 C 
ATOM     36  C   UNL     1     -35.402  21.841   3.843  0.00  0.00    +0.000 C 
ATOM     37  C   UNL     1     -35.191  22.232   6.218  0.00  0.00    +0.000 C 
ATOM     38  C   UNL     1     -35.469  21.372   5.155  0.00  0.00    +0.000 C 
ENDBRANCH  32  33
ENDBRANCH  30  32
ENDBRANCH  29  30
ENDBRANCH   8  29
TORSDOF 10
ENDMDL
MODEL 6
REMARK VINA RESULT:      -6.8      3.877     10.363
REMARK  Name = 53362276
REMARK  10 active torsions:
REMARK  status: ('A' for Active; 'I' for Inactive)
REMARK    1  A    between atoms: C_7  and  O_15
REMARK    2  A    between atoms: C_7  and  C_19
REMARK    3  A    between atoms: C_8  and  O_17
REMARK    4  A    between atoms: C_8  and  C_29
REMARK    5  A    between atoms: C_19  and  O_20
REMARK    6  A    between atoms: O_20  and  C_22
REMARK    7  A    between atoms: C_22  and  C_23
REMARK    8  A    between atoms: C_29  and  O_30
REMARK    9  A    between atoms: O_30  and  C_32
REMARK   10  A    between atoms: C_32  and  C_33
REMARK                            x       y       z     vdW  Elec       q    Type
REMARK                         _______ _______ _______ _____ _____    ______ ____
ROOT
ATOM      1  O   UNL     1     -38.581  23.993  -0.315  0.00  0.00    -0.294 OA
ATOM      2  O   UNL     1     -34.319  27.008   4.523  0.00  0.00    -0.289 OA
ATOM      3  C   UNL     1     -36.830  24.808   3.185  0.00  0.00    +0.043 C 
ATOM      4  C   UNL     1     -37.937  25.850   2.771  0.00  0.00    +0.038 C 
ATOM      5  C   UNL     1     -36.022  24.374   1.900  0.00  0.00    +0.032 C 
ATOM      6  C   UNL     1     -36.639  25.071   0.652  0.00  0.00    +0.064 C 
ATOM      7  C   UNL     1     -38.945  25.146   1.799  0.00  0.00    +0.179 C 
ATOM      8  C   UNL     1     -35.940  25.213   4.386  0.00  0.00    +0.184 C 
ATOM      9  C   UNL     1     -38.113  24.670   0.597  0.00  0.00    +0.178 C 
ATOM     10  C   UNL     1     -37.273  26.971   1.999  0.00  0.00    +0.003 C 
ATOM     11  C   UNL     1     -36.654  26.569   0.877  0.00  0.00    +0.008 C 
ATOM     12  C   UNL     1     -34.542  24.672   1.926  0.00  0.00    -0.023 C 
ATOM     13  C   UNL     1     -34.709  25.995   3.947  0.00  0.00    +0.200 C 
ATOM     14  C   UNL     1     -33.923  25.442   2.826  0.00  0.00    +0.035 C 
ENDROOT
BRANCH   7  15
ATOM     15  O   UNL     1     -39.511  24.004   2.426  0.00  0.00    -0.376 OA
ATOM     16  H   UNL     1     -39.882  24.259   3.285  0.00  0.00    +0.211 HD
ENDBRANCH   7  15
BRANCH   8  17
ATOM     17  O   UNL     1     -36.682  26.020   5.293  0.00  0.00    -0.376 OA
ATOM     18  H   UNL     1     -37.627  25.955   5.085  0.00  0.00    +0.211 HD
ENDBRANCH   8  17
BRANCH   7  19
ATOM     19  C   UNL     1     -40.082  26.060   1.342  0.00  0.00    +0.242 C 
BRANCH  19  20
ATOM     20  O   UNL     1     -41.080  26.067   2.346  0.00  0.00    -0.442 OA
BRANCH  20  22
ATOM     21  O   UNL     1     -41.863  28.163   1.803  0.00  0.00    -0.245 OA
ATOM     22  C   UNL     1     -42.036  27.036   2.242  0.00  0.00    +0.341 C 
BRANCH  22  23
ATOM     23  C   UNL     1     -43.346  26.547   2.739  0.00  0.00    +0.076 C 
ATOM     24  C   UNL     1     -44.114  25.689   1.951  0.00  0.00    +0.006 C 
ATOM     25  C   UNL     1     -43.809  26.944   3.993  0.00  0.00    +0.006 C 
ATOM     26  C   UNL     1     -45.344  25.228   2.419  0.00  0.00    +0.000 C 
ATOM     27  C   UNL     1     -45.040  26.483   4.460  0.00  0.00    +0.000 C 
ATOM     28  C   UNL     1     -45.807  25.625   3.674  0.00  0.00    +0.000 C 
ENDBRANCH  22  23
ENDBRANCH  20  22
ENDBRANCH  19  20
ENDBRANCH   7  19
BRANCH   8  29
ATOM     29  C   UNL     1     -35.470  23.972   5.163  0.00  0.00    +0.243 C 
BRANCH  29  30
ATOM     30  O   UNL     1     -36.263  22.875   4.760  0.00  0.00    -0.442 OA
BRANCH  30  32
ATOM     31  O   UNL     1     -34.953  21.108   5.438  0.00  0.00    -0.245 OA
ATOM     32  C   UNL     1     -35.614  21.686   4.589  0.00  0.00    +0.341 C 
BRANCH  32  33
ATOM     33  C   UNL     1     -35.808  21.163   3.213  0.00  0.00    +0.076 C 
ATOM     34  C   UNL     1     -37.028  21.348   2.561  0.00  0.00    +0.006 C 
ATOM     35  C   UNL     1     -34.770  20.489   2.570  0.00  0.00    +0.006 C 
ATOM     36  C   UNL     1     -37.209  20.858   1.269  0.00  0.00    +0.000 C 
ATOM     37  C   UNL     1     -34.951  20.000   1.277  0.00  0.00    +0.000 C 
ATOM     38  C   UNL     1     -36.171  20.183   0.627  0.00  0.00    +0.000 C 
ENDBRANCH  32  33
ENDBRANCH  30  32
ENDBRANCH  29  30
ENDBRANCH   8  29
TORSDOF 10
ENDMDL
MODEL 7
REMARK VINA RESULT:      -6.7      6.439      9.441
REMARK  Name = 53362276
REMARK  10 active torsions:
REMARK  status: ('A' for Active; 'I' for Inactive)
REMARK    1  A    between atoms: C_7  and  O_15
REMARK    2  A    between atoms: C_7  and  C_19
REMARK    3  A    between atoms: C_8  and  O_17
REMARK    4  A    between atoms: C_8  and  C_29
REMARK    5  A    between atoms: C_19  and  O_20
REMARK    6  A    between atoms: O_20  and  C_22
REMARK    7  A    between atoms: C_22  and  C_23
REMARK    8  A    between atoms: C_29  and  O_30
REMARK    9  A    between atoms: O_30  and  C_32
REMARK   10  A    between atoms: C_32  and  C_33
REMARK                            x       y       z     vdW  Elec       q    Type
REMARK                         _______ _______ _______ _____ _____    ______ ____
ROOT
ATOM      1  O   UNL     1     -34.894  26.442   6.149  0.00  0.00    -0.294 OA
ATOM      2  O   UNL     1     -34.601  26.167  -0.957  0.00  0.00    -0.289 OA
ATOM      3  C   UNL     1     -36.059  26.293   2.327  0.00  0.00    +0.043 C 
ATOM      4  C   UNL     1     -35.594  24.903   2.905  0.00  0.00    +0.038 C 
ATOM      5  C   UNL     1     -35.121  27.429   2.896  0.00  0.00    +0.032 C 
ATOM      6  C   UNL     1     -34.101  26.796   3.887  0.00  0.00    +0.064 C 
ATOM      7  C   UNL     1     -35.774  24.924   4.462  0.00  0.00    +0.179 C 
ATOM      8  C   UNL     1     -36.265  26.351   0.794  0.00  0.00    +0.184 C 
ATOM      9  C   UNL     1     -34.909  26.086   4.974  0.00  0.00    +0.178 C 
ATOM     10  C   UNL     1     -34.115  24.740   2.624  0.00  0.00    +0.003 C 
ATOM     11  C   UNL     1     -33.345  25.689   3.182  0.00  0.00    +0.008 C 
ATOM     12  C   UNL     1     -34.354  28.221   1.865  0.00  0.00    -0.023 C 
ATOM     13  C   UNL     1     -34.988  26.738   0.060  0.00  0.00    +0.200 C 
ATOM     14  C   UNL     1     -34.243  27.905   0.573  0.00  0.00    +0.035 C 
ENDROOT
BRANCH   7  15
ATOM     15  O   UNL     1     -37.128  25.200   4.792  0.00  0.00    -0.376 OA
ATOM     16  H   UNL     1     -37.595  25.516   4.002  0.00  0.00    +0.211 HD
ENDBRANCH   7  15
BRANCH   8  17
ATOM     17  O   UNL     1     -36.691  25.082   0.311  0.00  0.00    -0.376 OA
ATOM     18  H   UNL     1     -36.741  24.455   1.049  0.00  0.00    +0.211 HD
ENDBRANCH   8  17
BRANCH   7  19
ATOM     19  C   UNL     1     -35.371  23.612   5.134  0.00  0.00    +0.242 C 
BRANCH  19  20
ATOM     20  O   UNL     1     -36.191  22.577   4.623  0.00  0.00    -0.442 OA
BRANCH  20  22
ATOM     21  O   UNL     1     -34.997  20.668   5.106  0.00  0.00    -0.245 OA
ATOM     22  C   UNL     1     -35.562  21.406   4.313  0.00  0.00    +0.341 C 
BRANCH  22  23
ATOM     23  C   UNL     1     -35.649  21.125   2.858  0.00  0.00    +0.076 C 
ATOM     24  C   UNL     1     -36.637  21.737   2.087  0.00  0.00    +0.006 C 
ATOM     25  C   UNL     1     -34.740  20.250   2.261  0.00  0.00    +0.006 C 
ATOM     26  C   UNL     1     -36.717  21.474   0.719  0.00  0.00    +0.000 C 
ATOM     27  C   UNL     1     -34.821  19.987   0.894  0.00  0.00    +0.000 C 
ATOM     28  C   UNL     1     -35.808  20.600   0.122  0.00  0.00    +0.000 C 
ENDBRANCH  22  23
ENDBRANCH  20  22
ENDBRANCH  19  20
ENDBRANCH   7  19
BRANCH   8  29
ATOM     29  C   UNL     1     -37.358  27.368   0.425  0.00  0.00    +0.243 C 
BRANCH  29  30
ATOM     30  O   UNL     1     -38.316  27.378   1.463  0.00  0.00    -0.442 OA
BRANCH  30  32
ATOM     31  O   UNL     1     -40.473  27.750   0.749  0.00  0.00    -0.245 OA
ATOM     32  C   UNL     1     -39.584  27.001   1.122  0.00  0.00    +0.341 C 
BRANCH  32  33
ATOM     33  C   UNL     1     -39.761  25.533   1.263  0.00  0.00    +0.076 C 
ATOM     34  C   UNL     1     -39.525  24.916   2.492  0.00  0.00    +0.006 C 
ATOM     35  C   UNL     1     -40.167  24.772   0.168  0.00  0.00    +0.006 C 
ATOM     36  C   UNL     1     -39.693  23.538   2.624  0.00  0.00    +0.000 C 
ATOM     37  C   UNL     1     -40.337  23.395   0.300  0.00  0.00    +0.000 C 
ATOM     38  C   UNL     1     -40.099  22.777   1.528  0.00  0.00    +0.000 C 
ENDBRANCH  32  33
ENDBRANCH  30  32
ENDBRANCH  29  30
ENDBRANCH   8  29
TORSDOF 10
ENDMDL
MODEL 8
REMARK VINA RESULT:      -6.7      7.969     12.206
REMARK  Name = 53362276
REMARK  10 active torsions:
REMARK  status: ('A' for Active; 'I' for Inactive)
REMARK    1  A    between atoms: C_7  and  O_15
REMARK    2  A    between atoms: C_7  and  C_19
REMARK    3  A    between atoms: C_8  and  O_17
REMARK    4  A    between atoms: C_8  and  C_29
REMARK    5  A    between atoms: C_19  and  O_20
REMARK    6  A    between atoms: O_20  and  C_22
REMARK    7  A    between atoms: C_22  and  C_23
REMARK    8  A    between atoms: C_29  and  O_30
REMARK    9  A    between atoms: O_30  and  C_32
REMARK   10  A    between atoms: C_32  and  C_33
REMARK                            x       y       z     vdW  Elec       q    Type
REMARK                         _______ _______ _______ _____ _____    ______ ____
ROOT
ATOM      1  O   UNL     1     -31.344  26.019   2.466  0.00  0.00    -0.294 OA
ATOM      2  O   UNL     1     -38.177  24.683   3.940  0.00  0.00    -0.289 OA
ATOM      3  C   UNL     1     -34.902  24.198   2.537  0.00  0.00    +0.043 C 
ATOM      4  C   UNL     1     -34.831  25.416   1.539  0.00  0.00    +0.038 C 
ATOM      5  C   UNL     1     -34.092  24.554   3.845  0.00  0.00    +0.032 C 
ATOM      6  C   UNL     1     -33.442  25.959   3.674  0.00  0.00    +0.064 C 
ATOM      7  C   UNL     1     -33.336  25.631   1.121  0.00  0.00    +0.179 C 
ATOM      8  C   UNL     1     -36.316  23.627   2.803  0.00  0.00    +0.184 C 
ATOM      9  C   UNL     1     -32.565  25.899   2.423  0.00  0.00    +0.178 C 
ATOM     10  C   UNL     1     -35.278  26.662   2.274  0.00  0.00    +0.003 C 
ATOM     11  C   UNL     1     -34.522  26.968   3.341  0.00  0.00    +0.008 C 
ATOM     12  C   UNL     1     -34.888  24.552   5.128  0.00  0.00    -0.023 C 
ATOM     13  C   UNL     1     -37.003  24.323   3.972  0.00  0.00    +0.200 C 
ATOM     14  C   UNL     1     -36.219  24.489   5.213  0.00  0.00    +0.035 C 
ENDROOT
BRANCH   7  15
ATOM     15  O   UNL     1     -32.818  24.445   0.535  0.00  0.00    -0.376 OA
ATOM     16  H   UNL     1     -33.292  23.676   0.889  0.00  0.00    +0.211 HD
ENDBRANCH   7  15
BRANCH   8  17
ATOM     17  O   UNL     1     -37.132  23.785   1.648  0.00  0.00    -0.376 OA
ATOM     18  H   UNL     1     -37.655  22.981   1.510  0.00  0.00    +0.211 HD
ENDBRANCH   8  17
BRANCH   7  19
ATOM     19  C   UNL     1     -33.145  26.781   0.132  0.00  0.00    +0.242 C 
BRANCH  19  20
ATOM     20  O   UNL     1     -32.465  27.831   0.794  0.00  0.00    -0.442 OA
BRANCH  20  22
ATOM     21  O   UNL     1     -32.217  29.613  -0.643  0.00  0.00    -0.245 OA
ATOM     22  C   UNL     1     -32.718  29.094   0.343  0.00  0.00    +0.341 C 
BRANCH  22  23
ATOM     23  C   UNL     1     -33.700  29.784   1.217  0.00  0.00    +0.076 C 
ATOM     24  C   UNL     1     -35.021  29.935   0.798  0.00  0.00    +0.006 C 
ATOM     25  C   UNL     1     -33.300  30.281   2.458  0.00  0.00    +0.006 C 
ATOM     26  C   UNL     1     -35.944  30.582   1.620  0.00  0.00    +0.000 C 
ATOM     27  C   UNL     1     -34.223  30.928   3.280  0.00  0.00    +0.000 C 
ATOM     28  C   UNL     1     -35.545  31.078   2.861  0.00  0.00    +0.000 C 
ENDBRANCH  22  23
ENDBRANCH  20  22
ENDBRANCH  19  20
ENDBRANCH   7  19
BRANCH   8  29
ATOM     29  C   UNL     1     -36.251  22.123   3.112  0.00  0.00    +0.243 C 
BRANCH  29  30
ATOM     30  O   UNL     1     -35.069  21.607   2.536  0.00  0.00    -0.442 OA
BRANCH  30  32
ATOM     31  O   UNL     1     -36.243  19.858   1.607  0.00  0.00    -0.245 OA
ATOM     32  C   UNL     1     -35.201  20.467   1.796  0.00  0.00    +0.341 C 
BRANCH  32  33
ATOM     33  C   UNL     1     -33.894  20.040   1.233  0.00  0.00    +0.076 C 
ATOM     34  C   UNL     1     -33.184  20.896   0.391  0.00  0.00    +0.006 C 
ATOM     35  C   UNL     1     -33.376  18.785   1.548  0.00  0.00    +0.006 C 
ATOM     36  C   UNL     1     -31.957  20.496  -0.136  0.00  0.00    +0.000 C 
ATOM     37  C   UNL     1     -32.149  18.385   1.022  0.00  0.00    +0.000 C 
ATOM     38  C   UNL     1     -31.439  19.240   0.178  0.00  0.00    +0.000 C 
ENDBRANCH  32  33
ENDBRANCH  30  32
ENDBRANCH  29  30
ENDBRANCH   8  29
TORSDOF 10
ENDMDL
MODEL 9
REMARK VINA RESULT:      -6.6      8.920     14.615
REMARK  Name = 53362276
REMARK  10 active torsions:
REMARK  status: ('A' for Active; 'I' for Inactive)
REMARK    1  A    between atoms: C_7  and  O_15
REMARK    2  A    between atoms: C_7  and  C_19
REMARK    3  A    between atoms: C_8  and  O_17
REMARK    4  A    between atoms: C_8  and  C_29
REMARK    5  A    between atoms: C_19  and  O_20
REMARK    6  A    between atoms: O_20  and  C_22
REMARK    7  A    between atoms: C_22  and  C_23
REMARK    8  A    between atoms: C_29  and  O_30
REMARK    9  A    between atoms: O_30  and  C_32
REMARK   10  A    between atoms: C_32  and  C_33
REMARK                            x       y       z     vdW  Elec       q    Type
REMARK                         _______ _______ _______ _____ _____    ______ ____
ROOT
ATOM      1  O   UNL     1     -36.773  21.237  -0.402  0.00  0.00    -0.294 OA
ATOM      2  O   UNL     1     -30.656  17.651  -1.017  0.00  0.00    -0.289 OA
ATOM      3  C   UNL     1     -34.016  18.376   0.039  0.00  0.00    +0.043 C 
ATOM      4  C   UNL     1     -33.769  19.642   0.944  0.00  0.00    +0.038 C 
ATOM      5  C   UNL     1     -34.550  18.845  -1.371  0.00  0.00    +0.032 C 
ATOM      6  C   UNL     1     -34.715  20.393  -1.362  0.00  0.00    +0.064 C 
ATOM      7  C   UNL     1     -35.141  20.363   1.178  0.00  0.00    +0.179 C 
ATOM      8  C   UNL     1     -32.850  17.360  -0.031  0.00  0.00    +0.184 C 
ATOM      9  C   UNL     1     -35.667  20.738  -0.216  0.00  0.00    +0.178 C 
ATOM     10  C   UNL     1     -32.877  20.603   0.187  0.00  0.00    +0.003 C 
ATOM     11  C   UNL     1     -33.397  21.031  -0.975  0.00  0.00    +0.008 C 
ATOM     12  C   UNL     1     -33.693  18.466  -2.554  0.00  0.00    -0.023 C 
ATOM     13  C   UNL     1     -31.876  17.685  -1.157  0.00  0.00    +0.200 C 
ATOM     14  C   UNL     1     -32.454  17.972  -2.486  0.00  0.00    +0.035 C 
ENDROOT
BRANCH   7  15
ATOM     15  O   UNL     1     -36.067  19.467   1.776  0.00  0.00    -0.376 OA
ATOM     16  H   UNL     1     -35.673  18.582   1.827  0.00  0.00    +0.211 HD
ENDBRANCH   7  15
BRANCH   8  17
ATOM     17  O   UNL     1     -32.130  17.358   1.196  0.00  0.00    -0.376 OA
ATOM     18  H   UNL     1     -32.355  16.563   1.702  0.00  0.00    +0.211 HD
ENDBRANCH   8  17
BRANCH   7  19
ATOM     19  C   UNL     1     -35.027  21.603   2.065  0.00  0.00    +0.242 C 
BRANCH  19  20
ATOM     20  O   UNL     1     -35.984  21.499   3.103  0.00  0.00    -0.442 OA
BRANCH  20  22
ATOM     21  O   UNL     1     -35.145  20.948   5.175  0.00  0.00    -0.245 OA
ATOM     22  C   UNL     1     -35.540  21.772   4.365  0.00  0.00    +0.341 C 
BRANCH  22  23
ATOM     23  C   UNL     1     -35.596  23.229   4.645  0.00  0.00    +0.076 C 
ATOM     24  C   UNL     1     -34.555  23.847   5.337  0.00  0.00    +0.006 C 
ATOM     25  C   UNL     1     -36.691  23.980   4.215  0.00  0.00    +0.006 C 
ATOM     26  C   UNL     1     -34.608  25.216   5.598  0.00  0.00    +0.000 C 
ATOM     27  C   UNL     1     -36.743  25.349   4.477  0.00  0.00    +0.000 C 
ATOM     28  C   UNL     1     -35.702  25.967   5.168  0.00  0.00    +0.000 C 
ENDBRANCH  22  23
ENDBRANCH  20  22
ENDBRANCH  19  20
ENDBRANCH   7  19
BRANCH   8  29
ATOM     29  C   UNL     1     -33.378  15.933  -0.250  0.00  0.00    +0.243 C 
BRANCH  29  30
ATOM     30  O   UNL     1     -34.726  15.895   0.171  0.00  0.00    -0.442 OA
BRANCH  30  32
ATOM     31  O   UNL     1     -35.536  14.026  -0.904  0.00  0.00    -0.245 OA
ATOM     32  C   UNL     1     -35.595  15.217  -0.635  0.00  0.00    +0.341 C 
BRANCH  32  33
ATOM     33  C   UNL     1     -36.650  16.119  -1.163  0.00  0.00    +0.076 C 
ATOM     34  C   UNL     1     -36.869  16.207  -2.538  0.00  0.00    +0.006 C 
ATOM     35  C   UNL     1     -37.423  16.876  -0.285  0.00  0.00    +0.006 C 
ATOM     36  C   UNL     1     -37.860  17.052  -3.034  0.00  0.00    +0.000 C 
ATOM     37  C   UNL     1     -38.416  17.721  -0.779  0.00  0.00    +0.000 C 
ATOM     38  C   UNL     1     -38.634  17.810  -2.155  0.00  0.00    +0.000 C 
ENDBRANCH  32  33
ENDBRANCH  30  32
ENDBRANCH  29  30
ENDBRANCH   8  29
TORSDOF 10
ENDMDL
