MODEL 1
REMARK VINA RESULT:      -5.4      0.000      0.000
REMARK  Name = 5321222
REMARK  11 active torsions:
REMARK  status: ('A' for Active; 'I' for Inactive)
REMARK    1  A    between atoms: C_2  and  O_7
REMARK    2  A    between atoms: C_3  and  O_9
REMARK    3  A    between atoms: C_4  and  O_11
REMARK    4  A    between atoms: C_5  and  C_22
REMARK    5  A    between atoms: C_6  and  O_13
REMARK    6  A    between atoms: O_13  and  C_14
REMARK    7  A    between atoms: C_14  and  C_15
REMARK    8  A    between atoms: C_15  and  C_16
REMARK    9  A    between atoms: C_16  and  C_19
REMARK   10  A    between atoms: C_19  and  O_20
REMARK   11  A    between atoms: C_22  and  O_23
REMARK                            x       y       z     vdW  Elec       q    Type
REMARK                         _______ _______ _______ _____ _____    ______ ____
ROOT
ATOM      1  O   UNL     1     -38.312  24.021   3.421  0.00  0.00    -0.326 OA
ATOM      2  C   UNL     1     -39.314  22.023   1.618  0.00  0.00    +0.172 C 
ATOM      3  C   UNL     1     -40.143  23.236   2.042  0.00  0.00    +0.169 C 
ATOM      4  C   UNL     1     -38.208  21.727   2.631  0.00  0.00    +0.196 C 
ATOM      5  C   UNL     1     -39.237  24.413   2.406  0.00  0.00    +0.176 C 
ATOM      6  C   UNL     1     -37.426  22.992   2.987  0.00  0.00    +0.266 C 
ENDROOT
BRANCH   2   7
ATOM      7  O   UNL     1     -40.189  20.898   1.526  0.00  0.00    -0.379 OA
ATOM      8  H   UNL     1     -40.159  20.538   0.627  0.00  0.00    +0.211 HD
ENDBRANCH   2   7
BRANCH   3   9
ATOM      9  O   UNL     1     -41.003  23.616   0.971  0.00  0.00    -0.379 OA
ATOM     10  H   UNL     1     -40.963  22.946   0.271  0.00  0.00    +0.211 HD
ENDBRANCH   3   9
BRANCH   4  11
ATOM     11  O   UNL     1     -37.297  20.780   2.076  0.00  0.00    -0.378 OA
ATOM     12  H   UNL     1     -37.772  19.961   1.862  0.00  0.00    +0.211 HD
ENDBRANCH   4  11
BRANCH   6  13
ATOM     13  O   UNL     1     -36.515  22.665   4.036  0.00  0.00    -0.328 OA
BRANCH  13  14
ATOM     14  C   UNL     1     -35.262  23.305   3.849  0.00  0.00    +0.150 C 
BRANCH  14  15
ATOM     15  C   UNL     1     -34.767  23.865   5.180  0.00  0.00    +0.065 C 
BRANCH  15  16
ATOM     16  C   UNL     1     -34.791  25.372   5.225  0.00  0.00    +0.056 C 
ATOM     17  C   UNL     1     -33.941  26.079   5.985  0.00  0.00    +0.002 C 
BRANCH  16  19
ATOM     18  O   UNL     1     -35.573  26.723   3.388  0.00  0.00    -0.245 OA
ATOM     19  C   UNL     1     -35.790  26.149   4.444  0.00  0.00    +0.334 C 
BRANCH  19  20
ATOM     20  O   UNL     1     -36.993  26.146   5.063  0.00  0.00    -0.477 OA
ATOM     21  H   UNL     1     -37.578  26.869   4.955  0.00  0.00    +0.295 HD
ENDBRANCH  19  20
ENDBRANCH  16  19
ENDBRANCH  15  16
ENDBRANCH  14  15
ENDBRANCH  13  14
ENDBRANCH   6  13
BRANCH   5  22
ATOM     22  C   UNL     1     -40.036  25.596   2.944  0.00  0.00    +0.169 C 
BRANCH  22  23
ATOM     23  O   UNL     1     -39.130  26.609   3.342  0.00  0.00    -0.379 OA
ATOM     24  H   UNL     1     -38.665  26.329   4.146  0.00  0.00    +0.211 HD
ENDBRANCH  22  23
ENDBRANCH   5  22
TORSDOF 11
ENDMDL
MODEL 2
REMARK VINA RESULT:      -5.4      1.994      5.948
REMARK  Name = 5321222
REMARK  11 active torsions:
REMARK  status: ('A' for Active; 'I' for Inactive)
REMARK    1  A    between atoms: C_2  and  O_7
REMARK    2  A    between atoms: C_3  and  O_9
REMARK    3  A    between atoms: C_4  and  O_11
REMARK    4  A    between atoms: C_5  and  C_22
REMARK    5  A    between atoms: C_6  and  O_13
REMARK    6  A    between atoms: O_13  and  C_14
REMARK    7  A    between atoms: C_14  and  C_15
REMARK    8  A    between atoms: C_15  and  C_16
REMARK    9  A    between atoms: C_16  and  C_19
REMARK   10  A    between atoms: C_19  and  O_20
REMARK   11  A    between atoms: C_22  and  O_23
REMARK                            x       y       z     vdW  Elec       q    Type
REMARK                         _______ _______ _______ _____ _____    ______ ____
ROOT
ATOM      1  O   UNL     1     -36.577  22.647   4.245  0.00  0.00    -0.326 OA
ATOM      2  C   UNL     1     -36.209  25.484   4.498  0.00  0.00    +0.172 C 
ATOM      3  C   UNL     1     -35.596  24.485   5.481  0.00  0.00    +0.169 C 
ATOM      4  C   UNL     1     -37.410  24.878   3.773  0.00  0.00    +0.196 C 
ATOM      5  C   UNL     1     -35.357  23.134   4.805  0.00  0.00    +0.176 C 
ATOM      6  C   UNL     1     -37.084  23.492   3.215  0.00  0.00    +0.266 C 
ENDROOT
BRANCH   2   7
ATOM      7  O   UNL     1     -36.628  26.631   5.238  0.00  0.00    -0.379 OA
ATOM      8  H   UNL     1     -36.037  26.762   5.995  0.00  0.00    +0.211 HD
ENDBRANCH   2   7
BRANCH   3   9
ATOM      9  O   UNL     1     -34.355  24.998   5.960  0.00  0.00    -0.379 OA
ATOM     10  H   UNL     1     -33.629  24.640   5.427  0.00  0.00    +0.211 HD
ENDBRANCH   3   9
BRANCH   4  11
ATOM     11  O   UNL     1     -37.780  25.722   2.683  0.00  0.00    -0.378 OA
ATOM     12  H   UNL     1     -38.680  26.058   2.824  0.00  0.00    +0.211 HD
ENDBRANCH   4  11
BRANCH   6  13
ATOM     13  O   UNL     1     -38.286  22.938   2.682  0.00  0.00    -0.328 OA
BRANCH  13  14
ATOM     14  C   UNL     1     -38.172  22.704   1.287  0.00  0.00    +0.150 C 
BRANCH  14  15
ATOM     15  C   UNL     1     -38.148  21.201   1.019  0.00  0.00    +0.065 C 
BRANCH  15  16
ATOM     16  C   UNL     1     -36.760  20.681   0.741  0.00  0.00    +0.056 C 
ATOM     17  C   UNL     1     -36.260  20.605  -0.502  0.00  0.00    +0.002 C 
BRANCH  16  19
ATOM     18  O   UNL     1     -34.672  20.080   1.785  0.00  0.00    -0.245 OA
ATOM     19  C   UNL     1     -35.887  20.193   1.841  0.00  0.00    +0.334 C 
BRANCH  19  20
ATOM     20  O   UNL     1     -36.619  19.877   2.934  0.00  0.00    -0.477 OA
ATOM     21  H   UNL     1     -36.633  20.453   3.672  0.00  0.00    +0.295 HD
ENDBRANCH  19  20
ENDBRANCH  16  19
ENDBRANCH  15  16
ENDBRANCH  14  15
ENDBRANCH  13  14
ENDBRANCH   6  13
BRANCH   5  22
ATOM     22  C   UNL     1     -34.855  22.087   5.795  0.00  0.00    +0.169 C 
BRANCH  22  23
ATOM     23  O   UNL     1     -35.376  20.825   5.420  0.00  0.00    -0.379 OA
ATOM     24  H   UNL     1     -35.668  20.348   6.213  0.00  0.00    +0.211 HD
ENDBRANCH  22  23
ENDBRANCH   5  22
TORSDOF 11
ENDMDL
MODEL 3
REMARK VINA RESULT:      -5.3      2.483      4.887
REMARK  Name = 5321222
REMARK  11 active torsions:
REMARK  status: ('A' for Active; 'I' for Inactive)
REMARK    1  A    between atoms: C_2  and  O_7
REMARK    2  A    between atoms: C_3  and  O_9
REMARK    3  A    between atoms: C_4  and  O_11
REMARK    4  A    between atoms: C_5  and  C_22
REMARK    5  A    between atoms: C_6  and  O_13
REMARK    6  A    between atoms: O_13  and  C_14
REMARK    7  A    between atoms: C_14  and  C_15
REMARK    8  A    between atoms: C_15  and  C_16
REMARK    9  A    between atoms: C_16  and  C_19
REMARK   10  A    between atoms: C_19  and  O_20
REMARK   11  A    between atoms: C_22  and  O_23
REMARK                            x       y       z     vdW  Elec       q    Type
REMARK                         _______ _______ _______ _____ _____    ______ ____
ROOT
ATOM      1  O   UNL     1     -34.975  24.168   5.651  0.00  0.00    -0.326 OA
ATOM      2  C   UNL     1     -36.740  24.135   3.385  0.00  0.00    +0.172 C 
ATOM      3  C   UNL     1     -35.953  22.902   3.831  0.00  0.00    +0.169 C 
ATOM      4  C   UNL     1     -36.087  25.420   3.893  0.00  0.00    +0.196 C 
ATOM      5  C   UNL     1     -35.660  22.957   5.332  0.00  0.00    +0.176 C 
ATOM      6  C   UNL     1     -35.759  25.328   5.383  0.00  0.00    +0.266 C 
ENDROOT
BRANCH   2   7
ATOM      7  O   UNL     1     -36.770  24.148   1.958  0.00  0.00    -0.379 OA
ATOM      8  H   UNL     1     -37.674  24.330   1.655  0.00  0.00    +0.211 HD
ENDBRANCH   2   7
BRANCH   3   9
ATOM      9  O   UNL     1     -36.709  21.730   3.540  0.00  0.00    -0.379 OA
ATOM     10  H   UNL     1     -36.407  21.349   2.702  0.00  0.00    +0.211 HD
ENDBRANCH   3   9
BRANCH   4  11
ATOM     11  O   UNL     1     -36.982  26.515   3.699  0.00  0.00    -0.378 OA
ATOM     12  H   UNL     1     -37.433  26.417   2.845  0.00  0.00    +0.211 HD
ENDBRANCH   4  11
BRANCH   6  13
ATOM     13  O   UNL     1     -35.029  26.499   5.747  0.00  0.00    -0.328 OA
BRANCH  13  14
ATOM     14  C   UNL     1     -33.630  26.291   5.634  0.00  0.00    +0.150 C 
BRANCH  14  15
ATOM     15  C   UNL     1     -32.905  27.062   6.734  0.00  0.00    +0.065 C 
BRANCH  15  16
ATOM     16  C   UNL     1     -32.150  28.257   6.207  0.00  0.00    +0.056 C 
ATOM     17  C   UNL     1     -31.680  29.219   7.016  0.00  0.00    +0.002 C 
BRANCH  16  19
ATOM     18  O   UNL     1     -31.035  27.903   4.099  0.00  0.00    -0.245 OA
ATOM     19  C   UNL     1     -31.919  28.440   4.750  0.00  0.00    +0.334 C 
BRANCH  19  20
ATOM     20  O   UNL     1     -32.824  29.297   4.222  0.00  0.00    -0.477 OA
ATOM     21  H   UNL     1     -33.734  29.076   4.224  0.00  0.00    +0.295 HD
ENDBRANCH  19  20
ENDBRANCH  16  19
ENDBRANCH  15  16
ENDBRANCH  14  15
ENDBRANCH  13  14
ENDBRANCH   6  13
BRANCH   5  22
ATOM     22  C   UNL     1     -34.776  21.796   5.778  0.00  0.00    +0.169 C 
BRANCH  22  23
ATOM     23  O   UNL     1     -35.572  20.629   5.861  0.00  0.00    -0.379 OA
ATOM     24  H   UNL     1     -34.997  19.848   5.894  0.00  0.00    +0.211 HD
ENDBRANCH  22  23
ENDBRANCH   5  22
TORSDOF 11
ENDMDL
MODEL 4
REMARK VINA RESULT:      -5.3      2.424      4.544
REMARK  Name = 5321222
REMARK  11 active torsions:
REMARK  status: ('A' for Active; 'I' for Inactive)
REMARK    1  A    between atoms: C_2  and  O_7
REMARK    2  A    between atoms: C_3  and  O_9
REMARK    3  A    between atoms: C_4  and  O_11
REMARK    4  A    between atoms: C_5  and  C_22
REMARK    5  A    between atoms: C_6  and  O_13
REMARK    6  A    between atoms: O_13  and  C_14
REMARK    7  A    between atoms: C_14  and  C_15
REMARK    8  A    between atoms: C_15  and  C_16
REMARK    9  A    between atoms: C_16  and  C_19
REMARK   10  A    between atoms: C_19  and  O_20
REMARK   11  A    between atoms: C_22  and  O_23
REMARK                            x       y       z     vdW  Elec       q    Type
REMARK                         _______ _______ _______ _____ _____    ______ ____
ROOT
ATOM      1  O   UNL     1     -35.102  24.160   5.512  0.00  0.00    -0.326 OA
ATOM      2  C   UNL     1     -36.836  24.006   3.228  0.00  0.00    +0.172 C 
ATOM      3  C   UNL     1     -36.004  22.817   3.708  0.00  0.00    +0.169 C 
ATOM      4  C   UNL     1     -36.244  25.328   3.716  0.00  0.00    +0.196 C 
ATOM      5  C   UNL     1     -35.731  22.914   5.211  0.00  0.00    +0.176 C 
ATOM      6  C   UNL     1     -35.930  25.280   5.212  0.00  0.00    +0.266 C 
ENDROOT
BRANCH   2   7
ATOM      7  O   UNL     1     -36.851  23.988   1.800  0.00  0.00    -0.379 OA
ATOM      8  H   UNL     1     -36.522  24.836   1.463  0.00  0.00    +0.211 HD
ENDBRANCH   2   7
BRANCH   3   9
ATOM      9  O   UNL     1     -36.707  21.608   3.434  0.00  0.00    -0.379 OA
ATOM     10  H   UNL     1     -37.661  21.782   3.434  0.00  0.00    +0.211 HD
ENDBRANCH   3   9
BRANCH   4  11
ATOM     11  O   UNL     1     -37.182  26.379   3.490  0.00  0.00    -0.378 OA
ATOM     12  H   UNL     1     -37.634  26.233   2.643  0.00  0.00    +0.211 HD
ENDBRANCH   4  11
BRANCH   6  13
ATOM     13  O   UNL     1     -35.254  26.488   5.558  0.00  0.00    -0.328 OA
BRANCH  13  14
ATOM     14  C   UNL     1     -33.910  26.236   5.938  0.00  0.00    +0.150 C 
BRANCH  14  15
ATOM     15  C   UNL     1     -32.992  27.273   5.295  0.00  0.00    +0.065 C 
BRANCH  15  16
ATOM     16  C   UNL     1     -33.212  27.406   3.809  0.00  0.00    +0.056 C 
ATOM     17  C   UNL     1     -32.839  26.451   2.943  0.00  0.00    +0.002 C 
BRANCH  16  19
ATOM     18  O   UNL     1     -33.219  29.564   2.736  0.00  0.00    -0.245 OA
ATOM     19  C   UNL     1     -33.829  28.627   3.228  0.00  0.00    +0.334 C 
BRANCH  19  20
ATOM     20  O   UNL     1     -35.178  28.576   3.319  0.00  0.00    -0.477 OA
ATOM     21  H   UNL     1     -35.630  29.142   3.913  0.00  0.00    +0.295 HD
ENDBRANCH  19  20
ENDBRANCH  16  19
ENDBRANCH  15  16
ENDBRANCH  14  15
ENDBRANCH  13  14
ENDBRANCH   6  13
BRANCH   5  22
ATOM     22  C   UNL     1     -34.805  21.801   5.691  0.00  0.00    +0.169 C 
BRANCH  22  23
ATOM     23  O   UNL     1     -35.582  20.644   5.940  0.00  0.00    -0.379 OA
ATOM     24  H   UNL     1     -36.368  20.888   6.454  0.00  0.00    +0.211 HD
ENDBRANCH  22  23
ENDBRANCH   5  22
TORSDOF 11
ENDMDL
MODEL 5
REMARK VINA RESULT:      -5.2      1.707      2.409
REMARK  Name = 5321222
REMARK  11 active torsions:
REMARK  status: ('A' for Active; 'I' for Inactive)
REMARK    1  A    between atoms: C_2  and  O_7
REMARK    2  A    between atoms: C_3  and  O_9
REMARK    3  A    between atoms: C_4  and  O_11
REMARK    4  A    between atoms: C_5  and  C_22
REMARK    5  A    between atoms: C_6  and  O_13
REMARK    6  A    between atoms: O_13  and  C_14
REMARK    7  A    between atoms: C_14  and  C_15
REMARK    8  A    between atoms: C_15  and  C_16
REMARK    9  A    between atoms: C_16  and  C_19
REMARK   10  A    between atoms: C_19  and  O_20
REMARK   11  A    between atoms: C_22  and  O_23
REMARK                            x       y       z     vdW  Elec       q    Type
REMARK                         _______ _______ _______ _____ _____    ______ ____
ROOT
ATOM      1  O   UNL     1     -36.815  23.967   2.256  0.00  0.00    -0.326 OA
ATOM      2  C   UNL     1     -36.809  21.111   1.952  0.00  0.00    +0.172 C 
ATOM      3  C   UNL     1     -37.999  21.871   2.538  0.00  0.00    +0.169 C 
ATOM      4  C   UNL     1     -35.519  21.921   2.078  0.00  0.00    +0.196 C 
ATOM      5  C   UNL     1     -38.051  23.301   1.996  0.00  0.00    +0.176 C 
ATOM      6  C   UNL     1     -35.713  23.356   1.589  0.00  0.00    +0.266 C 
ENDROOT
BRANCH   2   7
ATOM      7  O   UNL     1     -36.672  19.883   2.670  0.00  0.00    -0.379 OA
ATOM      8  H   UNL     1     -37.212  19.199   2.245  0.00  0.00    +0.211 HD
ENDBRANCH   2   7
BRANCH   3   9
ATOM      9  O   UNL     1     -39.205  21.193   2.198  0.00  0.00    -0.379 OA
ATOM     10  H   UNL     1     -39.953  21.621   2.642  0.00  0.00    +0.211 HD
ENDBRANCH   3   9
BRANCH   4  11
ATOM     11  O   UNL     1     -34.499  21.313   1.287  0.00  0.00    -0.378 OA
ATOM     12  H   UNL     1     -34.236  21.919   0.576  0.00  0.00    +0.211 HD
ENDBRANCH   4  11
BRANCH   6  13
ATOM     13  O   UNL     1     -34.517  24.082   1.869  0.00  0.00    -0.328 OA
BRANCH  13  14
ATOM     14  C   UNL     1     -34.788  25.255   2.620  0.00  0.00    +0.150 C 
BRANCH  14  15
ATOM     15  C   UNL     1     -33.781  25.380   3.760  0.00  0.00    +0.065 C 
BRANCH  15  16
ATOM     16  C   UNL     1     -34.438  25.662   5.089  0.00  0.00    +0.056 C 
ATOM     17  C   UNL     1     -33.797  26.296   6.083  0.00  0.00    +0.002 C 
BRANCH  16  19
ATOM     18  O   UNL     1     -36.181  24.055   5.523  0.00  0.00    -0.245 OA
ATOM     19  C   UNL     1     -35.827  25.214   5.371  0.00  0.00    +0.334 C 
BRANCH  19  20
ATOM     20  O   UNL     1     -36.671  26.270   5.435  0.00  0.00    -0.477 OA
ATOM     21  H   UNL     1     -37.151  26.440   6.221  0.00  0.00    +0.295 HD
ENDBRANCH  19  20
ENDBRANCH  16  19
ENDBRANCH  15  16
ENDBRANCH  14  15
ENDBRANCH  13  14
ENDBRANCH   6  13
BRANCH   5  22
ATOM     22  C   UNL     1     -39.160  24.116   2.654  0.00  0.00    +0.169 C 
BRANCH  22  23
ATOM     23  O   UNL     1     -38.672  24.635   3.877  0.00  0.00    -0.379 OA
ATOM     24  H   UNL     1     -38.556  23.911   4.512  0.00  0.00    +0.211 HD
ENDBRANCH  22  23
ENDBRANCH   5  22
TORSDOF 11
ENDMDL
MODEL 6
REMARK VINA RESULT:      -5.2      1.884      5.951
REMARK  Name = 5321222
REMARK  11 active torsions:
REMARK  status: ('A' for Active; 'I' for Inactive)
REMARK    1  A    between atoms: C_2  and  O_7
REMARK    2  A    between atoms: C_3  and  O_9
REMARK    3  A    between atoms: C_4  and  O_11
REMARK    4  A    between atoms: C_5  and  C_22
REMARK    5  A    between atoms: C_6  and  O_13
REMARK    6  A    between atoms: O_13  and  C_14
REMARK    7  A    between atoms: C_14  and  C_15
REMARK    8  A    between atoms: C_15  and  C_16
REMARK    9  A    between atoms: C_16  and  C_19
REMARK   10  A    between atoms: C_19  and  O_20
REMARK   11  A    between atoms: C_22  and  O_23
REMARK                            x       y       z     vdW  Elec       q    Type
REMARK                         _______ _______ _______ _____ _____    ______ ____
ROOT
ATOM      1  O   UNL     1     -37.126  23.267   4.205  0.00  0.00    -0.326 OA
ATOM      2  C   UNL     1     -35.740  25.776   4.030  0.00  0.00    +0.172 C 
ATOM      3  C   UNL     1     -35.182  24.583   4.807  0.00  0.00    +0.169 C 
ATOM      4  C   UNL     1     -37.255  25.667   3.862  0.00  0.00    +0.196 C 
ATOM      5  C   UNL     1     -35.698  23.266   4.224  0.00  0.00    +0.176 C 
ATOM      6  C   UNL     1     -37.662  24.281   3.360  0.00  0.00    +0.266 C 
ENDROOT
BRANCH   2   7
ATOM      7  O   UNL     1     -35.425  26.964   4.757  0.00  0.00    -0.379 OA
ATOM      8  H   UNL     1     -34.528  27.254   4.531  0.00  0.00    +0.211 HD
ENDBRANCH   2   7
BRANCH   3   9
ATOM      9  O   UNL     1     -33.759  24.602   4.741  0.00  0.00    -0.379 OA
ATOM     10  H   UNL     1     -33.478  25.065   3.937  0.00  0.00    +0.211 HD
ENDBRANCH   3   9
BRANCH   4  11
ATOM     11  O   UNL     1     -37.697  26.635   2.911  0.00  0.00    -0.378 OA
ATOM     12  H   UNL     1     -37.022  26.745   2.223  0.00  0.00    +0.211 HD
ENDBRANCH   4  11
BRANCH   6  13
ATOM     13  O   UNL     1     -39.087  24.212   3.366  0.00  0.00    -0.328 OA
BRANCH  13  14
ATOM     14  C   UNL     1     -39.581  23.627   2.171  0.00  0.00    +0.150 C 
BRANCH  14  15
ATOM     15  C   UNL     1     -39.934  24.724   1.169  0.00  0.00    +0.065 C 
BRANCH  15  16
ATOM     16  C   UNL     1     -41.205  25.454   1.528  0.00  0.00    +0.056 C 
ATOM     17  C   UNL     1     -42.417  24.976   1.210  0.00  0.00    +0.002 C 
BRANCH  16  19
ATOM     18  O   UNL     1     -41.556  27.827   1.766  0.00  0.00    -0.245 OA
ATOM     19  C   UNL     1     -41.167  26.765   2.228  0.00  0.00    +0.334 C 
BRANCH  19  20
ATOM     20  O   UNL     1     -40.633  26.636   3.465  0.00  0.00    -0.477 OA
ATOM     21  H   UNL     1     -40.905  27.209   4.154  0.00  0.00    +0.295 HD
ENDBRANCH  19  20
ENDBRANCH  16  19
ENDBRANCH  15  16
ENDBRANCH  14  15
ENDBRANCH  13  14
ENDBRANCH   6  13
BRANCH   5  22
ATOM     22  C   UNL     1     -35.250  22.066   5.054  0.00  0.00    +0.169 C 
BRANCH  22  23
ATOM     23  O   UNL     1     -36.053  21.998   6.218  0.00  0.00    -0.379 OA
ATOM     24  H   UNL     1     -35.873  22.768   6.780  0.00  0.00    +0.211 HD
ENDBRANCH  22  23
ENDBRANCH   5  22
TORSDOF 11
ENDMDL
MODEL 7
REMARK VINA RESULT:      -5.1      1.775      2.903
REMARK  Name = 5321222
REMARK  11 active torsions:
REMARK  status: ('A' for Active; 'I' for Inactive)
REMARK    1  A    between atoms: C_2  and  O_7
REMARK    2  A    between atoms: C_3  and  O_9
REMARK    3  A    between atoms: C_4  and  O_11
REMARK    4  A    between atoms: C_5  and  C_22
REMARK    5  A    between atoms: C_6  and  O_13
REMARK    6  A    between atoms: O_13  and  C_14
REMARK    7  A    between atoms: C_14  and  C_15
REMARK    8  A    between atoms: C_15  and  C_16
REMARK    9  A    between atoms: C_16  and  C_19
REMARK   10  A    between atoms: C_19  and  O_20
REMARK   11  A    between atoms: C_22  and  O_23
REMARK                            x       y       z     vdW  Elec       q    Type
REMARK                         _______ _______ _______ _____ _____    ______ ____
ROOT
ATOM      1  O   UNL     1     -37.307  22.235   2.600  0.00  0.00    -0.326 OA
ATOM      2  C   UNL     1     -36.641  19.967   0.969  0.00  0.00    +0.172 C 
ATOM      3  C   UNL     1     -38.086  20.356   1.283  0.00  0.00    +0.169 C 
ATOM      4  C   UNL     1     -35.677  20.535   2.010  0.00  0.00    +0.196 C 
ATOM      5  C   UNL     1     -38.199  21.858   1.550  0.00  0.00    +0.176 C 
ATOM      6  C   UNL     1     -35.939  22.020   2.260  0.00  0.00    +0.266 C 
ENDROOT
BRANCH   2   7
ATOM      7  O   UNL     1     -36.557  18.541   0.969  0.00  0.00    -0.379 OA
ATOM      8  H   UNL     1     -36.427  18.224   0.062  0.00  0.00    +0.211 HD
ENDBRANCH   2   7
BRANCH   3   9
ATOM      9  O   UNL     1     -38.918  20.010   0.179  0.00  0.00    -0.379 OA
ATOM     10  H   UNL     1     -39.571  20.711   0.033  0.00  0.00    +0.211 HD
ENDBRANCH   3   9
BRANCH   4  11
ATOM     11  O   UNL     1     -34.336  20.390   1.542  0.00  0.00    -0.378 OA
ATOM     12  H   UNL     1     -34.345  20.031   0.640  0.00  0.00    +0.211 HD
ENDBRANCH   4  11
BRANCH   6  13
ATOM     13  O   UNL     1     -35.102  22.439   3.338  0.00  0.00    -0.328 OA
BRANCH  13  14
ATOM     14  C   UNL     1     -35.698  22.155   4.594  0.00  0.00    +0.150 C 
BRANCH  14  15
ATOM     15  C   UNL     1     -35.175  23.133   5.643  0.00  0.00    +0.065 C 
BRANCH  15  16
ATOM     16  C   UNL     1     -35.211  24.566   5.174  0.00  0.00    +0.056 C 
ATOM     17  C   UNL     1     -34.093  25.278   4.965  0.00  0.00    +0.002 C 
BRANCH  16  19
ATOM     18  O   UNL     1     -37.488  24.790   4.416  0.00  0.00    -0.245 OA
ATOM     19  C   UNL     1     -36.501  25.270   4.952  0.00  0.00    +0.334 C 
BRANCH  19  20
ATOM     20  O   UNL     1     -36.446  26.538   5.423  0.00  0.00    -0.477 OA
ATOM     21  H   UNL     1     -35.882  27.165   5.016  0.00  0.00    +0.295 HD
ENDBRANCH  19  20
ENDBRANCH  16  19
ENDBRANCH  15  16
ENDBRANCH  14  15
ENDBRANCH  13  14
ENDBRANCH   6  13
BRANCH   5  22
ATOM     22  C   UNL     1     -39.609  22.252   1.981  0.00  0.00    +0.169 C 
BRANCH  22  23
ATOM     23  O   UNL     1     -40.315  21.078   2.339  0.00  0.00    -0.379 OA
ATOM     24  H   UNL     1     -40.346  20.476   1.579  0.00  0.00    +0.211 HD
ENDBRANCH  22  23
ENDBRANCH   5  22
TORSDOF 11
ENDMDL
MODEL 8
REMARK VINA RESULT:      -5.0      2.758      5.480
REMARK  Name = 5321222
REMARK  11 active torsions:
REMARK  status: ('A' for Active; 'I' for Inactive)
REMARK    1  A    between atoms: C_2  and  O_7
REMARK    2  A    between atoms: C_3  and  O_9
REMARK    3  A    between atoms: C_4  and  O_11
REMARK    4  A    between atoms: C_5  and  C_22
REMARK    5  A    between atoms: C_6  and  O_13
REMARK    6  A    between atoms: O_13  and  C_14
REMARK    7  A    between atoms: C_14  and  C_15
REMARK    8  A    between atoms: C_15  and  C_16
REMARK    9  A    between atoms: C_16  and  C_19
REMARK   10  A    between atoms: C_19  and  O_20
REMARK   11  A    between atoms: C_22  and  O_23
REMARK                            x       y       z     vdW  Elec       q    Type
REMARK                         _______ _______ _______ _____ _____    ______ ____
ROOT
ATOM      1  O   UNL     1     -34.873  23.906   3.223  0.00  0.00    -0.326 OA
ATOM      2  C   UNL     1     -36.556  26.222   2.998  0.00  0.00    +0.172 C 
ATOM      3  C   UNL     1     -36.460  25.400   4.283  0.00  0.00    +0.169 C 
ATOM      4  C   UNL     1     -36.134  25.399   1.782  0.00  0.00    +0.196 C 
ATOM      5  C   UNL     1     -35.100  24.706   4.384  0.00  0.00    +0.176 C 
ATOM      6  C   UNL     1     -34.806  24.681   2.029  0.00  0.00    +0.266 C 
ENDROOT
BRANCH   2   7
ATOM      7  O   UNL     1     -37.912  26.641   2.842  0.00  0.00    -0.379 OA
ATOM      8  H   UNL     1     -37.985  27.220   2.067  0.00  0.00    +0.211 HD
ENDBRANCH   2   7
BRANCH   3   9
ATOM      9  O   UNL     1     -36.636  26.259   5.407  0.00  0.00    -0.379 OA
ATOM     10  H   UNL     1     -36.743  27.173   5.101  0.00  0.00    +0.211 HD
ENDBRANCH   3   9
BRANCH   4  11
ATOM     11  O   UNL     1     -35.972  26.263   0.658  0.00  0.00    -0.378 OA
ATOM     12  H   UNL     1     -36.742  26.181   0.073  0.00  0.00    +0.211 HD
ENDBRANCH   4  11
BRANCH   6  13
ATOM     13  O   UNL     1     -34.554  23.827   0.913  0.00  0.00    -0.328 OA
BRANCH  13  14
ATOM     14  C   UNL     1     -35.320  22.635   0.991  0.00  0.00    +0.150 C 
BRANCH  14  15
ATOM     15  C   UNL     1     -34.451  21.440   0.605  0.00  0.00    +0.065 C 
BRANCH  15  16
ATOM     16  C   UNL     1     -34.534  20.312   1.604  0.00  0.00    +0.056 C 
ATOM     17  C   UNL     1     -33.760  19.220   1.514  0.00  0.00    +0.002 C 
BRANCH  16  19
ATOM     18  O   UNL     1     -35.304  20.821   3.830  0.00  0.00    -0.245 OA
ATOM     19  C   UNL     1     -35.511  20.347   2.724  0.00  0.00    +0.334 C 
BRANCH  19  20
ATOM     20  O   UNL     1     -36.681  19.773   2.361  0.00  0.00    -0.477 OA
ATOM     21  H   UNL     1     -37.491  20.108   2.693  0.00  0.00    +0.295 HD
ENDBRANCH  19  20
ENDBRANCH  16  19
ENDBRANCH  15  16
ENDBRANCH  14  15
ENDBRANCH  13  14
ENDBRANCH   6  13
BRANCH   5  22
ATOM     22  C   UNL     1     -35.023  23.786   5.599  0.00  0.00    +0.169 C 
BRANCH  22  23
ATOM     23  O   UNL     1     -36.196  22.996   5.641  0.00  0.00    -0.379 OA
ATOM     24  H   UNL     1     -36.151  22.315   4.951  0.00  0.00    +0.211 HD
ENDBRANCH  22  23
ENDBRANCH   5  22
TORSDOF 11
ENDMDL
MODEL 9
REMARK VINA RESULT:      -5.0      2.635      5.405
REMARK  Name = 5321222
REMARK  11 active torsions:
REMARK  status: ('A' for Active; 'I' for Inactive)
REMARK    1  A    between atoms: C_2  and  O_7
REMARK    2  A    between atoms: C_3  and  O_9
REMARK    3  A    between atoms: C_4  and  O_11
REMARK    4  A    between atoms: C_5  and  C_22
REMARK    5  A    between atoms: C_6  and  O_13
REMARK    6  A    between atoms: O_13  and  C_14
REMARK    7  A    between atoms: C_14  and  C_15
REMARK    8  A    between atoms: C_15  and  C_16
REMARK    9  A    between atoms: C_16  and  C_19
REMARK   10  A    between atoms: C_19  and  O_20
REMARK   11  A    between atoms: C_22  and  O_23
REMARK                            x       y       z     vdW  Elec       q    Type
REMARK                         _______ _______ _______ _____ _____    ______ ____
ROOT
ATOM      1  O   UNL     1     -35.545  25.271   1.916  0.00  0.00    -0.326 OA
ATOM      2  C   UNL     1     -36.472  24.457   4.510  0.00  0.00    +0.172 C 
ATOM      3  C   UNL     1     -35.625  25.712   4.297  0.00  0.00    +0.169 C 
ATOM      4  C   UNL     1     -36.289  23.466   3.360  0.00  0.00    +0.196 C 
ATOM      5  C   UNL     1     -35.831  26.275   2.890  0.00  0.00    +0.176 C 
ATOM      6  C   UNL     1     -36.429  24.156   2.003  0.00  0.00    +0.266 C 
ENDROOT
BRANCH   2   7
ATOM      7  O   UNL     1     -36.060  23.848   5.734  0.00  0.00    -0.379 OA
ATOM      8  H   UNL     1     -36.807  23.826   6.351  0.00  0.00    +0.211 HD
ENDBRANCH   2   7
BRANCH   3   9
ATOM      9  O   UNL     1     -35.995  26.698   5.258  0.00  0.00    -0.379 OA
ATOM     10  H   UNL     1     -36.959  26.795   5.267  0.00  0.00    +0.211 HD
ENDBRANCH   3   9
BRANCH   4  11
ATOM     11  O   UNL     1     -37.286  22.449   3.449  0.00  0.00    -0.378 OA
ATOM     12  H   UNL     1     -38.111  22.768   3.049  0.00  0.00    +0.211 HD
ENDBRANCH   4  11
BRANCH   6  13
ATOM     13  O   UNL     1     -36.107  23.204   0.990  0.00  0.00    -0.328 OA
BRANCH  13  14
ATOM     14  C   UNL     1     -34.770  22.744   1.120  0.00  0.00    +0.150 C 
BRANCH  14  15
ATOM     15  C   UNL     1     -34.585  21.464   0.309  0.00  0.00    +0.065 C 
BRANCH  15  16
ATOM     16  C   UNL     1     -34.918  20.222   1.098  0.00  0.00    +0.056 C 
ATOM     17  C   UNL     1     -33.969  19.435   1.626  0.00  0.00    +0.002 C 
BRANCH  16  19
ATOM     18  O   UNL     1     -37.111  19.495   0.408  0.00  0.00    -0.245 OA
ATOM     19  C   UNL     1     -36.327  19.792   1.297  0.00  0.00    +0.334 C 
BRANCH  19  20
ATOM     20  O   UNL     1     -36.645  19.776   2.613  0.00  0.00    -0.477 OA
ATOM     21  H   UNL     1     -37.056  20.520   3.005  0.00  0.00    +0.295 HD
ENDBRANCH  19  20
ENDBRANCH  16  19
ENDBRANCH  15  16
ENDBRANCH  14  15
ENDBRANCH  13  14
ENDBRANCH   6  13
BRANCH   5  22
ATOM     22  C   UNL     1     -34.909  27.460   2.614  0.00  0.00    +0.169 C 
BRANCH  22  23
ATOM     23  O   UNL     1     -35.373  28.574   3.354  0.00  0.00    -0.379 OA
ATOM     24  H   UNL     1     -36.024  29.063   2.826  0.00  0.00    +0.211 HD
ENDBRANCH  22  23
ENDBRANCH   5  22
TORSDOF 11
ENDMDL
