MODEL 1
REMARK VINA RESULT:      -6.0      0.000      0.000
REMARK  Name = 189898
REMARK  6 active torsions:
REMARK  status: ('A' for Active; 'I' for Inactive)
REMARK    1  A    between atoms: N_1  and  C1*_11
REMARK    2  A    between atoms: C_6  and  C_25
REMARK    3  A    between atoms: C2*_12  and  O2*_15
REMARK    4  A    between atoms: C3*_13  and  O3*_17
REMARK    5  A    between atoms: C4*_14  and  C5*_19
REMARK    6  A    between atoms: C5*_19  and  O5*_20
REMARK                            x       y       z     vdW  Elec       q    Type
REMARK                         _______ _______ _______ _____ _____    ______ ____
ROOT
ATOM      1  N   UNL     1     -36.681  23.079   3.517  0.00  0.00    -0.221 N 
ATOM      2  N   UNL     1     -35.581  21.136   3.420  0.00  0.00    -0.381 NA
ATOM      3  N   UNL     1     -38.004  22.903   1.486  0.00  0.00    -0.227 NA
ATOM      4  N   UNL     1     -37.566  20.807   0.316  0.00  0.00    -0.227 NA
ATOM      5  C   UNL     1     -37.107  22.453   2.377  0.00  0.00    +0.169 C 
ATOM      6  C   UNL     1     -35.763  22.245   4.107  0.00  0.00    +0.190 C 
ATOM      7  C   UNL     1     -36.415  21.253   2.336  0.00  0.00    +0.195 C 
ATOM      8  C   UNL     1     -36.671  20.415   1.255  0.00  0.00    +0.155 C 
ATOM      9  C   UNL     1     -38.167  22.008   0.488  0.00  0.00    +0.253 C 
ATOM     10  N   UNL     1     -36.013  19.179   1.134  0.00  0.00    -0.341 N 
ATOM     11  H   UNL     1     -36.204  18.595   0.364  0.00  0.00    +0.144 HD
ATOM     12  H   UNL     1     -35.364  18.898   1.817  0.00  0.00    +0.144 HD
ENDROOT
BRANCH   1  14
ATOM     13  O4* UNL     1     -38.551  24.525   3.735  0.00  0.00    -0.333 OA
ATOM     14  C1* UNL     1     -37.136  24.388   3.989  0.00  0.00    +0.229 C 
ATOM     15  C2* UNL     1     -36.429  25.563   3.314  0.00  0.00    +0.187 C 
ATOM     16  C3* UNL     1     -37.466  26.058   2.323  0.00  0.00    +0.171 C 
ATOM     17  C4* UNL     1     -38.768  25.770   3.050  0.00  0.00    +0.175 C 
BRANCH  15  18
ATOM     18  O2* UNL     1     -36.132  26.559   4.292  0.00  0.00    -0.378 OA
ATOM     19  H2* UNL     1     -36.603  27.379   4.072  0.00  0.00    +0.211 HD
ENDBRANCH  15  18
BRANCH  16  20
ATOM     20  O3* UNL     1     -37.329  27.425   2.000  0.00  0.00    -0.379 OA
ATOM     21  H3* UNL     1     -36.725  27.847   2.632  0.00  0.00    +0.211 HD
ENDBRANCH  16  20
BRANCH  17  22
ATOM     22  C5* UNL     1     -39.964  25.644   2.123  0.00  0.00    +0.169 C 
BRANCH  22  23
ATOM     23  O5* UNL     1     -39.496  25.523   0.791  0.00  0.00    -0.379 OA
ATOM     24  H5* UNL     1     -39.815  26.275   0.267  0.00  0.00    +0.211 HD
ENDBRANCH  22  23
ENDBRANCH  17  22
ENDBRANCH   1  14
BRANCH   6  25
ATOM     25  C   UNL     1     -35.162  22.655   5.313  0.00  0.00    +0.048 C 
ATOM     26  C   UNL     1     -35.285  22.080   6.557  0.00  0.00    +0.004 C 
ENDBRANCH   6  25
TORSDOF 6
ENDMDL
MODEL 2
REMARK VINA RESULT:      -5.6      3.834      6.618
REMARK  Name = 189898
REMARK  6 active torsions:
REMARK  status: ('A' for Active; 'I' for Inactive)
REMARK    1  A    between atoms: N_1  and  C1*_11
REMARK    2  A    between atoms: C_6  and  C_25
REMARK    3  A    between atoms: C2*_12  and  O2*_15
REMARK    4  A    between atoms: C3*_13  and  O3*_17
REMARK    5  A    between atoms: C4*_14  and  C5*_19
REMARK    6  A    between atoms: C5*_19  and  O5*_20
REMARK                            x       y       z     vdW  Elec       q    Type
REMARK                         _______ _______ _______ _____ _____    ______ ____
ROOT
ATOM      1  N   UNL     1     -35.174  26.098   4.219  0.00  0.00    -0.221 N 
ATOM      2  N   UNL     1     -33.968  27.424   2.885  0.00  0.00    -0.381 NA
ATOM      3  N   UNL     1     -33.909  26.329   6.281  0.00  0.00    -0.227 NA
ATOM      4  N   UNL     1     -31.998  27.819   5.991  0.00  0.00    -0.227 NA
ATOM      5  C   UNL     1     -34.152  26.586   4.986  0.00  0.00    +0.169 C 
ATOM      6  C   UNL     1     -35.017  26.632   2.964  0.00  0.00    +0.190 C 
ATOM      7  C   UNL     1     -33.418  27.404   4.142  0.00  0.00    +0.195 C 
ATOM      8  C   UNL     1     -32.304  28.034   4.689  0.00  0.00    +0.155 C 
ATOM      9  C   UNL     1     -32.808  26.992   6.695  0.00  0.00    +0.253 C 
ATOM     10  N   UNL     1     -31.502  28.881   3.904  0.00  0.00    -0.341 N 
ATOM     11  H   UNL     1     -30.716  29.321   4.302  0.00  0.00    +0.144 HD
ATOM     12  H   UNL     1     -31.726  29.034   2.958  0.00  0.00    +0.144 HD
ENDROOT
BRANCH   1  14
ATOM     13  O4* UNL     1     -35.699  24.350   5.738  0.00  0.00    -0.333 OA
ATOM     14  C1* UNL     1     -36.220  25.181   4.679  0.00  0.00    +0.229 C 
ATOM     15  C2* UNL     1     -36.750  24.256   3.583  0.00  0.00    +0.187 C 
ATOM     16  C3* UNL     1     -36.076  22.935   3.901  0.00  0.00    +0.171 C 
ATOM     17  C4* UNL     1     -35.982  22.978   5.416  0.00  0.00    +0.175 C 
BRANCH  15  18
ATOM     18  O2* UNL     1     -38.169  24.154   3.700  0.00  0.00    -0.378 OA
ATOM     19  H2* UNL     1     -38.579  24.983   3.406  0.00  0.00    +0.211 HD
ENDBRANCH  15  18
BRANCH  16  20
ATOM     20  O3* UNL     1     -36.798  21.811   3.445  0.00  0.00    -0.379 OA
ATOM     21  H3* UNL     1     -36.669  21.073   4.062  0.00  0.00    +0.211 HD
ENDBRANCH  16  20
BRANCH  17  22
ATOM     22  C5* UNL     1     -34.894  22.083   5.981  0.00  0.00    +0.169 C 
BRANCH  22  23
ATOM     23  O5* UNL     1     -35.273  20.731   5.790  0.00  0.00    -0.379 OA
ATOM     24  H5* UNL     1     -34.540  20.245   5.380  0.00  0.00    +0.211 HD
ENDBRANCH  22  23
ENDBRANCH  17  22
ENDBRANCH   1  14
BRANCH   6  25
ATOM     25  C   UNL     1     -35.950  26.286   1.967  0.00  0.00    +0.048 C 
ATOM     26  C   UNL     1     -36.840  27.112   1.319  0.00  0.00    +0.004 C 
ENDBRANCH   6  25
TORSDOF 6
ENDMDL
MODEL 3
REMARK VINA RESULT:      -5.6      2.647      4.909
REMARK  Name = 189898
REMARK  6 active torsions:
REMARK  status: ('A' for Active; 'I' for Inactive)
REMARK    1  A    between atoms: N_1  and  C1*_11
REMARK    2  A    between atoms: C_6  and  C_25
REMARK    3  A    between atoms: C2*_12  and  O2*_15
REMARK    4  A    between atoms: C3*_13  and  O3*_17
REMARK    5  A    between atoms: C4*_14  and  C5*_19
REMARK    6  A    between atoms: C5*_19  and  O5*_20
REMARK                            x       y       z     vdW  Elec       q    Type
REMARK                         _______ _______ _______ _____ _____    ______ ____
ROOT
ATOM      1  N   UNL     1     -36.834  24.400   3.032  0.00  0.00    -0.221 N 
ATOM      2  N   UNL     1     -38.330  26.032   2.729  0.00  0.00    -0.381 NA
ATOM      3  N   UNL     1     -38.191  22.480   2.416  0.00  0.00    -0.227 NA
ATOM      4  N   UNL     1     -40.449  23.153   1.778  0.00  0.00    -0.227 NA
ATOM      5  C   UNL     1     -37.986  23.792   2.611  0.00  0.00    +0.169 C 
ATOM      6  C   UNL     1     -37.095  25.747   3.087  0.00  0.00    +0.190 C 
ATOM      7  C   UNL     1     -38.898  24.819   2.429  0.00  0.00    +0.195 C 
ATOM      8  C   UNL     1     -40.171  24.461   1.995  0.00  0.00    +0.155 C 
ATOM      9  C   UNL     1     -39.456  22.258   1.999  0.00  0.00    +0.253 C 
ATOM     10  N   UNL     1     -41.159  25.439   1.785  0.00  0.00    -0.341 N 
ATOM     11  H   UNL     1     -42.056  25.173   1.478  0.00  0.00    +0.144 HD
ATOM     12  H   UNL     1     -40.953  26.388   1.944  0.00  0.00    +0.144 HD
ENDROOT
BRANCH   1  14
ATOM     13  O4* UNL     1     -35.319  22.699   2.364  0.00  0.00    -0.333 OA
ATOM     14  C1* UNL     1     -35.580  23.716   3.355  0.00  0.00    +0.229 C 
ATOM     15  C2* UNL     1     -35.589  23.036   4.725  0.00  0.00    +0.187 C 
ATOM     16  C3* UNL     1     -35.777  21.572   4.375  0.00  0.00    +0.171 C 
ATOM     17  C4* UNL     1     -35.049  21.463   3.046  0.00  0.00    +0.175 C 
BRANCH  15  18
ATOM     18  O2* UNL     1     -34.333  23.256   5.367  0.00  0.00    -0.378 OA
ATOM     19  H2* UNL     1     -33.717  23.667   4.740  0.00  0.00    +0.211 HD
ENDBRANCH  15  18
BRANCH  16  20
ATOM     20  O3* UNL     1     -35.252  20.689   5.343  0.00  0.00    -0.379 OA
ATOM     21  H3* UNL     1     -34.673  21.180   5.947  0.00  0.00    +0.211 HD
ENDBRANCH  16  20
BRANCH  17  22
ATOM     22  C5* UNL     1     -35.513  20.294   2.195  0.00  0.00    +0.169 C 
BRANCH  22  23
ATOM     23  O5* UNL     1     -36.740  19.813   2.714  0.00  0.00    -0.379 OA
ATOM     24  H5* UNL     1     -37.477  20.203   2.218  0.00  0.00    +0.211 HD
ENDBRANCH  22  23
ENDBRANCH  17  22
ENDBRANCH   1  14
BRANCH   6  25
ATOM     25  C   UNL     1     -36.063  26.614   3.496  0.00  0.00    +0.048 C 
ATOM     26  C   UNL     1     -35.273  27.420   2.708  0.00  0.00    +0.004 C 
ENDBRANCH   6  25
TORSDOF 6
ENDMDL
MODEL 4
REMARK VINA RESULT:      -5.4      3.038      4.986
REMARK  Name = 189898
REMARK  6 active torsions:
REMARK  status: ('A' for Active; 'I' for Inactive)
REMARK    1  A    between atoms: N_1  and  C1*_11
REMARK    2  A    between atoms: C_6  and  C_25
REMARK    3  A    between atoms: C2*_12  and  O2*_15
REMARK    4  A    between atoms: C3*_13  and  O3*_17
REMARK    5  A    between atoms: C4*_14  and  C5*_19
REMARK    6  A    between atoms: C5*_19  and  O5*_20
REMARK                            x       y       z     vdW  Elec       q    Type
REMARK                         _______ _______ _______ _____ _____    ______ ____
ROOT
ATOM      1  N   UNL     1     -35.643  25.070   4.024  0.00  0.00    -0.221 N 
ATOM      2  N   UNL     1     -34.199  25.091   5.729  0.00  0.00    -0.381 NA
ATOM      3  N   UNL     1     -35.127  27.223   3.022  0.00  0.00    -0.227 NA
ATOM      4  N   UNL     1     -33.365  28.379   4.252  0.00  0.00    -0.227 NA
ATOM      5  C   UNL     1     -34.966  26.256   3.939  0.00  0.00    +0.169 C 
ATOM      6  C   UNL     1     -35.143  24.407   5.118  0.00  0.00    +0.190 C 
ATOM      7  C   UNL     1     -34.077  26.250   5.002  0.00  0.00    +0.195 C 
ATOM      8  C   UNL     1     -33.256  27.364   5.143  0.00  0.00    +0.155 C 
ATOM      9  C   UNL     1     -34.279  28.247   3.262  0.00  0.00    +0.253 C 
ATOM     10  N   UNL     1     -32.325  27.441   6.194  0.00  0.00    -0.341 N 
ATOM     11  H   UNL     1     -31.750  28.235   6.283  0.00  0.00    +0.144 HD
ATOM     12  H   UNL     1     -32.249  26.702   6.839  0.00  0.00    +0.144 HD
ENDROOT
BRANCH   1  14
ATOM     13  O4* UNL     1     -36.431  25.140   1.786  0.00  0.00    -0.333 OA
ATOM     14  C1* UNL     1     -36.694  24.623   3.107  0.00  0.00    +0.229 C 
ATOM     15  C2* UNL     1     -38.095  25.080   3.513  0.00  0.00    +0.187 C 
ATOM     16  C3* UNL     1     -38.368  26.225   2.555  0.00  0.00    +0.171 C 
ATOM     17  C4* UNL     1     -37.623  25.783   1.307  0.00  0.00    +0.175 C 
BRANCH  15  18
ATOM     18  O2* UNL     1     -39.016  24.008   3.312  0.00  0.00    -0.378 OA
ATOM     19  H2* UNL     1     -38.807  23.283   3.922  0.00  0.00    +0.211 HD
ENDBRANCH  15  18
BRANCH  16  20
ATOM     20  O3* UNL     1     -39.741  26.437   2.308  0.00  0.00    -0.379 OA
ATOM     21  H3* UNL     1     -40.191  26.644   3.143  0.00  0.00    +0.211 HD
ENDBRANCH  16  20
BRANCH  17  22
ATOM     22  C5* UNL     1     -37.254  26.932   0.385  0.00  0.00    +0.169 C 
BRANCH  22  23
ATOM     23  O5* UNL     1     -37.390  28.149   1.097  0.00  0.00    -0.379 OA
ATOM     24  H5* UNL     1     -38.314  28.262   1.370  0.00  0.00    +0.211 HD
ENDBRANCH  22  23
ENDBRANCH  17  22
ENDBRANCH   1  14
BRANCH   6  25
ATOM     25  C   UNL     1     -35.675  23.142   5.436  0.00  0.00    +0.048 C 
ATOM     26  C   UNL     1     -35.223  22.249   6.380  0.00  0.00    +0.004 C 
ENDBRANCH   6  25
TORSDOF 6
ENDMDL
MODEL 5
REMARK VINA RESULT:      -5.4      2.938      4.843
REMARK  Name = 189898
REMARK  6 active torsions:
REMARK  status: ('A' for Active; 'I' for Inactive)
REMARK    1  A    between atoms: N_1  and  C1*_11
REMARK    2  A    between atoms: C_6  and  C_25
REMARK    3  A    between atoms: C2*_12  and  O2*_15
REMARK    4  A    between atoms: C3*_13  and  O3*_17
REMARK    5  A    between atoms: C4*_14  and  C5*_19
REMARK    6  A    between atoms: C5*_19  and  O5*_20
REMARK                            x       y       z     vdW  Elec       q    Type
REMARK                         _______ _______ _______ _____ _____    ______ ____
ROOT
ATOM      1  N   UNL     1     -36.590  23.048   2.860  0.00  0.00    -0.221 N 
ATOM      2  N   UNL     1     -37.469  24.530   4.283  0.00  0.00    -0.381 NA
ATOM      3  N   UNL     1     -38.291  23.087   1.125  0.00  0.00    -0.227 NA
ATOM      4  N   UNL     1     -40.094  24.636   1.679  0.00  0.00    -0.227 NA
ATOM      5  C   UNL     1     -37.762  23.474   2.296  0.00  0.00    +0.169 C 
ATOM      6  C   UNL     1     -36.462  23.714   4.054  0.00  0.00    +0.190 C 
ATOM      7  C   UNL     1     -38.290  24.390   3.192  0.00  0.00    +0.195 C 
ATOM      8  C   UNL     1     -39.502  24.980   2.848  0.00  0.00    +0.155 C 
ATOM      9  C   UNL     1     -39.461  23.725   0.902  0.00  0.00    +0.253 C 
ATOM     10  N   UNL     1     -40.110  25.920   3.699  0.00  0.00    -0.341 N 
ATOM     11  H   UNL     1     -40.968  26.331   3.444  0.00  0.00    +0.144 HD
ATOM     12  H   UNL     1     -39.678  26.167   4.548  0.00  0.00    +0.144 HD
ENDROOT
BRANCH   1  14
ATOM     13  O4* UNL     1     -35.629  22.246   0.843  0.00  0.00    -0.333 OA
ATOM     14  C1* UNL     1     -35.672  22.069   2.276  0.00  0.00    +0.229 C 
ATOM     15  C2* UNL     1     -36.066  20.618   2.551  0.00  0.00    +0.187 C 
ATOM     16  C3* UNL     1     -36.668  20.175   1.231  0.00  0.00    +0.171 C 
ATOM     17  C4* UNL     1     -35.855  20.969   0.224  0.00  0.00    +0.175 C 
BRANCH  15  18
ATOM     18  O2* UNL     1     -34.896  19.863   2.864  0.00  0.00    -0.378 OA
ATOM     19  H2* UNL     1     -34.485  19.549   2.044  0.00  0.00    +0.211 HD
ENDBRANCH  15  18
BRANCH  16  20
ATOM     20  O3* UNL     1     -36.578  18.784   1.010  0.00  0.00    -0.379 OA
ATOM     21  H3* UNL     1     -35.687  18.565   0.693  0.00  0.00    +0.211 HD
ENDBRANCH  16  20
BRANCH  17  22
ATOM     22  C5* UNL     1     -36.559  21.161  -1.107  0.00  0.00    +0.169 C 
BRANCH  22  23
ATOM     23  O5* UNL     1     -37.922  20.804  -0.956  0.00  0.00    -0.379 OA
ATOM     24  H5* UNL     1     -38.450  21.248  -1.638  0.00  0.00    +0.211 HD
ENDBRANCH  22  23
ENDBRANCH  17  22
ENDBRANCH   1  14
BRANCH   6  25
ATOM     25  C   UNL     1     -35.326  23.456   4.846  0.00  0.00    +0.048 C 
ATOM     26  C   UNL     1     -35.237  22.654   5.961  0.00  0.00    +0.004 C 
ENDBRANCH   6  25
TORSDOF 6
ENDMDL
MODEL 6
REMARK VINA RESULT:      -5.4      1.693      4.060
REMARK  Name = 189898
REMARK  6 active torsions:
REMARK  status: ('A' for Active; 'I' for Inactive)
REMARK    1  A    between atoms: N_1  and  C1*_11
REMARK    2  A    between atoms: C_6  and  C_25
REMARK    3  A    between atoms: C2*_12  and  O2*_15
REMARK    4  A    between atoms: C3*_13  and  O3*_17
REMARK    5  A    between atoms: C4*_14  and  C5*_19
REMARK    6  A    between atoms: C5*_19  and  O5*_20
REMARK                            x       y       z     vdW  Elec       q    Type
REMARK                         _______ _______ _______ _____ _____    ______ ____
ROOT
ATOM      1  N   UNL     1     -36.882  22.255   2.307  0.00  0.00    -0.221 N 
ATOM      2  N   UNL     1     -35.635  20.760   3.403  0.00  0.00    -0.381 NA
ATOM      3  N   UNL     1     -36.874  24.065   3.928  0.00  0.00    -0.227 NA
ATOM      4  N   UNL     1     -35.583  23.477   5.914  0.00  0.00    -0.227 NA
ATOM      5  C   UNL     1     -36.537  22.841   3.495  0.00  0.00    +0.169 C 
ATOM      6  C   UNL     1     -36.314  21.005   2.302  0.00  0.00    +0.190 C 
ATOM      7  C   UNL     1     -35.766  21.900   4.158  0.00  0.00    +0.195 C 
ATOM      8  C   UNL     1     -35.281  22.255   5.413  0.00  0.00    +0.155 C 
ATOM      9  C   UNL     1     -36.349  24.294   5.151  0.00  0.00    +0.253 C 
ATOM     10  N   UNL     1     -34.491  21.361   6.156  0.00  0.00    -0.341 N 
ATOM     11  H   UNL     1     -34.154  21.624   7.043  0.00  0.00    +0.144 HD
ATOM     12  H   UNL     1     -34.274  20.474   5.789  0.00  0.00    +0.144 HD
ENDROOT
BRANCH   1  14
ATOM     13  O4* UNL     1     -37.366  24.271   1.150  0.00  0.00    -0.333 OA
ATOM     14  C1* UNL     1     -37.702  22.872   1.261  0.00  0.00    +0.229 C 
ATOM     15  C2* UNL     1     -39.205  22.775   1.525  0.00  0.00    +0.187 C 
ATOM     16  C3* UNL     1     -39.555  24.173   1.999  0.00  0.00    +0.171 C 
ATOM     17  C4* UNL     1     -38.583  25.033   1.210  0.00  0.00    +0.175 C 
BRANCH  15  18
ATOM     18  O2* UNL     1     -39.877  22.460   0.305  0.00  0.00    -0.378 OA
ATOM     19  H2* UNL     1     -40.416  23.218   0.028  0.00  0.00    +0.211 HD
ENDBRANCH  15  18
BRANCH  16  20
ATOM     20  O3* UNL     1     -40.899  24.530   1.757  0.00  0.00    -0.379 OA
ATOM     21  H3* UNL     1     -40.994  25.494   1.823  0.00  0.00    +0.211 HD
ENDBRANCH  16  20
BRANCH  17  22
ATOM     22  C5* UNL     1     -38.313  26.384   1.849  0.00  0.00    +0.169 C 
BRANCH  22  23
ATOM     23  O5* UNL     1     -38.796  26.362   3.180  0.00  0.00    -0.379 OA
ATOM     24  H5* UNL     1     -38.090  26.637   3.785  0.00  0.00    +0.211 HD
ENDBRANCH  22  23
ENDBRANCH  17  22
ENDBRANCH   1  14
BRANCH   6  25
ATOM     25  C   UNL     1     -36.517  20.181   1.179  0.00  0.00    +0.048 C 
ATOM     26  C   UNL     1     -35.564  19.618   0.360  0.00  0.00    +0.004 C 
ENDBRANCH   6  25
TORSDOF 6
ENDMDL
MODEL 7
REMARK VINA RESULT:      -5.3      3.097      4.912
REMARK  Name = 189898
REMARK  6 active torsions:
REMARK  status: ('A' for Active; 'I' for Inactive)
REMARK    1  A    between atoms: N_1  and  C1*_11
REMARK    2  A    between atoms: C_6  and  C_25
REMARK    3  A    between atoms: C2*_12  and  O2*_15
REMARK    4  A    between atoms: C3*_13  and  O3*_17
REMARK    5  A    between atoms: C4*_14  and  C5*_19
REMARK    6  A    between atoms: C5*_19  and  O5*_20
REMARK                            x       y       z     vdW  Elec       q    Type
REMARK                         _______ _______ _______ _____ _____    ______ ____
ROOT
ATOM      1  N   UNL     1     -35.456  22.980   2.975  0.00  0.00    -0.221 N 
ATOM      2  N   UNL     1     -35.232  24.552   4.546  0.00  0.00    -0.381 NA
ATOM      3  N   UNL     1     -35.853  24.390   1.036  0.00  0.00    -0.227 NA
ATOM      4  N   UNL     1     -35.831  26.755   1.635  0.00  0.00    -0.227 NA
ATOM      5  C   UNL     1     -35.613  24.182   2.340  0.00  0.00    +0.169 C 
ATOM      6  C   UNL     1     -35.230  23.259   4.300  0.00  0.00    +0.190 C 
ATOM      7  C   UNL     1     -35.470  25.141   3.329  0.00  0.00    +0.195 C 
ATOM      8  C   UNL     1     -35.587  26.471   2.937  0.00  0.00    +0.155 C 
ATOM      9  C   UNL     1     -35.947  25.712   0.779  0.00  0.00    +0.253 C 
ATOM     10  N   UNL     1     -35.457  27.510   3.876  0.00  0.00    -0.341 N 
ATOM     11  H   UNL     1     -35.542  28.447   3.586  0.00  0.00    +0.144 HD
ATOM     12  H   UNL     1     -35.280  27.300   4.821  0.00  0.00    +0.144 HD
ENDROOT
BRANCH   1  14
ATOM     13  O4* UNL     1     -35.106  21.778   0.958  0.00  0.00    -0.333 OA
ATOM     14  C1* UNL     1     -35.524  21.664   2.335  0.00  0.00    +0.229 C 
ATOM     15  C2* UNL     1     -36.923  21.049   2.344  0.00  0.00    +0.187 C 
ATOM     16  C3* UNL     1     -37.400  21.270   0.921  0.00  0.00    +0.171 C 
ATOM     17  C4* UNL     1     -36.107  21.165   0.129  0.00  0.00    +0.175 C 
BRANCH  15  18
ATOM     18  O2* UNL     1     -36.823  19.657   2.645  0.00  0.00    -0.378 OA
ATOM     19  H2* UNL     1     -36.461  19.544   3.538  0.00  0.00    +0.211 HD
ENDBRANCH  15  18
BRANCH  16  20
ATOM     20  O3* UNL     1     -38.362  20.329   0.496  0.00  0.00    -0.379 OA
ATOM     21  H3* UNL     1     -38.067  19.436   0.737  0.00  0.00    +0.211 HD
ENDBRANCH  16  20
BRANCH  17  22
ATOM     22  C5* UNL     1     -36.162  21.866  -1.216  0.00  0.00    +0.169 C 
BRANCH  22  23
ATOM     23  O5* UNL     1     -37.236  22.790  -1.203  0.00  0.00    -0.379 OA
ATOM     24  H5* UNL     1     -37.218  23.318  -2.017  0.00  0.00    +0.211 HD
ENDBRANCH  22  23
ENDBRANCH  17  22
ENDBRANCH   1  14
BRANCH   6  25
ATOM     25  C   UNL     1     -35.034  22.183   5.188  0.00  0.00    +0.048 C 
ATOM     26  C   UNL     1     -35.479  22.066   6.485  0.00  0.00    +0.004 C 
ENDBRANCH   6  25
TORSDOF 6
ENDMDL
MODEL 8
REMARK VINA RESULT:      -5.2      1.597      3.951
REMARK  Name = 189898
REMARK  6 active torsions:
REMARK  status: ('A' for Active; 'I' for Inactive)
REMARK    1  A    between atoms: N_1  and  C1*_11
REMARK    2  A    between atoms: C_6  and  C_25
REMARK    3  A    between atoms: C2*_12  and  O2*_15
REMARK    4  A    between atoms: C3*_13  and  O3*_17
REMARK    5  A    between atoms: C4*_14  and  C5*_19
REMARK    6  A    between atoms: C5*_19  and  O5*_20
REMARK                            x       y       z     vdW  Elec       q    Type
REMARK                         _______ _______ _______ _____ _____    ______ ____
ROOT
ATOM      1  N   UNL     1     -37.453  23.641   1.567  0.00  0.00    -0.221 N 
ATOM      2  N   UNL     1     -38.034  21.796   0.449  0.00  0.00    -0.381 NA
ATOM      3  N   UNL     1     -35.881  22.682   3.153  0.00  0.00    -0.227 NA
ATOM      4  N   UNL     1     -35.652  20.273   2.835  0.00  0.00    -0.227 NA
ATOM      5  C   UNL     1     -36.749  22.612   2.131  0.00  0.00    +0.169 C 
ATOM      6  C   UNL     1     -38.210  23.096   0.560  0.00  0.00    +0.190 C 
ATOM      7  C   UNL     1     -37.122  21.480   1.425  0.00  0.00    +0.195 C 
ATOM      8  C   UNL     1     -36.538  20.277   1.810  0.00  0.00    +0.155 C 
ATOM      9  C   UNL     1     -35.383  21.458   3.433  0.00  0.00    +0.253 C 
ATOM     10  N   UNL     1     -36.859  19.079   1.148  0.00  0.00    -0.341 N 
ATOM     11  H   UNL     1     -36.439  18.234   1.429  0.00  0.00    +0.144 HD
ATOM     12  H   UNL     1     -37.504  19.086   0.404  0.00  0.00    +0.144 HD
ENDROOT
BRANCH   1  14
ATOM     13  O4* UNL     1     -36.019  25.498   1.927  0.00  0.00    -0.333 OA
ATOM     14  C1* UNL     1     -37.388  25.044   1.981  0.00  0.00    +0.229 C 
ATOM     15  C2* UNL     1     -37.900  25.288   3.401  0.00  0.00    +0.187 C 
ATOM     16  C3* UNL     1     -36.620  25.459   4.198  0.00  0.00    +0.171 C 
ATOM     17  C4* UNL     1     -35.697  26.113   3.185  0.00  0.00    +0.175 C 
BRANCH  15  18
ATOM     18  O2* UNL     1     -38.684  26.481   3.420  0.00  0.00    -0.378 OA
ATOM     19  H2* UNL     1     -38.222  27.179   2.929  0.00  0.00    +0.211 HD
ENDBRANCH  15  18
BRANCH  16  20
ATOM     20  O3* UNL     1     -36.780  26.246   5.358  0.00  0.00    -0.379 OA
ATOM     21  H3* UNL     1     -36.676  27.183   5.129  0.00  0.00    +0.211 HD
ENDBRANCH  16  20
BRANCH  17  22
ATOM     22  C5* UNL     1     -34.223  25.914   3.492  0.00  0.00    +0.169 C 
BRANCH  22  23
ATOM     23  O5* UNL     1     -34.093  24.860   4.430  0.00  0.00    -0.379 OA
ATOM     24  H5* UNL     1     -34.108  24.009   3.964  0.00  0.00    +0.211 HD
ENDBRANCH  22  23
ENDBRANCH  17  22
ENDBRANCH   1  14
BRANCH   6  25
ATOM     25  C   UNL     1     -39.040  23.950  -0.193  0.00  0.00    +0.048 C 
ATOM     26  C   UNL     1     -40.410  24.067  -0.131  0.00  0.00    +0.004 C 
ENDBRANCH   6  25
TORSDOF 6
ENDMDL
MODEL 9
REMARK VINA RESULT:      -5.2      2.350      3.639
REMARK  Name = 189898
REMARK  6 active torsions:
REMARK  status: ('A' for Active; 'I' for Inactive)
REMARK    1  A    between atoms: N_1  and  C1*_11
REMARK    2  A    between atoms: C_6  and  C_25
REMARK    3  A    between atoms: C2*_12  and  O2*_15
REMARK    4  A    between atoms: C3*_13  and  O3*_17
REMARK    5  A    between atoms: C4*_14  and  C5*_19
REMARK    6  A    between atoms: C5*_19  and  O5*_20
REMARK                            x       y       z     vdW  Elec       q    Type
REMARK                         _______ _______ _______ _____ _____    ______ ____
ROOT
ATOM      1  N   UNL     1     -36.027  22.969   2.425  0.00  0.00    -0.221 N 
ATOM      2  N   UNL     1     -37.300  21.368   1.526  0.00  0.00    -0.381 NA
ATOM      3  N   UNL     1     -37.759  24.504   3.166  0.00  0.00    -0.227 NA
ATOM      4  N   UNL     1     -39.985  23.661   2.629  0.00  0.00    -0.227 NA
ATOM      5  C   UNL     1     -37.323  23.374   2.587  0.00  0.00    +0.169 C 
ATOM      6  C   UNL     1     -36.068  21.757   1.781  0.00  0.00    +0.190 C 
ATOM      7  C   UNL     1     -38.095  22.370   2.024  0.00  0.00    +0.195 C 
ATOM      8  C   UNL     1     -39.476  22.542   2.060  0.00  0.00    +0.155 C 
ATOM      9  C   UNL     1     -39.108  24.558   3.139  0.00  0.00    +0.253 C 
ATOM     10  N   UNL     1     -40.334  21.573   1.512  0.00  0.00    -0.341 N 
ATOM     11  H   UNL     1     -41.309  21.707   1.543  0.00  0.00    +0.144 HD
ATOM     12  H   UNL     1     -39.960  20.762   1.098  0.00  0.00    +0.144 HD
ENDROOT
BRANCH   1  14
ATOM     13  O4* UNL     1     -34.944  23.981   4.280  0.00  0.00    -0.333 OA
ATOM     14  C1* UNL     1     -34.843  23.710   2.865  0.00  0.00    +0.229 C 
ATOM     15  C2* UNL     1     -34.656  25.048   2.150  0.00  0.00    +0.187 C 
ATOM     16  C3* UNL     1     -35.120  26.054   3.187  0.00  0.00    +0.171 C 
ATOM     17  C4* UNL     1     -34.713  25.384   4.488  0.00  0.00    +0.175 C 
BRANCH  15  18
ATOM     18  O2* UNL     1     -33.275  25.227   1.839  0.00  0.00    -0.378 OA
ATOM     19  H2* UNL     1     -32.853  24.360   1.730  0.00  0.00    +0.211 HD
ENDBRANCH  15  18
BRANCH  16  20
ATOM     20  O3* UNL     1     -34.533  27.328   3.038  0.00  0.00    -0.379 OA
ATOM     21  H3* UNL     1     -35.230  28.000   2.981  0.00  0.00    +0.211 HD
ENDBRANCH  16  20
BRANCH  17  22
ATOM     22  C5* UNL     1     -35.509  25.863   5.690  0.00  0.00    +0.169 C 
BRANCH  22  23
ATOM     23  O5* UNL     1     -36.599  26.643   5.232  0.00  0.00    -0.379 OA
ATOM     24  H5* UNL     1     -37.378  26.463   5.781  0.00  0.00    +0.211 HD
ENDBRANCH  22  23
ENDBRANCH  17  22
ENDBRANCH   1  14
BRANCH   6  25
ATOM     25  C   UNL     1     -34.851  21.111   1.489  0.00  0.00    +0.048 C 
ATOM     26  C   UNL     1     -34.470  19.833   1.829  0.00  0.00    +0.004 C 
ENDBRANCH   6  25
TORSDOF 6
ENDMDL
