MODEL 1
REMARK VINA RESULT:      -5.8      0.000      0.000
REMARK  Name = 60846
REMARK  11 active torsions:
REMARK  status: ('A' for Active; 'I' for Inactive)
REMARK    1  A    between atoms: C_1  and  C_19
REMARK    2  A    between atoms: C_4  and  C_7
REMARK    3  A    between atoms: C_8  and  C_17
REMARK    4  A    between atoms: C_19  and  N_21
REMARK    5  A    between atoms: N_21  and  C_23
REMARK    6  A    between atoms: C_22  and  C_31
REMARK    7  A    between atoms: C_23  and  C_24
REMARK    8  A    between atoms: C_23  and  C_28
REMARK    9  A    between atoms: C_28  and  O_29
REMARK   10  A    between atoms: C_31  and  C_32
REMARK   11  A    between atoms: C_32  and  C_33
REMARK                            x       y       z     vdW  Elec       q    Type
REMARK                         _______ _______ _______ _____ _____    ______ ____
ROOT
ATOM      1  C   UNL     1     -35.993  22.526   1.507  0.00  0.00    -0.002 C 
ATOM      2  C   UNL     1     -36.131  21.471   2.409  0.00  0.00    -0.003 C 
ATOM      3  C   UNL     1     -35.933  22.270   0.137  0.00  0.00    -0.003 C 
ATOM      4  C   UNL     1     -36.153  19.903   0.571  0.00  0.00    +0.001 C 
ATOM      5  C   UNL     1     -36.212  20.159   1.940  0.00  0.00    -0.000 C 
ATOM      6  C   UNL     1     -36.014  20.959  -0.331  0.00  0.00    -0.000 C 
ENDROOT
BRANCH   4   7
ATOM      7  C   UNL     1     -36.237  18.543   0.085  0.00  0.00    +0.009 C 
ATOM      8  C   UNL     1     -35.097  17.773  -0.137  0.00  0.00    +0.065 C 
ATOM      9  C   UNL     1     -37.501  18.005  -0.160  0.00  0.00    +0.001 C 
ATOM     10  C   UNL     1     -35.218  16.465  -0.606  0.00  0.00    +0.010 C 
ATOM     11  C   UNL     1     -37.623  16.697  -0.629  0.00  0.00    +0.000 C 
ATOM     12  C   UNL     1     -36.482  15.926  -0.852  0.00  0.00    +0.001 C 
BRANCH   8  17
ATOM     13  N   UNL     1     -33.152  18.208   1.281  0.00  0.00    -0.110 NA
ATOM     14  N   UNL     1     -33.050  18.919  -0.866  0.00  0.00    -0.087 NA
ATOM     15  N   UNL     1     -32.004  18.823   0.964  0.00  0.00    -0.140 N 
ATOM     16  N   UNL     1     -31.900  19.262  -0.299  0.00  0.00    -0.022 NA
ATOM     17  C   UNL     1     -33.775  18.292   0.103  0.00  0.00    +0.073 C 
ATOM     18  H   UNL     1     -31.280  18.947   1.620  0.00  0.00    +0.197 HD
ENDBRANCH   8  17
ENDBRANCH   4   7
BRANCH   1  19
ATOM     19  C   UNL     1     -35.906  23.939   2.010  0.00  0.00    +0.121 C 
BRANCH  19  21
ATOM     20  O   UNL     1     -39.137  24.449   3.680  0.00  0.00    -0.275 OA
ATOM     21  N   UNL     1     -36.926  24.223   3.018  0.00  0.00    -0.267 N 
ATOM     22  C   UNL     1     -38.307  24.202   2.799  0.00  0.00    +0.226 C 
BRANCH  21  23
ATOM     23  C   UNL     1     -36.412  24.553   4.341  0.00  0.00    +0.175 C 
BRANCH  23  24
ATOM     24  C   UNL     1     -35.176  23.687   4.666  0.00  0.00    +0.029 C 
ATOM     25  C   UNL     1     -33.919  24.512   4.958  0.00  0.00    +0.002 C 
ATOM     26  C   UNL     1     -35.442  22.705   5.811  0.00  0.00    +0.002 C 
ENDBRANCH  23  24
BRANCH  23  28
ATOM     27  O   UNL     1     -35.628  26.735   3.615  0.00  0.00    -0.248 OA
ATOM     28  C   UNL     1     -36.179  26.057   4.474  0.00  0.00    +0.332 C 
BRANCH  28  29
ATOM     29  O   UNL     1     -36.586  26.588   5.653  0.00  0.00    -0.479 OA
ATOM     30  H   UNL     1     -37.451  26.417   5.970  0.00  0.00    +0.295 HD
ENDBRANCH  28  29
ENDBRANCH  23  28
ENDBRANCH  21  23
BRANCH  22  31
ATOM     31  C   UNL     1     -38.759  23.849   1.389  0.00  0.00    +0.085 C 
BRANCH  31  32
ATOM     32  C   UNL     1     -40.016  22.977   1.375  0.00  0.00    +0.010 C 
BRANCH  32  33
ATOM     33  C   UNL     1     -39.662  21.492   1.325  0.00  0.00    +0.001 C 
ATOM     34  C   UNL     1     -39.690  20.959  -0.099  0.00  0.00    +0.000 C 
ENDBRANCH  32  33
ENDBRANCH  31  32
ENDBRANCH  22  31
ENDBRANCH  19  21
ENDBRANCH   1  19
TORSDOF 11
ENDMDL
MODEL 2
REMARK VINA RESULT:      -5.7      2.030      4.471
REMARK  Name = 60846
REMARK  11 active torsions:
REMARK  status: ('A' for Active; 'I' for Inactive)
REMARK    1  A    between atoms: C_1  and  C_19
REMARK    2  A    between atoms: C_4  and  C_7
REMARK    3  A    between atoms: C_8  and  C_17
REMARK    4  A    between atoms: C_19  and  N_21
REMARK    5  A    between atoms: N_21  and  C_23
REMARK    6  A    between atoms: C_22  and  C_31
REMARK    7  A    between atoms: C_23  and  C_24
REMARK    8  A    between atoms: C_23  and  C_28
REMARK    9  A    between atoms: C_28  and  O_29
REMARK   10  A    between atoms: C_31  and  C_32
REMARK   11  A    between atoms: C_32  and  C_33
REMARK                            x       y       z     vdW  Elec       q    Type
REMARK                         _______ _______ _______ _____ _____    ______ ____
ROOT
ATOM      1  C   UNL     1     -36.012  21.814   2.107  0.00  0.00    -0.002 C 
ATOM      2  C   UNL     1     -35.483  22.271   0.899  0.00  0.00    -0.003 C 
ATOM      3  C   UNL     1     -35.558  20.617   2.659  0.00  0.00    -0.003 C 
ATOM      4  C   UNL     1     -34.044  20.333   0.798  0.00  0.00    +0.001 C 
ATOM      5  C   UNL     1     -34.499  21.530   0.245  0.00  0.00    -0.000 C 
ATOM      6  C   UNL     1     -34.573  19.877   2.006  0.00  0.00    -0.000 C 
ENDROOT
BRANCH   4   7
ATOM      7  C   UNL     1     -33.022  19.565   0.120  0.00  0.00    +0.009 C 
ATOM      8  C   UNL     1     -33.345  18.540  -0.767  0.00  0.00    +0.065 C 
ATOM      9  C   UNL     1     -31.685  19.874   0.373  0.00  0.00    +0.001 C 
ATOM     10  C   UNL     1     -32.331  17.822  -1.402  0.00  0.00    +0.010 C 
ATOM     11  C   UNL     1     -30.671  19.156  -0.262  0.00  0.00    +0.000 C 
ATOM     12  C   UNL     1     -30.994  18.130  -1.150  0.00  0.00    +0.001 C 
BRANCH   8  17
ATOM     13  N   UNL     1     -35.445  18.788  -1.996  0.00  0.00    -0.110 NA
ATOM     14  N   UNL     1     -35.372  17.209  -0.375  0.00  0.00    -0.087 NA
ATOM     15  N   UNL     1     -36.590  18.108  -1.845  0.00  0.00    -0.140 N 
ATOM     16  N   UNL     1     -36.592  17.162  -0.895  0.00  0.00    -0.022 NA
ATOM     17  C   UNL     1     -34.712  18.190  -1.055  0.00  0.00    +0.073 C 
ATOM     18  H   UNL     1     -37.383  18.292  -2.398  0.00  0.00    +0.197 HD
ENDBRANCH   8  17
ENDBRANCH   4   7
BRANCH   1  19
ATOM     19  C   UNL     1     -37.072  22.611   2.812  0.00  0.00    +0.121 C 
BRANCH  19  21
ATOM     20  O   UNL     1     -35.657  25.998   2.918  0.00  0.00    -0.275 OA
ATOM     21  N   UNL     1     -36.882  24.049   2.636  0.00  0.00    -0.267 N 
ATOM     22  C   UNL     1     -35.779  24.781   3.087  0.00  0.00    +0.226 C 
BRANCH  21  23
ATOM     23  C   UNL     1     -37.959  24.733   1.930  0.00  0.00    +0.175 C 
BRANCH  23  24
ATOM     24  C   UNL     1     -38.745  23.732   1.056  0.00  0.00    +0.029 C 
ATOM     25  C   UNL     1     -40.249  23.729   1.344  0.00  0.00    +0.002 C 
ATOM     26  C   UNL     1     -38.493  23.947  -0.439  0.00  0.00    +0.002 C 
ENDBRANCH  23  24
BRANCH  23  28
ATOM     27  O   UNL     1     -39.313  26.625   2.631  0.00  0.00    -0.248 OA
ATOM     28  C   UNL     1     -38.823  25.534   2.901  0.00  0.00    +0.332 C 
BRANCH  28  29
ATOM     29  O   UNL     1     -38.970  24.967   4.123  0.00  0.00    -0.479 OA
ATOM     30  H   UNL     1     -39.646  24.333   4.268  0.00  0.00    +0.295 HD
ENDBRANCH  28  29
ENDBRANCH  23  28
ENDBRANCH  21  23
BRANCH  22  31
ATOM     31  C   UNL     1     -34.701  23.990   3.816  0.00  0.00    +0.085 C 
BRANCH  31  32
ATOM     32  C   UNL     1     -34.756  24.181   5.333  0.00  0.00    +0.010 C 
BRANCH  32  33
ATOM     33  C   UNL     1     -35.564  23.072   6.004  0.00  0.00    +0.001 C 
ATOM     34  C   UNL     1     -34.813  21.750   5.994  0.00  0.00    +0.000 C 
ENDBRANCH  32  33
ENDBRANCH  31  32
ENDBRANCH  22  31
ENDBRANCH  19  21
ENDBRANCH   1  19
TORSDOF 11
ENDMDL
MODEL 3
REMARK VINA RESULT:      -5.6      2.162      4.118
REMARK  Name = 60846
REMARK  11 active torsions:
REMARK  status: ('A' for Active; 'I' for Inactive)
REMARK    1  A    between atoms: C_1  and  C_19
REMARK    2  A    between atoms: C_4  and  C_7
REMARK    3  A    between atoms: C_8  and  C_17
REMARK    4  A    between atoms: C_19  and  N_21
REMARK    5  A    between atoms: N_21  and  C_23
REMARK    6  A    between atoms: C_22  and  C_31
REMARK    7  A    between atoms: C_23  and  C_24
REMARK    8  A    between atoms: C_23  and  C_28
REMARK    9  A    between atoms: C_28  and  O_29
REMARK   10  A    between atoms: C_31  and  C_32
REMARK   11  A    between atoms: C_32  and  C_33
REMARK                            x       y       z     vdW  Elec       q    Type
REMARK                         _______ _______ _______ _____ _____    ______ ____
ROOT
ATOM      1  C   UNL     1     -34.751  23.149   1.509  0.00  0.00    -0.002 C 
ATOM      2  C   UNL     1     -34.018  22.849   0.362  0.00  0.00    -0.003 C 
ATOM      3  C   UNL     1     -35.160  22.126   2.365  0.00  0.00    -0.003 C 
ATOM      4  C   UNL     1     -34.100  20.501   0.925  0.00  0.00    +0.001 C 
ATOM      5  C   UNL     1     -33.692  21.524   0.070  0.00  0.00    -0.000 C 
ATOM      6  C   UNL     1     -34.834  20.802   2.073  0.00  0.00    -0.000 C 
ENDROOT
BRANCH   4   7
ATOM      7  C   UNL     1     -33.762  19.127   0.624  0.00  0.00    +0.009 C 
ATOM      8  C   UNL     1     -34.645  18.288  -0.055  0.00  0.00    +0.065 C 
ATOM      9  C   UNL     1     -32.515  18.648   1.028  0.00  0.00    +0.001 C 
ATOM     10  C   UNL     1     -34.282  16.969  -0.328  0.00  0.00    +0.010 C 
ATOM     11  C   UNL     1     -32.153  17.329   0.754  0.00  0.00    +0.000 C 
ATOM     12  C   UNL     1     -33.036  16.489   0.076  0.00  0.00    +0.001 C 
BRANCH   8  17
ATOM     13  N   UNL     1     -37.051  18.611   0.240  0.00  0.00    -0.110 NA
ATOM     14  N   UNL     1     -36.134  19.349  -1.694  0.00  0.00    -0.087 NA
ATOM     15  N   UNL     1     -37.930  19.176  -0.600  0.00  0.00    -0.140 N 
ATOM     16  N   UNL     1     -37.430  19.628  -1.759  0.00  0.00    -0.022 NA
ATOM     17  C   UNL     1     -35.940  18.743  -0.488  0.00  0.00    +0.073 C 
ATOM     18  H   UNL     1     -38.886  19.254  -0.380  0.00  0.00    +0.197 HD
ENDBRANCH   8  17
ENDBRANCH   4   7
BRANCH   1  19
ATOM     19  C   UNL     1     -35.102  24.575   1.825  0.00  0.00    +0.121 C 
BRANCH  19  21
ATOM     20  O   UNL     1     -37.528  25.002   4.549  0.00  0.00    -0.275 OA
ATOM     21  N   UNL     1     -36.351  24.677   2.577  0.00  0.00    -0.267 N 
ATOM     22  C   UNL     1     -36.451  24.923   3.950  0.00  0.00    +0.226 C 
BRANCH  21  23
ATOM     23  C   UNL     1     -37.564  24.497   1.789  0.00  0.00    +0.175 C 
BRANCH  23  24
ATOM     24  C   UNL     1     -38.572  23.613   2.555  0.00  0.00    +0.029 C 
ATOM     25  C   UNL     1     -40.026  24.063   2.380  0.00  0.00    +0.002 C 
ATOM     26  C   UNL     1     -38.431  22.131   2.196  0.00  0.00    +0.002 C 
ENDBRANCH  23  24
BRANCH  23  28
ATOM     27  O   UNL     1     -38.448  26.091   0.181  0.00  0.00    -0.248 OA
ATOM     28  C   UNL     1     -38.125  25.844   1.338  0.00  0.00    +0.332 C 
BRANCH  28  29
ATOM     29  O   UNL     1     -38.193  26.782   2.314  0.00  0.00    -0.479 OA
ATOM     30  H   UNL     1     -37.454  27.332   2.488  0.00  0.00    +0.295 HD
ENDBRANCH  28  29
ENDBRANCH  23  28
ENDBRANCH  21  23
BRANCH  22  31
ATOM     31  C   UNL     1     -35.136  25.098   4.699  0.00  0.00    +0.085 C 
BRANCH  31  32
ATOM     32  C   UNL     1     -34.536  23.765   5.150  0.00  0.00    +0.010 C 
BRANCH  32  33
ATOM     33  C   UNL     1     -35.528  22.964   5.991  0.00  0.00    +0.001 C 
ATOM     34  C   UNL     1     -35.181  21.484   6.004  0.00  0.00    +0.000 C 
ENDBRANCH  32  33
ENDBRANCH  31  32
ENDBRANCH  22  31
ENDBRANCH  19  21
ENDBRANCH   1  19
TORSDOF 11
ENDMDL
MODEL 4
REMARK VINA RESULT:      -5.6      3.426      8.278
REMARK  Name = 60846
REMARK  11 active torsions:
REMARK  status: ('A' for Active; 'I' for Inactive)
REMARK    1  A    between atoms: C_1  and  C_19
REMARK    2  A    between atoms: C_4  and  C_7
REMARK    3  A    between atoms: C_8  and  C_17
REMARK    4  A    between atoms: C_19  and  N_21
REMARK    5  A    between atoms: N_21  and  C_23
REMARK    6  A    between atoms: C_22  and  C_31
REMARK    7  A    between atoms: C_23  and  C_24
REMARK    8  A    between atoms: C_23  and  C_28
REMARK    9  A    between atoms: C_28  and  O_29
REMARK   10  A    between atoms: C_31  and  C_32
REMARK   11  A    between atoms: C_32  and  C_33
REMARK                            x       y       z     vdW  Elec       q    Type
REMARK                         _______ _______ _______ _____ _____    ______ ____
ROOT
ATOM      1  C   UNL     1     -35.661  24.091   4.409  0.00  0.00    -0.002 C 
ATOM      2  C   UNL     1     -36.099  25.092   5.277  0.00  0.00    -0.003 C 
ATOM      3  C   UNL     1     -34.400  24.180   3.820  0.00  0.00    -0.003 C 
ATOM      4  C   UNL     1     -34.011  26.270   4.969  0.00  0.00    +0.001 C 
ATOM      5  C   UNL     1     -35.273  26.181   5.557  0.00  0.00    -0.000 C 
ATOM      6  C   UNL     1     -33.575  25.269   4.101  0.00  0.00    -0.000 C 
ENDROOT
BRANCH   4   7
ATOM      7  C   UNL     1     -33.155  27.398   5.261  0.00  0.00    +0.009 C 
ATOM      8  C   UNL     1     -33.037  28.474   4.382  0.00  0.00    +0.065 C 
ATOM      9  C   UNL     1     -32.438  27.393   6.458  0.00  0.00    +0.001 C 
ATOM     10  C   UNL     1     -32.201  29.545   4.698  0.00  0.00    +0.010 C 
ATOM     11  C   UNL     1     -31.602  28.464   6.774  0.00  0.00    +0.000 C 
ATOM     12  C   UNL     1     -31.483  29.541   5.894  0.00  0.00    +0.001 C 
BRANCH   8  17
ATOM     13  N   UNL     1     -33.243  28.130   1.969  0.00  0.00    -0.110 NA
ATOM     14  N   UNL     1     -35.045  28.965   3.055  0.00  0.00    -0.087 NA
ATOM     15  N   UNL     1     -34.296  28.372   1.175  0.00  0.00    -0.140 N 
ATOM     16  N   UNL     1     -35.386  28.868   1.776  0.00  0.00    -0.022 NA
ATOM     17  C   UNL     1     -33.761  28.517   3.137  0.00  0.00    +0.073 C 
ATOM     18  H   UNL     1     -34.270  28.197   0.207  0.00  0.00    +0.197 HD
ENDBRANCH   8  17
ENDBRANCH   4   7
BRANCH   1  19
ATOM     19  C   UNL     1     -36.549  22.918   4.106  0.00  0.00    +0.121 C 
BRANCH  19  21
ATOM     20  O   UNL     1     -37.498  22.163   0.640  0.00  0.00    -0.275 OA
ATOM     21  N   UNL     1     -37.134  23.005   2.770  0.00  0.00    -0.267 N 
ATOM     22  C   UNL     1     -36.987  22.051   1.759  0.00  0.00    +0.226 C 
BRANCH  21  23
ATOM     23  C   UNL     1     -37.924  24.204   2.518  0.00  0.00    +0.175 C 
BRANCH  23  24
ATOM     24  C   UNL     1     -37.669  24.720   1.085  0.00  0.00    +0.029 C 
ATOM     25  C   UNL     1     -38.792  25.618   0.557  0.00  0.00    +0.002 C 
ATOM     26  C   UNL     1     -36.319  25.432   0.959  0.00  0.00    +0.002 C 
ENDBRANCH  23  24
BRANCH  23  28
ATOM     27  O   UNL     1     -40.101  23.159   2.252  0.00  0.00    -0.248 OA
ATOM     28  C   UNL     1     -39.396  23.965   2.848  0.00  0.00    +0.332 C 
BRANCH  28  29
ATOM     29  O   UNL     1     -39.889  24.758   3.830  0.00  0.00    -0.479 OA
ATOM     30  H   UNL     1     -40.528  24.420   4.428  0.00  0.00    +0.295 HD
ENDBRANCH  28  29
ENDBRANCH  23  28
ENDBRANCH  21  23
BRANCH  22  31
ATOM     31  C   UNL     1     -36.145  20.830   2.104  0.00  0.00    +0.085 C 
BRANCH  31  32
ATOM     32  C   UNL     1     -34.773  20.851   1.427  0.00  0.00    +0.010 C 
BRANCH  32  33
ATOM     33  C   UNL     1     -34.076  19.496   1.542  0.00  0.00    +0.001 C 
ATOM     34  C   UNL     1     -32.737  19.495   0.822  0.00  0.00    +0.000 C 
ENDBRANCH  32  33
ENDBRANCH  31  32
ENDBRANCH  22  31
ENDBRANCH  19  21
ENDBRANCH   1  19
TORSDOF 11
ENDMDL
MODEL 5
REMARK VINA RESULT:      -5.6      4.351      8.430
REMARK  Name = 60846
REMARK  11 active torsions:
REMARK  status: ('A' for Active; 'I' for Inactive)
REMARK    1  A    between atoms: C_1  and  C_19
REMARK    2  A    between atoms: C_4  and  C_7
REMARK    3  A    between atoms: C_8  and  C_17
REMARK    4  A    between atoms: C_19  and  N_21
REMARK    5  A    between atoms: N_21  and  C_23
REMARK    6  A    between atoms: C_22  and  C_31
REMARK    7  A    between atoms: C_23  and  C_24
REMARK    8  A    between atoms: C_23  and  C_28
REMARK    9  A    between atoms: C_28  and  O_29
REMARK   10  A    between atoms: C_31  and  C_32
REMARK   11  A    between atoms: C_32  and  C_33
REMARK                            x       y       z     vdW  Elec       q    Type
REMARK                         _______ _______ _______ _____ _____    ______ ____
ROOT
ATOM      1  C   UNL     1     -34.592  25.891   2.585  0.00  0.00    -0.002 C 
ATOM      2  C   UNL     1     -33.202  25.854   2.692  0.00  0.00    -0.003 C 
ATOM      3  C   UNL     1     -35.258  27.116   2.561  0.00  0.00    -0.003 C 
ATOM      4  C   UNL     1     -33.143  28.268   2.750  0.00  0.00    +0.001 C 
ATOM      5  C   UNL     1     -32.477  27.043   2.775  0.00  0.00    -0.000 C 
ATOM      6  C   UNL     1     -34.534  28.304   2.642  0.00  0.00    -0.000 C 
ENDROOT
BRANCH   4   7
ATOM      7  C   UNL     1     -32.392  29.502   2.834  0.00  0.00    +0.009 C 
ATOM      8  C   UNL     1     -31.636  29.822   3.961  0.00  0.00    +0.065 C 
ATOM      9  C   UNL     1     -32.437  30.379   1.750  0.00  0.00    +0.001 C 
ATOM     10  C   UNL     1     -30.924  31.021   4.005  0.00  0.00    +0.010 C 
ATOM     11  C   UNL     1     -31.725  31.578   1.795  0.00  0.00    +0.000 C 
ATOM     12  C   UNL     1     -30.968  31.900   2.921  0.00  0.00    +0.001 C 
BRANCH   8  17
ATOM     13  N   UNL     1     -32.577  28.748   5.946  0.00  0.00    -0.110 NA
ATOM     14  N   UNL     1     -30.438  28.239   5.406  0.00  0.00    -0.087 NA
ATOM     15  N   UNL     1     -31.995  27.878   6.784  0.00  0.00    -0.140 N 
ATOM     16  N   UNL     1     -30.726  27.548   6.503  0.00  0.00    -0.022 NA
ATOM     17  C   UNL     1     -31.564  28.944   5.099  0.00  0.00    +0.073 C 
ATOM     18  H   UNL     1     -32.470  27.505   7.561  0.00  0.00    +0.197 HD
ENDBRANCH   8  17
ENDBRANCH   4   7
BRANCH   1  19
ATOM     19  C   UNL     1     -35.373  24.611   2.495  0.00  0.00    +0.121 C 
BRANCH  19  21
ATOM     20  O   UNL     1     -38.749  24.800   3.927  0.00  0.00    -0.275 OA
ATOM     21  N   UNL     1     -36.493  24.587   3.434  0.00  0.00    -0.267 N 
ATOM     22  C   UNL     1     -37.830  24.829   3.103  0.00  0.00    +0.226 C 
BRANCH  21  23
ATOM     23  C   UNL     1     -36.137  24.287   4.815  0.00  0.00    +0.175 C 
BRANCH  23  24
ATOM     24  C   UNL     1     -35.202  23.060   4.870  0.00  0.00    +0.029 C 
ATOM     25  C   UNL     1     -35.128  22.419   6.259  0.00  0.00    +0.002 C 
ATOM     26  C   UNL     1     -35.567  22.007   3.820  0.00  0.00    +0.002 C 
ENDBRANCH  23  24
BRANCH  23  28
ATOM     27  O   UNL     1     -34.442  25.616   5.940  0.00  0.00    -0.248 OA
ATOM     28  C   UNL     1     -35.589  25.528   5.517  0.00  0.00    +0.332 C 
BRANCH  28  29
ATOM     29  O   UNL     1     -36.493  26.523   5.688  0.00  0.00    -0.479 OA
ATOM     30  H   UNL     1     -37.276  26.540   5.173  0.00  0.00    +0.295 HD
ENDBRANCH  28  29
ENDBRANCH  23  28
ENDBRANCH  21  23
BRANCH  22  31
ATOM     31  C   UNL     1     -38.116  25.137   1.639  0.00  0.00    +0.085 C 
BRANCH  31  32
ATOM     32  C   UNL     1     -39.016  24.089   0.983  0.00  0.00    +0.010 C 
BRANCH  32  33
ATOM     33  C   UNL     1     -38.438  22.683   1.137  0.00  0.00    +0.001 C 
ATOM     34  C   UNL     1     -39.399  21.761   1.869  0.00  0.00    +0.000 C 
ENDBRANCH  32  33
ENDBRANCH  31  32
ENDBRANCH  22  31
ENDBRANCH  19  21
ENDBRANCH   1  19
TORSDOF 11
ENDMDL
MODEL 6
REMARK VINA RESULT:      -5.6      3.708      8.121
REMARK  Name = 60846
REMARK  11 active torsions:
REMARK  status: ('A' for Active; 'I' for Inactive)
REMARK    1  A    between atoms: C_1  and  C_19
REMARK    2  A    between atoms: C_4  and  C_7
REMARK    3  A    between atoms: C_8  and  C_17
REMARK    4  A    between atoms: C_19  and  N_21
REMARK    5  A    between atoms: N_21  and  C_23
REMARK    6  A    between atoms: C_22  and  C_31
REMARK    7  A    between atoms: C_23  and  C_24
REMARK    8  A    between atoms: C_23  and  C_28
REMARK    9  A    between atoms: C_28  and  O_29
REMARK   10  A    between atoms: C_31  and  C_32
REMARK   11  A    between atoms: C_32  and  C_33
REMARK                            x       y       z     vdW  Elec       q    Type
REMARK                         _______ _______ _______ _____ _____    ______ ____
ROOT
ATOM      1  C   UNL     1     -35.831  23.937   4.440  0.00  0.00    -0.002 C 
ATOM      2  C   UNL     1     -34.458  23.843   4.215  0.00  0.00    -0.003 C 
ATOM      3  C   UNL     1     -36.371  25.100   4.989  0.00  0.00    -0.003 C 
ATOM      4  C   UNL     1     -34.164  26.078   5.086  0.00  0.00    +0.001 C 
ATOM      5  C   UNL     1     -33.624  24.914   4.538  0.00  0.00    -0.000 C 
ATOM      6  C   UNL     1     -35.538  26.170   5.310  0.00  0.00    -0.000 C 
ENDROOT
BRANCH   4   7
ATOM      7  C   UNL     1     -33.300  27.189   5.420  0.00  0.00    +0.009 C 
ATOM      8  C   UNL     1     -33.053  28.221   4.515  0.00  0.00    +0.065 C 
ATOM      9  C   UNL     1     -32.709  27.211   6.683  0.00  0.00    +0.001 C 
ATOM     10  C   UNL     1     -32.213  29.276   4.873  0.00  0.00    +0.010 C 
ATOM     11  C   UNL     1     -31.869  28.267   7.041  0.00  0.00    +0.000 C 
ATOM     12  C   UNL     1     -31.622  29.299   6.137  0.00  0.00    +0.001 C 
BRANCH   8  17
ATOM     13  N   UNL     1     -33.104  27.624   2.144  0.00  0.00    -0.110 NA
ATOM     14  N   UNL     1     -34.812  28.882   2.934  0.00  0.00    -0.087 NA
ATOM     15  N   UNL     1     -34.021  27.943   1.219  0.00  0.00    -0.140 N 
ATOM     16  N   UNL     1     -35.051  28.688   1.643  0.00  0.00    -0.022 NA
ATOM     17  C   UNL     1     -33.643  28.234   3.202  0.00  0.00    +0.073 C 
ATOM     18  H   UNL     1     -33.942  27.649   0.283  0.00  0.00    +0.197 HD
ENDBRANCH   8  17
ENDBRANCH   4   7
BRANCH   1  19
ATOM     19  C   UNL     1     -36.730  22.784   4.093  0.00  0.00    +0.121 C 
BRANCH  19  21
ATOM     20  O   UNL     1     -38.394  23.452   0.888  0.00  0.00    -0.275 OA
ATOM     21  N   UNL     1     -37.079  22.773   2.674  0.00  0.00    -0.267 N 
ATOM     22  C   UNL     1     -38.131  23.490   2.093  0.00  0.00    +0.226 C 
BRANCH  21  23
ATOM     23  C   UNL     1     -36.237  21.927   1.836  0.00  0.00    +0.175 C 
BRANCH  23  24
ATOM     24  C   UNL     1     -34.971  22.698   1.403  0.00  0.00    +0.029 C 
ATOM     25  C   UNL     1     -34.053  21.884   0.485  0.00  0.00    +0.002 C 
ATOM     26  C   UNL     1     -35.307  24.045   0.756  0.00  0.00    +0.002 C 
ENDBRANCH  23  24
BRANCH  23  28
ATOM     27  O   UNL     1     -34.902  20.327   3.086  0.00  0.00    -0.248 OA
ATOM     28  C   UNL     1     -35.957  20.591   2.520  0.00  0.00    +0.332 C 
BRANCH  28  29
ATOM     29  O   UNL     1     -36.957  19.682   2.411  0.00  0.00    -0.479 OA
ATOM     30  H   UNL     1     -37.690  19.719   2.995  0.00  0.00    +0.295 HD
ENDBRANCH  28  29
ENDBRANCH  23  28
ENDBRANCH  21  23
BRANCH  22  31
ATOM     31  C   UNL     1     -38.962  24.346   3.039  0.00  0.00    +0.085 C 
BRANCH  31  32
ATOM     32  C   UNL     1     -39.202  25.757   2.497  0.00  0.00    +0.010 C 
BRANCH  32  33
ATOM     33  C   UNL     1     -37.892  26.419   2.073  0.00  0.00    +0.001 C 
ATOM     34  C   UNL     1     -37.982  26.982   0.664  0.00  0.00    +0.000 C 
ENDBRANCH  32  33
ENDBRANCH  31  32
ENDBRANCH  22  31
ENDBRANCH  19  21
ENDBRANCH   1  19
TORSDOF 11
ENDMDL
MODEL 7
REMARK VINA RESULT:      -5.6      2.588      4.287
REMARK  Name = 60846
REMARK  11 active torsions:
REMARK  status: ('A' for Active; 'I' for Inactive)
REMARK    1  A    between atoms: C_1  and  C_19
REMARK    2  A    between atoms: C_4  and  C_7
REMARK    3  A    between atoms: C_8  and  C_17
REMARK    4  A    between atoms: C_19  and  N_21
REMARK    5  A    between atoms: N_21  and  C_23
REMARK    6  A    between atoms: C_22  and  C_31
REMARK    7  A    between atoms: C_23  and  C_24
REMARK    8  A    between atoms: C_23  and  C_28
REMARK    9  A    between atoms: C_28  and  O_29
REMARK   10  A    between atoms: C_31  and  C_32
REMARK   11  A    between atoms: C_32  and  C_33
REMARK                            x       y       z     vdW  Elec       q    Type
REMARK                         _______ _______ _______ _____ _____    ______ ____
ROOT
ATOM      1  C   UNL     1     -35.508  22.884   2.087  0.00  0.00    -0.002 C 
ATOM      2  C   UNL     1     -35.969  21.713   2.690  0.00  0.00    -0.003 C 
ATOM      3  C   UNL     1     -34.552  22.818   1.074  0.00  0.00    -0.003 C 
ATOM      4  C   UNL     1     -34.517  20.409   1.265  0.00  0.00    +0.001 C 
ATOM      5  C   UNL     1     -35.473  20.476   2.278  0.00  0.00    -0.000 C 
ATOM      6  C   UNL     1     -34.057  21.581   0.662  0.00  0.00    -0.000 C 
ENDROOT
BRANCH   4   7
ATOM      7  C   UNL     1     -34.004  19.126   0.837  0.00  0.00    +0.009 C 
ATOM      8  C   UNL     1     -34.728  18.296  -0.017  0.00  0.00    +0.065 C 
ATOM      9  C   UNL     1     -32.750  18.727   1.301  0.00  0.00    +0.001 C 
ATOM     10  C   UNL     1     -34.200  17.066  -0.408  0.00  0.00    +0.010 C 
ATOM     11  C   UNL     1     -32.222  17.496   0.910  0.00  0.00    +0.000 C 
ATOM     12  C   UNL     1     -32.946  16.665   0.055  0.00  0.00    +0.001 C 
BRANCH   8  17
ATOM     13  N   UNL     1     -36.207  19.483  -1.562  0.00  0.00    -0.110 NA
ATOM     14  N   UNL     1     -37.183  18.225   0.048  0.00  0.00    -0.087 NA
ATOM     15  N   UNL     1     -37.547  19.497  -1.595  0.00  0.00    -0.140 N 
ATOM     16  N   UNL     1     -38.168  18.765  -0.658  0.00  0.00    -0.022 NA
ATOM     17  C   UNL     1     -36.025  18.672  -0.517  0.00  0.00    +0.073 C 
ATOM     18  H   UNL     1     -38.047  20.015  -2.266  0.00  0.00    +0.197 HD
ENDBRANCH   8  17
ENDBRANCH   4   7
BRANCH   1  19
ATOM     19  C   UNL     1     -36.042  24.217   2.528  0.00  0.00    +0.121 C 
BRANCH  19  21
ATOM     20  O   UNL     1     -33.169  25.781   4.198  0.00  0.00    -0.275 OA
ATOM     21  N   UNL     1     -34.969  25.145   2.881  0.00  0.00    -0.267 N 
ATOM     22  C   UNL     1     -34.063  24.971   3.932  0.00  0.00    +0.226 C 
BRANCH  21  23
ATOM     23  C   UNL     1     -34.879  26.334   2.043  0.00  0.00    +0.175 C 
BRANCH  23  24
ATOM     24  C   UNL     1     -35.883  26.239   0.873  0.00  0.00    +0.029 C 
ATOM     25  C   UNL     1     -36.971  27.316   0.922  0.00  0.00    +0.002 C 
ATOM     26  C   UNL     1     -35.185  26.255  -0.490  0.00  0.00    +0.002 C 
ENDBRANCH  23  24
BRANCH  23  28
ATOM     27  O   UNL     1     -34.495  28.672   2.580  0.00  0.00    -0.248 OA
ATOM     28  C   UNL     1     -35.010  27.602   2.883  0.00  0.00    +0.332 C 
BRANCH  28  29
ATOM     29  O   UNL     1     -35.707  27.445   4.036  0.00  0.00    -0.479 OA
ATOM     30  H   UNL     1     -35.270  27.526   4.862  0.00  0.00    +0.295 HD
ENDBRANCH  28  29
ENDBRANCH  23  28
ENDBRANCH  21  23
BRANCH  22  31
ATOM     31  C   UNL     1     -34.227  23.703   4.759  0.00  0.00    +0.085 C 
BRANCH  31  32
ATOM     32  C   UNL     1     -35.301  23.841   5.839  0.00  0.00    +0.010 C 
BRANCH  32  33
ATOM     33  C   UNL     1     -35.769  22.474   6.335  0.00  0.00    +0.001 C 
ATOM     34  C   UNL     1     -34.751  21.389   6.024  0.00  0.00    +0.000 C 
ENDBRANCH  32  33
ENDBRANCH  31  32
ENDBRANCH  22  31
ENDBRANCH  19  21
ENDBRANCH   1  19
TORSDOF 11
ENDMDL
MODEL 8
REMARK VINA RESULT:      -5.6      1.842      2.644
REMARK  Name = 60846
REMARK  11 active torsions:
REMARK  status: ('A' for Active; 'I' for Inactive)
REMARK    1  A    between atoms: C_1  and  C_19
REMARK    2  A    between atoms: C_4  and  C_7
REMARK    3  A    between atoms: C_8  and  C_17
REMARK    4  A    between atoms: C_19  and  N_21
REMARK    5  A    between atoms: N_21  and  C_23
REMARK    6  A    between atoms: C_22  and  C_31
REMARK    7  A    between atoms: C_23  and  C_24
REMARK    8  A    between atoms: C_23  and  C_28
REMARK    9  A    between atoms: C_28  and  O_29
REMARK   10  A    between atoms: C_31  and  C_32
REMARK   11  A    between atoms: C_32  and  C_33
REMARK                            x       y       z     vdW  Elec       q    Type
REMARK                         _______ _______ _______ _____ _____    ______ ____
ROOT
ATOM      1  C   UNL     1     -34.981  22.683   1.730  0.00  0.00    -0.002 C 
ATOM      2  C   UNL     1     -35.281  21.602   2.560  0.00  0.00    -0.003 C 
ATOM      3  C   UNL     1     -34.265  22.481   0.551  0.00  0.00    -0.003 C 
ATOM      4  C   UNL     1     -34.149  20.115   1.028  0.00  0.00    +0.001 C 
ATOM      5  C   UNL     1     -34.865  20.318   2.208  0.00  0.00    -0.000 C 
ATOM      6  C   UNL     1     -33.850  21.197   0.199  0.00  0.00    -0.000 C 
ENDROOT
BRANCH   4   7
ATOM      7  C   UNL     1     -33.719  18.783   0.663  0.00  0.00    +0.009 C 
ATOM      8  C   UNL     1     -34.527  17.934  -0.092  0.00  0.00    +0.065 C 
ATOM      9  C   UNL     1     -32.459  18.356   1.083  0.00  0.00    +0.001 C 
ATOM     10  C   UNL     1     -34.077  16.656  -0.425  0.00  0.00    +0.010 C 
ATOM     11  C   UNL     1     -32.009  17.078   0.750  0.00  0.00    +0.000 C 
ATOM     12  C   UNL     1     -32.817  16.228  -0.004  0.00  0.00    +0.001 C 
BRANCH   8  17
ATOM     13  N   UNL     1     -36.042  19.055  -1.652  0.00  0.00    -0.110 NA
ATOM     14  N   UNL     1     -36.972  18.015   0.132  0.00  0.00    -0.087 NA
ATOM     15  N   UNL     1     -37.378  19.146  -1.602  0.00  0.00    -0.140 N 
ATOM     16  N   UNL     1     -37.972  18.545  -0.561  0.00  0.00    -0.022 NA
ATOM     17  C   UNL     1     -35.833  18.337  -0.545  0.00  0.00    +0.073 C 
ATOM     18  H   UNL     1     -37.894  19.628  -2.288  0.00  0.00    +0.197 HD
ENDBRANCH   8  17
ENDBRANCH   4   7
BRANCH   1  19
ATOM     19  C   UNL     1     -35.429  24.066   2.108  0.00  0.00    +0.121 C 
BRANCH  19  21
ATOM     20  O   UNL     1     -38.858  23.656   3.357  0.00  0.00    -0.275 OA
ATOM     21  N   UNL     1     -36.602  24.042   2.978  0.00  0.00    -0.267 N 
ATOM     22  C   UNL     1     -37.891  23.662   2.589  0.00  0.00    +0.226 C 
BRANCH  21  23
ATOM     23  C   UNL     1     -36.361  24.460   4.354  0.00  0.00    +0.175 C 
BRANCH  23  24
ATOM     24  C   UNL     1     -35.149  23.702   4.937  0.00  0.00    +0.029 C 
ATOM     25  C   UNL     1     -34.063  24.631   5.487  0.00  0.00    +0.002 C 
ATOM     26  C   UNL     1     -35.562  22.682   6.002  0.00  0.00    +0.002 C 
ENDBRANCH  23  24
BRANCH  23  28
ATOM     27  O   UNL     1     -35.785  26.685   3.565  0.00  0.00    -0.248 OA
ATOM     28  C   UNL     1     -36.258  25.980   4.450  0.00  0.00    +0.332 C 
BRANCH  28  29
ATOM     29  O   UNL     1     -36.687  26.501   5.625  0.00  0.00    -0.479 OA
ATOM     30  H   UNL     1     -36.971  25.932   6.314  0.00  0.00    +0.295 HD
ENDBRANCH  28  29
ENDBRANCH  23  28
ENDBRANCH  21  23
BRANCH  22  31
ATOM     31  C   UNL     1     -38.057  23.241   1.135  0.00  0.00    +0.085 C 
BRANCH  31  32
ATOM     32  C   UNL     1     -38.472  21.776   0.990  0.00  0.00    +0.010 C 
BRANCH  32  33
ATOM     33  C   UNL     1     -39.975  21.644   0.754  0.00  0.00    +0.001 C 
ATOM     34  C   UNL     1     -40.523  22.827  -0.028  0.00  0.00    +0.000 C 
ENDBRANCH  32  33
ENDBRANCH  31  32
ENDBRANCH  22  31
ENDBRANCH  19  21
ENDBRANCH   1  19
TORSDOF 11
ENDMDL
MODEL 9
REMARK VINA RESULT:      -5.5     12.000     14.960
REMARK  Name = 60846
REMARK  11 active torsions:
REMARK  status: ('A' for Active; 'I' for Inactive)
REMARK    1  A    between atoms: C_1  and  C_19
REMARK    2  A    between atoms: C_4  and  C_7
REMARK    3  A    between atoms: C_8  and  C_17
REMARK    4  A    between atoms: C_19  and  N_21
REMARK    5  A    between atoms: N_21  and  C_23
REMARK    6  A    between atoms: C_22  and  C_31
REMARK    7  A    between atoms: C_23  and  C_24
REMARK    8  A    between atoms: C_23  and  C_28
REMARK    9  A    between atoms: C_28  and  O_29
REMARK   10  A    between atoms: C_31  and  C_32
REMARK   11  A    between atoms: C_32  and  C_33
REMARK                            x       y       z     vdW  Elec       q    Type
REMARK                         _______ _______ _______ _____ _____    ______ ____
ROOT
ATOM      1  C   UNL     1     -44.145  33.864   2.004  0.00  0.00    -0.002 C 
ATOM      2  C   UNL     1     -43.480  34.080   3.211  0.00  0.00    -0.003 C 
ATOM      3  C   UNL     1     -45.398  33.252   1.996  0.00  0.00    -0.003 C 
ATOM      4  C   UNL     1     -45.325  33.073   4.404  0.00  0.00    +0.001 C 
ATOM      5  C   UNL     1     -44.071  33.684   4.412  0.00  0.00    -0.000 C 
ATOM      6  C   UNL     1     -45.989  32.858   3.196  0.00  0.00    -0.000 C 
ENDROOT
BRANCH   4   7
ATOM      7  C   UNL     1     -45.937  32.664   5.649  0.00  0.00    +0.009 C 
ATOM      8  C   UNL     1     -45.584  31.473   6.282  0.00  0.00    +0.065 C 
ATOM      9  C   UNL     1     -46.902  33.496   6.217  0.00  0.00    +0.001 C 
ATOM     10  C   UNL     1     -46.197  31.112   7.482  0.00  0.00    +0.010 C 
ATOM     11  C   UNL     1     -47.515  33.136   7.417  0.00  0.00    +0.000 C 
ATOM     12  C   UNL     1     -47.163  31.944   8.050  0.00  0.00    +0.001 C 
BRANCH   8  17
ATOM     13  N   UNL     1     -44.849  29.709   4.755  0.00  0.00    -0.110 NA
ATOM     14  N   UNL     1     -43.302  30.573   6.165  0.00  0.00    -0.087 NA
ATOM     15  N   UNL     1     -43.630  29.164   4.629  0.00  0.00    -0.140 N 
ATOM     16  N   UNL     1     -42.682  29.646   5.445  0.00  0.00    -0.022 NA
ATOM     17  C   UNL     1     -44.593  30.586   5.729  0.00  0.00    +0.073 C 
ATOM     18  H   UNL     1     -43.443  28.452   3.977  0.00  0.00    +0.197 HD
ENDBRANCH   8  17
ENDBRANCH   4   7
BRANCH   1  19
ATOM     19  C   UNL     1     -43.511  34.290   0.710  0.00  0.00    +0.121 C 
BRANCH  19  21
ATOM     20  O   UNL     1     -40.077  33.112   0.157  0.00  0.00    -0.275 OA
ATOM     21  N   UNL     1     -42.361  33.456   0.366  0.00  0.00    -0.267 N 
ATOM     22  C   UNL     1     -41.021  33.848   0.459  0.00  0.00    +0.226 C 
BRANCH  21  23
ATOM     23  C   UNL     1     -42.687  32.119  -0.113  0.00  0.00    +0.175 C 
BRANCH  23  24
ATOM     24  C   UNL     1     -42.088  31.893  -1.518  0.00  0.00    +0.029 C 
ATOM     25  C   UNL     1     -42.367  30.495  -2.077  0.00  0.00    +0.002 C 
ATOM     26  C   UNL     1     -42.539  32.962  -2.517  0.00  0.00    +0.002 C 
ENDBRANCH  23  24
BRANCH  23  28
ATOM     27  O   UNL     1     -43.057  30.631   1.772  0.00  0.00    -0.248 OA
ATOM     28  C   UNL     1     -42.293  31.062   0.916  0.00  0.00    +0.332 C 
BRANCH  28  29
ATOM     29  O   UNL     1     -40.999  30.664   0.848  0.00  0.00    -0.479 OA
ATOM     30  H   UNL     1     -40.520  30.491   1.635  0.00  0.00    +0.295 HD
ENDBRANCH  28  29
ENDBRANCH  23  28
ENDBRANCH  21  23
BRANCH  22  31
ATOM     31  C   UNL     1     -40.768  35.261   0.966  0.00  0.00    +0.085 C 
BRANCH  31  32
ATOM     32  C   UNL     1     -40.289  35.288   2.419  0.00  0.00    +0.010 C 
BRANCH  32  33
ATOM     33  C   UNL     1     -38.781  35.512   2.503  0.00  0.00    +0.001 C 
ATOM     34  C   UNL     1     -38.240  36.153   1.235  0.00  0.00    +0.000 C 
ENDBRANCH  32  33
ENDBRANCH  31  32
ENDBRANCH  22  31
ENDBRANCH  19  21
ENDBRANCH   1  19
TORSDOF 11
ENDMDL
