MODEL 1
REMARK VINA RESULT:      -6.1      0.000      0.000
REMARK  Name = 54601241
REMARK  7 active torsions:
REMARK  status: ('A' for Active; 'I' for Inactive)
REMARK    1  A    between atoms: C_4  and  C_27
REMARK    2  A    between atoms: C_9  and  O_18
REMARK    3  A    between atoms: O_18  and  C_20
REMARK    4  A    between atoms: C_20  and  C_21
REMARK    5  A    between atoms: C_23  and  C_24
REMARK    6  A    between atoms: C_24  and  O_25
REMARK    7  A    between atoms: C_27  and  O_28
REMARK                            x       y       z     vdW  Elec       q    Type
REMARK                         _______ _______ _______ _____ _____    ______ ____
ROOT
ATOM      1  O   UNL     1     -33.253  25.634   3.488  0.00  0.00    -0.350 OA
ATOM      2  O   UNL     1     -36.055  24.233   5.440  0.00  0.00    -0.446 OA
ATOM      3  O   UNL     1     -36.208  22.155   6.409  0.00  0.00    -0.245 OA
ATOM      4  C   UNL     1     -33.706  26.803   4.171  0.00  0.00    +0.148 C 
ATOM      5  C   UNL     1     -34.135  25.394   4.590  0.00  0.00    +0.182 C 
ATOM      6  C   UNL     1     -35.472  24.788   4.237  0.00  0.00    +0.206 C 
ATOM      7  C   UNL     1     -35.413  23.635   3.222  0.00  0.00    +0.112 C 
ATOM      8  C   UNL     1     -34.568  27.753   3.383  0.00  0.00    +0.037 C 
ATOM      9  C   UNL     1     -36.622  23.549   2.246  0.00  0.00    +0.181 C 
ATOM     10  C   UNL     1     -34.476  27.660   1.850  0.00  0.00    +0.028 C 
ATOM     11  C   UNL     1     -35.399  22.471   4.159  0.00  0.00    +0.060 C 
ATOM     12  C   UNL     1     -36.511  24.450   0.991  0.00  0.00    +0.066 C 
ATOM     13  C   UNL     1     -35.925  22.878   5.473  0.00  0.00    +0.337 C 
ATOM     14  C   UNL     1     -34.970  26.351   1.309  0.00  0.00    -0.034 C 
ATOM     15  C   UNL     1     -36.243  25.912   1.279  0.00  0.00    -0.045 C 
ATOM     16  C   UNL     1     -34.948  21.235   3.930  0.00  0.00    +0.002 C 
ATOM     17  C   UNL     1     -37.444  26.763   1.586  0.00  0.00    +0.026 C 
ENDROOT
BRANCH   9  18
ATOM     18  O   UNL     1     -37.844  23.820   2.933  0.00  0.00    -0.449 OA
BRANCH  18  20
ATOM     19  O   UNL     1     -39.048  21.961   2.303  0.00  0.00    -0.245 OA
ATOM     20  C   UNL     1     -38.946  23.169   2.464  0.00  0.00    +0.337 C 
BRANCH  20  21
ATOM     21  C   UNL     1     -40.025  24.161   2.166  0.00  0.00    +0.052 C 
ATOM     22  C   UNL     1     -40.760  24.042   0.864  0.00  0.00    +0.038 C 
ATOM     23  C   UNL     1     -40.223  25.110   3.099  0.00  0.00    +0.007 C 
BRANCH  23  24
ATOM     24  C   UNL     1     -41.235  26.214   3.065  0.00  0.00    +0.163 C 
BRANCH  24  25
ATOM     25  O   UNL     1     -40.968  27.105   4.142  0.00  0.00    -0.377 OA
ATOM     26  H   UNL     1     -41.331  27.979   3.935  0.00  0.00    +0.211 HD
ENDBRANCH  24  25
ENDBRANCH  23  24
ENDBRANCH  20  21
ENDBRANCH  18  20
ENDBRANCH   9  18
BRANCH   4  27
ATOM     27  C   UNL     1     -32.620  27.442   4.971  0.00  0.00    +0.167 C 
BRANCH  27  28
ATOM     28  O   UNL     1     -32.746  28.854   4.897  0.00  0.00    -0.379 OA
ATOM     29  H   UNL     1     -32.488  29.155   4.012  0.00  0.00    +0.211 HD
ENDBRANCH  27  28
ENDBRANCH   4  27
TORSDOF 7
ENDMDL
MODEL 2
REMARK VINA RESULT:      -5.9      2.890      5.648
REMARK  Name = 54601241
REMARK  7 active torsions:
REMARK  status: ('A' for Active; 'I' for Inactive)
REMARK    1  A    between atoms: C_4  and  C_27
REMARK    2  A    between atoms: C_9  and  O_18
REMARK    3  A    between atoms: O_18  and  C_20
REMARK    4  A    between atoms: C_20  and  C_21
REMARK    5  A    between atoms: C_23  and  C_24
REMARK    6  A    between atoms: C_24  and  O_25
REMARK    7  A    between atoms: C_27  and  O_28
REMARK                            x       y       z     vdW  Elec       q    Type
REMARK                         _______ _______ _______ _____ _____    ______ ____
ROOT
ATOM      1  O   UNL     1     -35.262  26.836   2.889  0.00  0.00    -0.350 OA
ATOM      2  O   UNL     1     -33.342  24.239   1.103  0.00  0.00    -0.446 OA
ATOM      3  O   UNL     1     -33.387  23.732  -1.138  0.00  0.00    -0.245 OA
ATOM      4  C   UNL     1     -34.032  26.876   3.613  0.00  0.00    +0.148 C 
ATOM      5  C   UNL     1     -34.160  26.177   2.256  0.00  0.00    +0.182 C 
ATOM      6  C   UNL     1     -34.297  24.682   2.097  0.00  0.00    +0.206 C 
ATOM      7  C   UNL     1     -35.674  24.207   1.606  0.00  0.00    +0.112 C 
ATOM      8  C   UNL     1     -34.005  26.161   4.937  0.00  0.00    +0.037 C 
ATOM      9  C   UNL     1     -36.147  22.842   2.184  0.00  0.00    +0.181 C 
ATOM     10  C   UNL     1     -35.365  25.896   5.607  0.00  0.00    +0.028 C 
ATOM     11  C   UNL     1     -35.399  24.100   0.140  0.00  0.00    +0.060 C 
ATOM     12  C   UNL     1     -36.845  22.926   3.565  0.00  0.00    +0.066 C 
ATOM     13  C   UNL     1     -33.948  23.997  -0.092  0.00  0.00    +0.337 C 
ATOM     14  C   UNL     1     -36.236  24.959   4.823  0.00  0.00    -0.034 C 
ATOM     15  C   UNL     1     -36.048  23.639   4.636  0.00  0.00    -0.045 C 
ATOM     16  C   UNL     1     -36.276  24.135  -0.866  0.00  0.00    +0.002 C 
ATOM     17  C   UNL     1     -35.036  22.810   5.378  0.00  0.00    +0.026 C 
ENDROOT
BRANCH   9  18
ATOM     18  O   UNL     1     -35.063  21.915   2.242  0.00  0.00    -0.449 OA
BRANCH  18  20
ATOM     19  O   UNL     1     -36.320  20.002   2.485  0.00  0.00    -0.245 OA
ATOM     20  C   UNL     1     -35.380  20.612   1.996  0.00  0.00    +0.337 C 
BRANCH  20  21
ATOM     21  C   UNL     1     -34.396  20.030   1.034  0.00  0.00    +0.052 C 
ATOM     22  C   UNL     1     -34.498  20.422  -0.411  0.00  0.00    +0.038 C 
ATOM     23  C   UNL     1     -33.508  19.163   1.554  0.00  0.00    +0.007 C 
BRANCH  23  24
ATOM     24  C   UNL     1     -32.414  18.444   0.828  0.00  0.00    +0.163 C 
BRANCH  24  25
ATOM     25  O   UNL     1     -31.695  17.650   1.764  0.00  0.00    -0.377 OA
ATOM     26  H   UNL     1     -30.749  17.847   1.696  0.00  0.00    +0.211 HD
ENDBRANCH  24  25
ENDBRANCH  23  24
ENDBRANCH  20  21
ENDBRANCH  18  20
ENDBRANCH   9  18
BRANCH   4  27
ATOM     27  C   UNL     1     -33.425  28.240   3.612  0.00  0.00    +0.167 C 
BRANCH  27  28
ATOM     28  O   UNL     1     -32.861  28.507   4.888  0.00  0.00    -0.379 OA
ATOM     29  H   UNL     1     -33.361  28.030   5.568  0.00  0.00    +0.211 HD
ENDBRANCH  27  28
ENDBRANCH   4  27
TORSDOF 7
ENDMDL
MODEL 3
REMARK VINA RESULT:      -5.8      3.216      7.337
REMARK  Name = 54601241
REMARK  7 active torsions:
REMARK  status: ('A' for Active; 'I' for Inactive)
REMARK    1  A    between atoms: C_4  and  C_27
REMARK    2  A    between atoms: C_9  and  O_18
REMARK    3  A    between atoms: O_18  and  C_20
REMARK    4  A    between atoms: C_20  and  C_21
REMARK    5  A    between atoms: C_23  and  C_24
REMARK    6  A    between atoms: C_24  and  O_25
REMARK    7  A    between atoms: C_27  and  O_28
REMARK                            x       y       z     vdW  Elec       q    Type
REMARK                         _______ _______ _______ _____ _____    ______ ____
ROOT
ATOM      1  O   UNL     1     -37.853  20.189  -1.528  0.00  0.00    -0.350 OA
ATOM      2  O   UNL     1     -39.457  21.717   1.424  0.00  0.00    -0.446 OA
ATOM      3  O   UNL     1     -40.825  23.563   1.498  0.00  0.00    -0.245 OA
ATOM      4  C   UNL     1     -38.141  19.024  -0.755  0.00  0.00    +0.148 C 
ATOM      5  C   UNL     1     -38.776  20.385  -0.450  0.00  0.00    +0.182 C 
ATOM      6  C   UNL     1     -38.305  21.298   0.656  0.00  0.00    +0.206 C 
ATOM      7  C   UNL     1     -37.616  22.588   0.182  0.00  0.00    +0.112 C 
ATOM      8  C   UNL     1     -36.997  18.429   0.022  0.00  0.00    +0.037 C 
ATOM      9  C   UNL     1     -36.460  23.094   1.092  0.00  0.00    +0.181 C 
ATOM     10  C   UNL     1     -35.579  18.792  -0.453  0.00  0.00    +0.028 C 
ATOM     11  C   UNL     1     -38.778  23.527   0.223  0.00  0.00    +0.060 C 
ATOM     12  C   UNL     1     -35.081  22.443   0.814  0.00  0.00    +0.066 C 
ATOM     13  C   UNL     1     -39.826  22.989   1.107  0.00  0.00    +0.337 C 
ATOM     14  C   UNL     1     -35.263  20.252  -0.304  0.00  0.00    -0.034 C 
ATOM     15  C   UNL     1     -35.074  20.930   0.844  0.00  0.00    -0.045 C 
ATOM     16  C   UNL     1     -38.937  24.671  -0.448  0.00  0.00    +0.002 C 
ATOM     17  C   UNL     1     -34.924  20.289   2.196  0.00  0.00    +0.026 C 
ENDROOT
BRANCH   9  18
ATOM     18  O   UNL     1     -36.800  22.943   2.470  0.00  0.00    -0.449 OA
BRANCH  18  20
ATOM     19  O   UNL     1     -37.204  25.169   2.896  0.00  0.00    -0.245 OA
ATOM     20  C   UNL     1     -36.754  24.080   3.221  0.00  0.00    +0.337 C 
BRANCH  20  21
ATOM     21  C   UNL     1     -36.059  23.799   4.514  0.00  0.00    +0.052 C 
ATOM     22  C   UNL     1     -35.721  24.957   5.406  0.00  0.00    +0.038 C 
ATOM     23  C   UNL     1     -35.766  22.507   4.754  0.00  0.00    +0.007 C 
BRANCH  23  24
ATOM     24  C   UNL     1     -35.087  21.944   5.964  0.00  0.00    +0.163 C 
BRANCH  24  25
ATOM     25  O   UNL     1     -35.240  20.530   5.951  0.00  0.00    -0.377 OA
ATOM     26  H   UNL     1     -34.391  20.111   6.158  0.00  0.00    +0.211 HD
ENDBRANCH  24  25
ENDBRANCH  23  24
ENDBRANCH  20  21
ENDBRANCH  18  20
ENDBRANCH   9  18
BRANCH   4  27
ATOM     27  C   UNL     1     -38.979  18.045  -1.507  0.00  0.00    +0.167 C 
BRANCH  27  28
ATOM     28  O   UNL     1     -39.238  16.916  -0.686  0.00  0.00    -0.379 OA
ATOM     29  H   UNL     1     -38.618  16.204  -0.909  0.00  0.00    +0.211 HD
ENDBRANCH  27  28
ENDBRANCH   4  27
TORSDOF 7
ENDMDL
MODEL 4
REMARK VINA RESULT:      -5.8      2.146      6.878
REMARK  Name = 54601241
REMARK  7 active torsions:
REMARK  status: ('A' for Active; 'I' for Inactive)
REMARK    1  A    between atoms: C_4  and  C_27
REMARK    2  A    between atoms: C_9  and  O_18
REMARK    3  A    between atoms: O_18  and  C_20
REMARK    4  A    between atoms: C_20  and  C_21
REMARK    5  A    between atoms: C_23  and  C_24
REMARK    6  A    between atoms: C_24  and  O_25
REMARK    7  A    between atoms: C_27  and  O_28
REMARK                            x       y       z     vdW  Elec       q    Type
REMARK                         _______ _______ _______ _____ _____    ______ ____
ROOT
ATOM      1  O   UNL     1     -39.250  22.806  -0.869  0.00  0.00    -0.350 OA
ATOM      2  O   UNL     1     -39.668  24.342   2.461  0.00  0.00    -0.446 OA
ATOM      3  O   UNL     1     -40.100  26.543   2.963  0.00  0.00    -0.245 OA
ATOM      4  C   UNL     1     -39.907  21.747  -0.173  0.00  0.00    +0.148 C 
ATOM      5  C   UNL     1     -39.859  23.178   0.373  0.00  0.00    +0.182 C 
ATOM      6  C   UNL     1     -38.909  23.626   1.458  0.00  0.00    +0.206 C 
ATOM      7  C   UNL     1     -37.803  24.587   0.993  0.00  0.00    +0.112 C 
ATOM      8  C   UNL     1     -39.037  20.622   0.319  0.00  0.00    +0.037 C 
ATOM      9  C   UNL     1     -36.437  24.425   1.721  0.00  0.00    +0.181 C 
ATOM     10  C   UNL     1     -37.671  20.454  -0.369  0.00  0.00    +0.028 C 
ATOM     11  C   UNL     1     -38.440  25.895   1.337  0.00  0.00    +0.060 C 
ATOM     12  C   UNL     1     -35.513  23.329   1.133  0.00  0.00    +0.066 C 
ATOM     13  C   UNL     1     -39.498  25.689   2.341  0.00  0.00    +0.337 C 
ATOM     14  C   UNL     1     -36.748  21.615  -0.140  0.00  0.00    -0.034 C 
ATOM     15  C   UNL     1     -36.147  21.960   1.014  0.00  0.00    -0.045 C 
ATOM     16  C   UNL     1     -38.180  27.099   0.821  0.00  0.00    +0.002 C 
ATOM     17  C   UNL     1     -36.115  21.100   2.247  0.00  0.00    +0.026 C 
ENDROOT
BRANCH   9  18
ATOM     18  O   UNL     1     -36.633  24.200   3.117  0.00  0.00    -0.449 OA
BRANCH  18  20
ATOM     19  O   UNL     1     -36.100  26.321   3.835  0.00  0.00    -0.245 OA
ATOM     20  C   UNL     1     -36.049  25.105   3.952  0.00  0.00    +0.337 C 
BRANCH  20  21
ATOM     21  C   UNL     1     -35.324  24.385   5.043  0.00  0.00    +0.052 C 
ATOM     22  C   UNL     1     -34.234  25.113   5.773  0.00  0.00    +0.038 C 
ATOM     23  C   UNL     1     -35.701  23.111   5.257  0.00  0.00    +0.007 C 
BRANCH  23  24
ATOM     24  C   UNL     1     -35.155  22.167   6.283  0.00  0.00    +0.163 C 
BRANCH  24  25
ATOM     25  O   UNL     1     -35.357  20.835   5.825  0.00  0.00    -0.377 OA
ATOM     26  H   UNL     1     -36.113  20.444   6.288  0.00  0.00    +0.211 HD
ENDBRANCH  24  25
ENDBRANCH  23  24
ENDBRANCH  20  21
ENDBRANCH  18  20
ENDBRANCH   9  18
BRANCH   4  27
ATOM     27  C   UNL     1     -41.169  21.328  -0.851  0.00  0.00    +0.167 C 
BRANCH  27  28
ATOM     28  O   UNL     1     -41.912  20.482   0.015  0.00  0.00    -0.379 OA
ATOM     29  H   UNL     1     -41.488  20.461   0.887  0.00  0.00    +0.211 HD
ENDBRANCH  27  28
ENDBRANCH   4  27
TORSDOF 7
ENDMDL
MODEL 5
REMARK VINA RESULT:      -5.7      2.279      6.630
REMARK  Name = 54601241
REMARK  7 active torsions:
REMARK  status: ('A' for Active; 'I' for Inactive)
REMARK    1  A    between atoms: C_4  and  C_27
REMARK    2  A    between atoms: C_9  and  O_18
REMARK    3  A    between atoms: O_18  and  C_20
REMARK    4  A    between atoms: C_20  and  C_21
REMARK    5  A    between atoms: C_23  and  C_24
REMARK    6  A    between atoms: C_24  and  O_25
REMARK    7  A    between atoms: C_27  and  O_28
REMARK                            x       y       z     vdW  Elec       q    Type
REMARK                         _______ _______ _______ _____ _____    ______ ____
ROOT
ATOM      1  O   UNL     1     -38.211  22.315  -0.478  0.00  0.00    -0.350 OA
ATOM      2  O   UNL     1     -39.349  23.165   2.929  0.00  0.00    -0.446 OA
ATOM      3  O   UNL     1     -40.209  25.160   3.680  0.00  0.00    -0.245 OA
ATOM      4  C   UNL     1     -38.775  21.068  -0.071  0.00  0.00    +0.148 C 
ATOM      5  C   UNL     1     -39.044  22.372   0.686  0.00  0.00    +0.182 C 
ATOM      6  C   UNL     1     -38.347  22.751   1.971  0.00  0.00    +0.206 C 
ATOM      7  C   UNL     1     -37.361  23.924   1.850  0.00  0.00    +0.112 C 
ATOM      8  C   UNL     1     -37.809  20.007   0.383  0.00  0.00    +0.037 C 
ATOM      9  C   UNL     1     -36.106  23.830   2.764  0.00  0.00    +0.181 C 
ATOM     10  C   UNL     1     -36.350  20.157  -0.083  0.00  0.00    +0.028 C 
ATOM     11  C   UNL     1     -38.250  25.048   2.277  0.00  0.00    +0.060 C 
ATOM     12  C   UNL     1     -34.937  22.996   2.181  0.00  0.00    +0.066 C 
ATOM     13  C   UNL     1     -39.390  24.522   3.046  0.00  0.00    +0.337 C 
ATOM     14  C   UNL     1     -35.676  21.377   0.472  0.00  0.00    -0.034 C 
ATOM     15  C   UNL     1     -35.311  21.594   1.751  0.00  0.00    -0.045 C 
ATOM     16  C   UNL     1     -38.123  26.349   2.002  0.00  0.00    +0.002 C 
ATOM     17  C   UNL     1     -35.312  20.543   2.826  0.00  0.00    +0.026 C 
ENDROOT
BRANCH   9  18
ATOM     18  O   UNL     1     -36.458  23.337   4.057  0.00  0.00    -0.449 OA
BRANCH  18  20
ATOM     19  O   UNL     1     -35.004  22.628   5.694  0.00  0.00    -0.245 OA
ATOM     20  C   UNL     1     -35.526  23.516   5.036  0.00  0.00    +0.337 C 
BRANCH  20  21
ATOM     21  C   UNL     1     -35.236  24.974   5.191  0.00  0.00    +0.052 C 
ATOM     22  C   UNL     1     -36.363  25.886   5.578  0.00  0.00    +0.038 C 
ATOM     23  C   UNL     1     -33.969  25.351   4.935  0.00  0.00    +0.007 C 
BRANCH  23  24
ATOM     24  C   UNL     1     -33.403  26.734   5.021  0.00  0.00    +0.163 C 
BRANCH  24  25
ATOM     25  O   UNL     1     -33.053  26.997   6.375  0.00  0.00    -0.377 OA
ATOM     26  H   UNL     1     -33.700  27.605   6.764  0.00  0.00    +0.211 HD
ENDBRANCH  24  25
ENDBRANCH  23  24
ENDBRANCH  20  21
ENDBRANCH  18  20
ENDBRANCH   9  18
BRANCH   4  27
ATOM     27  C   UNL     1     -39.840  20.602  -1.007  0.00  0.00    +0.167 C 
BRANCH  27  28
ATOM     28  O   UNL     1     -39.933  19.186  -0.949  0.00  0.00    -0.379 OA
ATOM     29  H   UNL     1     -39.205  18.793  -1.455  0.00  0.00    +0.211 HD
ENDBRANCH  27  28
ENDBRANCH   4  27
TORSDOF 7
ENDMDL
MODEL 6
REMARK VINA RESULT:      -5.7      3.134      5.846
REMARK  Name = 54601241
REMARK  7 active torsions:
REMARK  status: ('A' for Active; 'I' for Inactive)
REMARK    1  A    between atoms: C_4  and  C_27
REMARK    2  A    between atoms: C_9  and  O_18
REMARK    3  A    between atoms: O_18  and  C_20
REMARK    4  A    between atoms: C_20  and  C_21
REMARK    5  A    between atoms: C_23  and  C_24
REMARK    6  A    between atoms: C_24  and  O_25
REMARK    7  A    between atoms: C_27  and  O_28
REMARK                            x       y       z     vdW  Elec       q    Type
REMARK                         _______ _______ _______ _____ _____    ______ ____
ROOT
ATOM      1  O   UNL     1     -35.753  23.160  -1.666  0.00  0.00    -0.350 OA
ATOM      2  O   UNL     1     -34.458  21.626   1.431  0.00  0.00    -0.446 OA
ATOM      3  O   UNL     1     -35.622  20.445   3.022  0.00  0.00    -0.245 OA
ATOM      4  C   UNL     1     -34.462  22.736  -2.105  0.00  0.00    +0.148 C 
ATOM      5  C   UNL     1     -35.091  22.229  -0.803  0.00  0.00    +0.182 C 
ATOM      6  C   UNL     1     -34.720  22.755   0.563  0.00  0.00    +0.206 C 
ATOM      7  C   UNL     1     -35.815  23.581   1.258  0.00  0.00    +0.112 C 
ATOM      8  C   UNL     1     -33.392  23.792  -2.175  0.00  0.00    +0.037 C 
ATOM      9  C   UNL     1     -35.299  24.753   2.141  0.00  0.00    +0.181 C 
ATOM     10  C   UNL     1     -33.869  25.253  -2.260  0.00  0.00    +0.028 C 
ATOM     11  C   UNL     1     -36.443  22.516   2.098  0.00  0.00    +0.060 C 
ATOM     12  C   UNL     1     -35.014  26.069   1.374  0.00  0.00    +0.066 C 
ATOM     13  C   UNL     1     -35.505  21.394   2.270  0.00  0.00    +0.337 C 
ATOM     14  C   UNL     1     -34.602  25.706  -1.031  0.00  0.00    -0.034 C 
ATOM     15  C   UNL     1     -34.081  25.926   0.191  0.00  0.00    -0.045 C 
ATOM     16  C   UNL     1     -37.677  22.491   2.609  0.00  0.00    +0.002 C 
ATOM     17  C   UNL     1     -32.609  25.972   0.493  0.00  0.00    +0.026 C 
ENDROOT
BRANCH   9  18
ATOM     18  O   UNL     1     -34.141  24.359   2.877  0.00  0.00    -0.449 OA
BRANCH  18  20
ATOM     19  O   UNL     1     -33.202  25.789   4.418  0.00  0.00    -0.245 OA
ATOM     20  C   UNL     1     -34.004  24.918   4.113  0.00  0.00    +0.337 C 
BRANCH  20  21
ATOM     21  C   UNL     1     -34.986  24.299   5.055  0.00  0.00    +0.052 C 
ATOM     22  C   UNL     1     -36.126  25.141   5.547  0.00  0.00    +0.038 C 
ATOM     23  C   UNL     1     -34.739  23.024   5.408  0.00  0.00    +0.007 C 
BRANCH  23  24
ATOM     24  C   UNL     1     -35.556  22.164   6.321  0.00  0.00    +0.163 C 
BRANCH  24  25
ATOM     25  O   UNL     1     -35.440  20.812   5.892  0.00  0.00    -0.377 OA
ATOM     26  H   UNL     1     -34.504  20.583   5.794  0.00  0.00    +0.211 HD
ENDBRANCH  24  25
ENDBRANCH  23  24
ENDBRANCH  20  21
ENDBRANCH  18  20
ENDBRANCH   9  18
BRANCH   4  27
ATOM     27  C   UNL     1     -34.541  21.829  -3.287  0.00  0.00    +0.167 C 
BRANCH  27  28
ATOM     28  O   UNL     1     -33.414  22.043  -4.124  0.00  0.00    -0.379 OA
ATOM     29  H   UNL     1     -32.832  22.704  -3.718  0.00  0.00    +0.211 HD
ENDBRANCH  27  28
ENDBRANCH   4  27
TORSDOF 7
ENDMDL
MODEL 7
REMARK VINA RESULT:      -5.7      2.342      4.664
REMARK  Name = 54601241
REMARK  7 active torsions:
REMARK  status: ('A' for Active; 'I' for Inactive)
REMARK    1  A    between atoms: C_4  and  C_27
REMARK    2  A    between atoms: C_9  and  O_18
REMARK    3  A    between atoms: O_18  and  C_20
REMARK    4  A    between atoms: C_20  and  C_21
REMARK    5  A    between atoms: C_23  and  C_24
REMARK    6  A    between atoms: C_24  and  O_25
REMARK    7  A    between atoms: C_27  and  O_28
REMARK                            x       y       z     vdW  Elec       q    Type
REMARK                         _______ _______ _______ _____ _____    ______ ____
ROOT
ATOM      1  O   UNL     1     -34.782  27.865   3.954  0.00  0.00    -0.350 OA
ATOM      2  O   UNL     1     -34.708  26.159   0.681  0.00  0.00    -0.446 OA
ATOM      3  O   UNL     1     -35.413  26.963  -1.353  0.00  0.00    -0.245 OA
ATOM      4  C   UNL     1     -33.569  27.121   4.074  0.00  0.00    +0.148 C 
ATOM      5  C   UNL     1     -34.269  27.331   2.728  0.00  0.00    +0.182 C 
ATOM      6  C   UNL     1     -35.128  26.284   2.061  0.00  0.00    +0.206 C 
ATOM      7  C   UNL     1     -36.630  26.609   2.020  0.00  0.00    +0.112 C 
ATOM      8  C   UNL     1     -33.635  25.848   4.874  0.00  0.00    +0.037 C 
ATOM      9  C   UNL     1     -37.577  25.380   2.149  0.00  0.00    +0.181 C 
ATOM     10  C   UNL     1     -34.801  25.718   5.869  0.00  0.00    +0.028 C 
ATOM     11  C   UNL     1     -36.723  27.215   0.657  0.00  0.00    +0.060 C 
ATOM     12  C   UNL     1     -37.873  24.937   3.603  0.00  0.00    +0.066 C 
ATOM     13  C   UNL     1     -35.571  26.795  -0.158  0.00  0.00    +0.337 C 
ATOM     14  C   UNL     1     -36.144  25.674   5.201  0.00  0.00    -0.034 C 
ATOM     15  C   UNL     1     -36.646  24.675   4.450  0.00  0.00    -0.045 C 
ATOM     16  C   UNL     1     -37.651  28.055   0.191  0.00  0.00    +0.002 C 
ATOM     17  C   UNL     1     -36.031  23.309   4.330  0.00  0.00    +0.026 C 
ENDROOT
BRANCH   9  18
ATOM     18  O   UNL     1     -37.075  24.276   1.395  0.00  0.00    -0.449 OA
BRANCH  18  20
ATOM     19  O   UNL     1     -38.674  24.038  -0.244  0.00  0.00    -0.245 OA
ATOM     20  C   UNL     1     -37.998  23.585   0.668  0.00  0.00    +0.337 C 
BRANCH  20  21
ATOM     21  C   UNL     1     -38.068  22.174   1.160  0.00  0.00    +0.052 C 
ATOM     22  C   UNL     1     -39.333  21.715   1.822  0.00  0.00    +0.038 C 
ATOM     23  C   UNL     1     -36.955  21.436   0.987  0.00  0.00    +0.007 C 
BRANCH  23  24
ATOM     24  C   UNL     1     -36.752  20.004   1.373  0.00  0.00    +0.163 C 
BRANCH  24  25
ATOM     25  O   UNL     1     -36.560  19.938   2.781  0.00  0.00    -0.377 OA
ATOM     26  H   UNL     1     -36.718  20.811   3.170  0.00  0.00    +0.211 HD
ENDBRANCH  24  25
ENDBRANCH  23  24
ENDBRANCH  20  21
ENDBRANCH  18  20
ENDBRANCH   9  18
BRANCH   4  27
ATOM     27  C   UNL     1     -32.399  28.000   4.368  0.00  0.00    +0.167 C 
BRANCH  27  28
ATOM     28  O   UNL     1     -32.521  28.526   5.681  0.00  0.00    -0.379 OA
ATOM     29  H   UNL     1     -33.379  28.269   6.054  0.00  0.00    +0.211 HD
ENDBRANCH  27  28
ENDBRANCH   4  27
TORSDOF 7
ENDMDL
MODEL 8
REMARK VINA RESULT:      -5.7      2.267      4.120
REMARK  Name = 54601241
REMARK  7 active torsions:
REMARK  status: ('A' for Active; 'I' for Inactive)
REMARK    1  A    between atoms: C_4  and  C_27
REMARK    2  A    between atoms: C_9  and  O_18
REMARK    3  A    between atoms: O_18  and  C_20
REMARK    4  A    between atoms: C_20  and  C_21
REMARK    5  A    between atoms: C_23  and  C_24
REMARK    6  A    between atoms: C_24  and  O_25
REMARK    7  A    between atoms: C_27  and  O_28
REMARK                            x       y       z     vdW  Elec       q    Type
REMARK                         _______ _______ _______ _____ _____    ______ ____
ROOT
ATOM      1  O   UNL     1     -35.218  22.558   3.789  0.00  0.00    -0.350 OA
ATOM      2  O   UNL     1     -38.685  23.745   3.341  0.00  0.00    -0.446 OA
ATOM      3  O   UNL     1     -40.346  22.814   2.055  0.00  0.00    -0.245 OA
ATOM      4  C   UNL     1     -35.491  23.066   5.095  0.00  0.00    +0.148 C 
ATOM      5  C   UNL     1     -36.600  22.808   4.069  0.00  0.00    +0.182 C 
ATOM      6  C   UNL     1     -37.248  23.896   3.248  0.00  0.00    +0.206 C 
ATOM      7  C   UNL     1     -36.912  23.861   1.748  0.00  0.00    +0.112 C 
ATOM      8  C   UNL     1     -34.937  24.427   5.419  0.00  0.00    +0.037 C 
ATOM      9  C   UNL     1     -36.810  25.254   1.061  0.00  0.00    +0.181 C 
ATOM     10  C   UNL     1     -33.758  24.915   4.559  0.00  0.00    +0.028 C 
ATOM     11  C   UNL     1     -38.094  23.100   1.240  0.00  0.00    +0.060 C 
ATOM     12  C   UNL     1     -35.429  25.945   1.193  0.00  0.00    +0.066 C 
ATOM     13  C   UNL     1     -39.195  23.174   2.215  0.00  0.00    +0.337 C 
ATOM     14  C   UNL     1     -34.126  25.121   3.118  0.00  0.00    -0.034 C 
ATOM     15  C   UNL     1     -34.921  26.083   2.612  0.00  0.00    -0.045 C 
ATOM     16  C   UNL     1     -38.196  22.396   0.110  0.00  0.00    +0.002 C 
ATOM     17  C   UNL     1     -35.411  27.276   3.384  0.00  0.00    +0.026 C 
ENDROOT
BRANCH   9  18
ATOM     18  O   UNL     1     -37.838  26.126   1.532  0.00  0.00    -0.449 OA
BRANCH  18  20
ATOM     19  O   UNL     1     -38.067  28.143   0.447  0.00  0.00    -0.245 OA
ATOM     20  C   UNL     1     -38.372  26.970   0.605  0.00  0.00    +0.337 C 
BRANCH  20  21
ATOM     21  C   UNL     1     -39.402  26.243  -0.199  0.00  0.00    +0.052 C 
ATOM     22  C   UNL     1     -39.090  25.923  -1.631  0.00  0.00    +0.038 C 
ATOM     23  C   UNL     1     -40.554  25.963   0.439  0.00  0.00    +0.007 C 
BRANCH  23  24
ATOM     24  C   UNL     1     -41.742  25.242  -0.117  0.00  0.00    +0.163 C 
BRANCH  24  25
ATOM     25  O   UNL     1     -42.315  24.449   0.917  0.00  0.00    -0.377 OA
ATOM     26  H   UNL     1     -42.807  25.019   1.526  0.00  0.00    +0.211 HD
ENDBRANCH  24  25
ENDBRANCH  23  24
ENDBRANCH  20  21
ENDBRANCH  18  20
ENDBRANCH   9  18
BRANCH   4  27
ATOM     27  C   UNL     1     -35.298  22.030   6.151  0.00  0.00    +0.167 C 
BRANCH  27  28
ATOM     28  O   UNL     1     -34.891  20.810   5.548  0.00  0.00    -0.379 OA
ATOM     29  H   UNL     1     -35.533  20.558   4.866  0.00  0.00    +0.211 HD
ENDBRANCH  27  28
ENDBRANCH   4  27
TORSDOF 7
ENDMDL
MODEL 9
REMARK VINA RESULT:      -5.7      3.421      5.128
REMARK  Name = 54601241
REMARK  7 active torsions:
REMARK  status: ('A' for Active; 'I' for Inactive)
REMARK    1  A    between atoms: C_4  and  C_27
REMARK    2  A    between atoms: C_9  and  O_18
REMARK    3  A    between atoms: O_18  and  C_20
REMARK    4  A    between atoms: C_20  and  C_21
REMARK    5  A    between atoms: C_23  and  C_24
REMARK    6  A    between atoms: C_24  and  O_25
REMARK    7  A    between atoms: C_27  and  O_28
REMARK                            x       y       z     vdW  Elec       q    Type
REMARK                         _______ _______ _______ _____ _____    ______ ____
ROOT
ATOM      1  O   UNL     1     -35.689  24.874   2.661  0.00  0.00    -0.350 OA
ATOM      2  O   UNL     1     -35.936  21.210   3.028  0.00  0.00    -0.446 OA
ATOM      3  O   UNL     1     -34.386  19.618   2.440  0.00  0.00    -0.245 OA
ATOM      4  C   UNL     1     -36.413  24.783   3.888  0.00  0.00    +0.148 C 
ATOM      5  C   UNL     1     -35.683  23.582   3.278  0.00  0.00    +0.182 C 
ATOM      6  C   UNL     1     -36.378  22.486   2.507  0.00  0.00    +0.206 C 
ATOM      7  C   UNL     1     -36.070  22.460   1.001  0.00  0.00    +0.112 C 
ATOM      8  C   UNL     1     -37.901  24.999   3.812  0.00  0.00    +0.037 C 
ATOM      9  C   UNL     1     -37.251  22.011   0.092  0.00  0.00    +0.181 C 
ATOM     10  C   UNL     1     -38.425  25.763   2.583  0.00  0.00    +0.028 C 
ATOM     11  C   UNL     1     -34.968  21.450   0.983  0.00  0.00    +0.060 C 
ATOM     12  C   UNL     1     -38.243  23.138  -0.290  0.00  0.00    +0.066 C 
ATOM     13  C   UNL     1     -35.020  20.629   2.204  0.00  0.00    +0.337 C 
ATOM     14  C   UNL     1     -38.202  25.029   1.294  0.00  0.00    -0.034 C 
ATOM     15  C   UNL     1     -38.818  23.904   0.882  0.00  0.00    -0.045 C 
ATOM     16  C   UNL     1     -34.015  21.287   0.061  0.00  0.00    +0.002 C 
ATOM     17  C   UNL     1     -40.018  23.296   1.553  0.00  0.00    +0.026 C 
ENDROOT
BRANCH   9  18
ATOM     18  O   UNL     1     -37.957  20.921   0.685  0.00  0.00    -0.449 OA
BRANCH  18  20
ATOM     19  O   UNL     1     -39.753  19.941  -0.372  0.00  0.00    -0.245 OA
ATOM     20  C   UNL     1     -38.550  20.054  -0.184  0.00  0.00    +0.337 C 
BRANCH  20  21
ATOM     21  C   UNL     1     -37.501  19.246  -0.879  0.00  0.00    +0.052 C 
ATOM     22  C   UNL     1     -37.350  19.403  -2.363  0.00  0.00    +0.038 C 
ATOM     23  C   UNL     1     -36.791  18.410  -0.099  0.00  0.00    +0.007 C 
BRANCH  23  24
ATOM     24  C   UNL     1     -35.682  17.498  -0.525  0.00  0.00    +0.163 C 
BRANCH  24  25
ATOM     25  O   UNL     1     -34.692  17.483   0.497  0.00  0.00    -0.377 OA
ATOM     26  H   UNL     1     -33.949  18.047   0.235  0.00  0.00    +0.211 HD
ENDBRANCH  24  25
ENDBRANCH  23  24
ENDBRANCH  20  21
ENDBRANCH  18  20
ENDBRANCH   9  18
BRANCH   4  27
ATOM     27  C   UNL     1     -35.722  25.495   5.003  0.00  0.00    +0.167 C 
BRANCH  27  28
ATOM     28  O   UNL     1     -36.494  26.620   5.396  0.00  0.00    -0.379 OA
ATOM     29  H   UNL     1     -37.381  26.327   5.658  0.00  0.00    +0.211 HD
ENDBRANCH  27  28
ENDBRANCH   4  27
TORSDOF 7
ENDMDL
