MODEL 1
REMARK VINA RESULT:      -6.3      0.000      0.000
REMARK  Name = 57358388
REMARK  7 active torsions:
REMARK  status: ('A' for Active; 'I' for Inactive)
REMARK    1  A    between atoms: C_1  and  C_15
REMARK    2  A    between atoms: C_2  and  S_7
REMARK    3  A    between atoms: S_7  and  S_8
REMARK    4  A    between atoms: S_8  and  C_10
REMARK    5  A    between atoms: C_15  and  C_18
REMARK    6  A    between atoms: C_18  and  C_19
REMARK    7  A    between atoms: C_18  and  N_20
REMARK                            x       y       z     vdW  Elec       q    Type
REMARK                         _______ _______ _______ _____ _____    ______ ____
ROOT
ATOM      1  C   UNL     1     -36.101  22.904   3.755  0.00  0.00    -0.014 C 
ATOM      2  C   UNL     1     -35.836  23.791   4.799  0.00  0.00    +0.032 C 
ATOM      3  C   UNL     1     -35.746  21.560   3.876  0.00  0.00    -0.004 C 
ATOM      4  C   UNL     1     -35.218  23.335   5.962  0.00  0.00    +0.007 C 
ATOM      5  C   UNL     1     -35.127  21.104   5.040  0.00  0.00    -0.000 C 
ATOM      6  C   UNL     1     -34.863  21.990   6.083  0.00  0.00    +0.001 C 
ENDROOT
BRANCH   2   7
ATOM      7  S   UNL     1     -36.271  25.523   4.693  0.00  0.00    -0.050 S 
BRANCH   7   8
ATOM      8  S   UNL     1     -34.757  26.256   3.509  0.00  0.00    -0.031 S 
BRANCH   8  10
ATOM      9  N   UNL     1     -32.937  28.050   4.307  0.00  0.00    -0.237 NA
ATOM     10  C   UNL     1     -33.677  26.998   4.721  0.00  0.00    +0.117 C 
ATOM     11  C   UNL     1     -33.643  26.481   6.006  0.00  0.00    +0.026 C 
ATOM     12  C   UNL     1     -32.791  27.083   6.926  0.00  0.00    +0.004 C 
ATOM     13  C   UNL     1     -32.012  28.168   6.538  0.00  0.00    +0.021 C 
ATOM     14  C   UNL     1     -32.121  28.608   5.229  0.00  0.00    +0.099 C 
ENDBRANCH   8  10
ENDBRANCH   7   8
ENDBRANCH   2   7
BRANCH   1  15
ATOM     15  C   UNL     1     -36.760  23.345   2.488  0.00  0.00    +0.058 C 
BRANCH  15  16
ATOM     16  C   UNL     1     -38.239  23.032   2.448  0.00  0.00    +0.200 C 
BRANCH  16  19
ATOM     17  O   UNL     1     -40.071  21.554   2.182  0.00  0.00    -0.244 OA
ATOM     18  O   UNL     1     -38.065  21.305   0.847  0.00  0.00    -0.244 OA
ATOM     19  C   UNL     1     -38.787  21.973   1.837  0.00  0.00    +0.382 C 
ENDBRANCH  16  19
BRANCH  16  20
ATOM     20  N   UNL     1     -39.128  23.988   3.118  0.00  0.00    -0.102 NA
ATOM     21  N   UNL     1     -39.778  24.687   3.607  0.00  0.00    -0.020 NA
ENDBRANCH  16  20
ENDBRANCH  15  16
ENDBRANCH   1  15
TORSDOF 7
ENDMDL
MODEL 2
REMARK VINA RESULT:      -6.1      3.302      6.436
REMARK  Name = 57358388
REMARK  7 active torsions:
REMARK  status: ('A' for Active; 'I' for Inactive)
REMARK    1  A    between atoms: C_1  and  C_15
REMARK    2  A    between atoms: C_2  and  S_7
REMARK    3  A    between atoms: S_7  and  S_8
REMARK    4  A    between atoms: S_8  and  C_10
REMARK    5  A    between atoms: C_15  and  C_18
REMARK    6  A    between atoms: C_18  and  C_19
REMARK    7  A    between atoms: C_18  and  N_20
REMARK                            x       y       z     vdW  Elec       q    Type
REMARK                         _______ _______ _______ _____ _____    ______ ____
ROOT
ATOM      1  C   UNL     1     -35.853  24.066   4.912  0.00  0.00    -0.014 C 
ATOM      2  C   UNL     1     -36.153  23.285   3.796  0.00  0.00    +0.032 C 
ATOM      3  C   UNL     1     -35.239  23.487   6.024  0.00  0.00    -0.004 C 
ATOM      4  C   UNL     1     -35.839  21.926   3.791  0.00  0.00    +0.007 C 
ATOM      5  C   UNL     1     -34.926  22.128   6.018  0.00  0.00    -0.000 C 
ATOM      6  C   UNL     1     -35.225  21.347   4.902  0.00  0.00    +0.001 C 
ENDROOT
BRANCH   2   7
ATOM      7  S   UNL     1     -36.938  23.980   2.347  0.00  0.00    -0.050 S 
BRANCH   7   8
ATOM      8  S   UNL     1     -38.645  22.839   2.217  0.00  0.00    -0.031 S 
BRANCH   8  10
ATOM      9  N   UNL     1     -40.891  23.961   1.288  0.00  0.00    -0.237 NA
ATOM     10  C   UNL     1     -39.917  24.090   2.216  0.00  0.00    +0.117 C 
ATOM     11  C   UNL     1     -39.859  25.117   3.144  0.00  0.00    +0.026 C 
ATOM     12  C   UNL     1     -40.868  26.075   3.117  0.00  0.00    +0.004 C 
ATOM     13  C   UNL     1     -41.887  25.977   2.176  0.00  0.00    +0.021 C 
ATOM     14  C   UNL     1     -41.853  24.910   1.292  0.00  0.00    +0.099 C 
ENDBRANCH   8  10
ENDBRANCH   7   8
ENDBRANCH   2   7
BRANCH   1  15
ATOM     15  C   UNL     1     -36.169  25.526   4.967  0.00  0.00    +0.058 C 
BRANCH  15  16
ATOM     16  C   UNL     1     -34.980  26.405   4.649  0.00  0.00    +0.200 C 
BRANCH  16  19
ATOM     17  O   UNL     1     -34.978  28.373   3.332  0.00  0.00    -0.244 OA
ATOM     18  O   UNL     1     -34.292  26.246   2.396  0.00  0.00    -0.244 OA
ATOM     19  C   UNL     1     -34.757  27.003   3.471  0.00  0.00    +0.382 C 
ENDBRANCH  16  19
BRANCH  16  20
ATOM     20  N   UNL     1     -33.996  26.584   5.721  0.00  0.00    -0.102 NA
ATOM     21  N   UNL     1     -33.276  26.716   6.506  0.00  0.00    -0.020 NA
ENDBRANCH  16  20
ENDBRANCH  15  16
ENDBRANCH   1  15
TORSDOF 7
ENDMDL
MODEL 3
REMARK VINA RESULT:      -6.0      3.867      5.790
REMARK  Name = 57358388
REMARK  7 active torsions:
REMARK  status: ('A' for Active; 'I' for Inactive)
REMARK    1  A    between atoms: C_1  and  C_15
REMARK    2  A    between atoms: C_2  and  S_7
REMARK    3  A    between atoms: S_7  and  S_8
REMARK    4  A    between atoms: S_8  and  C_10
REMARK    5  A    between atoms: C_15  and  C_18
REMARK    6  A    between atoms: C_18  and  C_19
REMARK    7  A    between atoms: C_18  and  N_20
REMARK                            x       y       z     vdW  Elec       q    Type
REMARK                         _______ _______ _______ _____ _____    ______ ____
ROOT
ATOM      1  C   UNL     1     -36.285  23.202   3.559  0.00  0.00    -0.014 C 
ATOM      2  C   UNL     1     -35.829  21.885   3.488  0.00  0.00    +0.032 C 
ATOM      3  C   UNL     1     -36.082  23.948   4.720  0.00  0.00    -0.004 C 
ATOM      4  C   UNL     1     -35.171  21.316   4.577  0.00  0.00    +0.007 C 
ATOM      5  C   UNL     1     -35.424  23.378   5.809  0.00  0.00    -0.000 C 
ATOM      6  C   UNL     1     -34.968  22.062   5.738  0.00  0.00    +0.001 C 
ENDROOT
BRANCH   2   7
ATOM      7  S   UNL     1     -36.065  20.888   2.022  0.00  0.00    -0.050 S 
BRANCH   7   8
ATOM      8  S   UNL     1     -34.625  21.652   0.768  0.00  0.00    -0.031 S 
BRANCH   8  10
ATOM      9  N   UNL     1     -32.261  20.585   0.103  0.00  0.00    -0.237 NA
ATOM     10  C   UNL     1     -33.408  20.347   0.778  0.00  0.00    +0.117 C 
ATOM     11  C   UNL     1     -33.678  19.171   1.460  0.00  0.00    +0.026 C 
ATOM     12  C   UNL     1     -32.707  18.175   1.449  0.00  0.00    +0.004 C 
ATOM     13  C   UNL     1     -31.514  18.383   0.764  0.00  0.00    +0.021 C 
ATOM     14  C   UNL     1     -31.342  19.594   0.114  0.00  0.00    +0.099 C 
ENDBRANCH   8  10
ENDBRANCH   7   8
ENDBRANCH   2   7
BRANCH   1  15
ATOM     15  C   UNL     1     -36.996  23.857   2.419  0.00  0.00    +0.058 C 
BRANCH  15  16
ATOM     16  C   UNL     1     -38.490  23.960   2.630  0.00  0.00    +0.200 C 
BRANCH  16  19
ATOM     17  O   UNL     1     -40.208  24.871   3.982  0.00  0.00    -0.244 OA
ATOM     18  O   UNL     1     -38.692  26.310   2.757  0.00  0.00    -0.244 OA
ATOM     19  C   UNL     1     -39.128  25.033   3.116  0.00  0.00    +0.382 C 
ENDBRANCH  16  19
BRANCH  16  20
ATOM     20  N   UNL     1     -39.281  22.773   2.289  0.00  0.00    -0.102 NA
ATOM     21  N   UNL     1     -39.860  21.904   2.040  0.00  0.00    -0.020 NA
ENDBRANCH  16  20
ENDBRANCH  15  16
ENDBRANCH   1  15
TORSDOF 7
ENDMDL
MODEL 4
REMARK VINA RESULT:      -6.0      4.184      6.637
REMARK  Name = 57358388
REMARK  7 active torsions:
REMARK  status: ('A' for Active; 'I' for Inactive)
REMARK    1  A    between atoms: C_1  and  C_15
REMARK    2  A    between atoms: C_2  and  S_7
REMARK    3  A    between atoms: S_7  and  S_8
REMARK    4  A    between atoms: S_8  and  C_10
REMARK    5  A    between atoms: C_15  and  C_18
REMARK    6  A    between atoms: C_18  and  C_19
REMARK    7  A    between atoms: C_18  and  N_20
REMARK                            x       y       z     vdW  Elec       q    Type
REMARK                         _______ _______ _______ _____ _____    ______ ____
ROOT
ATOM      1  C   UNL     1     -35.205  23.848   4.259  0.00  0.00    -0.014 C 
ATOM      2  C   UNL     1     -35.223  22.647   3.550  0.00  0.00    +0.032 C 
ATOM      3  C   UNL     1     -35.219  23.835   5.654  0.00  0.00    -0.004 C 
ATOM      4  C   UNL     1     -35.255  21.433   4.236  0.00  0.00    +0.007 C 
ATOM      5  C   UNL     1     -35.252  22.620   6.339  0.00  0.00    -0.000 C 
ATOM      6  C   UNL     1     -35.270  21.419   5.631  0.00  0.00    +0.001 C 
ENDROOT
BRANCH   2   7
ATOM      7  S   UNL     1     -35.205  22.611   1.762  0.00  0.00    -0.050 S 
BRANCH   7   8
ATOM      8  S   UNL     1     -35.523  20.614   1.387  0.00  0.00    -0.031 S 
BRANCH   8  10
ATOM      9  N   UNL     1     -33.142  20.878   0.192  0.00  0.00    -0.237 NA
ATOM     10  C   UNL     1     -33.879  20.058   0.973  0.00  0.00    +0.117 C 
ATOM     11  C   UNL     1     -33.432  18.838   1.457  0.00  0.00    +0.026 C 
ATOM     12  C   UNL     1     -32.145  18.436   1.117  0.00  0.00    +0.004 C 
ATOM     13  C   UNL     1     -31.357  19.253   0.314  0.00  0.00    +0.021 C 
ATOM     14  C   UNL     1     -31.897  20.453  -0.118  0.00  0.00    +0.099 C 
ENDBRANCH   8  10
ENDBRANCH   7   8
ENDBRANCH   2   7
BRANCH   1  15
ATOM     15  C   UNL     1     -35.170  25.175   3.571  0.00  0.00    +0.058 C 
BRANCH  15  16
ATOM     16  C   UNL     1     -33.792  25.796   3.545  0.00  0.00    +0.200 C 
BRANCH  16  19
ATOM     17  O   UNL     1     -31.568  25.798   2.730  0.00  0.00    -0.244 OA
ATOM     18  O   UNL     1     -33.450  25.635   1.214  0.00  0.00    -0.244 OA
ATOM     19  C   UNL     1     -32.943  25.748   2.509  0.00  0.00    +0.382 C 
ENDBRANCH  16  19
BRANCH  16  20
ATOM     20  N   UNL     1     -33.361  26.481   4.768  0.00  0.00    -0.102 NA
ATOM     21  N   UNL     1     -33.047  26.982   5.664  0.00  0.00    -0.020 NA
ENDBRANCH  16  20
ENDBRANCH  15  16
ENDBRANCH   1  15
TORSDOF 7
ENDMDL
MODEL 5
REMARK VINA RESULT:      -6.0      4.510      6.818
REMARK  Name = 57358388
REMARK  7 active torsions:
REMARK  status: ('A' for Active; 'I' for Inactive)
REMARK    1  A    between atoms: C_1  and  C_15
REMARK    2  A    between atoms: C_2  and  S_7
REMARK    3  A    between atoms: S_7  and  S_8
REMARK    4  A    between atoms: S_8  and  C_10
REMARK    5  A    between atoms: C_15  and  C_18
REMARK    6  A    between atoms: C_18  and  C_19
REMARK    7  A    between atoms: C_18  and  N_20
REMARK                            x       y       z     vdW  Elec       q    Type
REMARK                         _______ _______ _______ _____ _____    ______ ____
ROOT
ATOM      1  C   UNL     1     -36.891  23.338   2.905  0.00  0.00    -0.014 C 
ATOM      2  C   UNL     1     -37.214  22.055   2.461  0.00  0.00    +0.032 C 
ATOM      3  C   UNL     1     -37.877  24.324   2.961  0.00  0.00    -0.004 C 
ATOM      4  C   UNL     1     -38.520  21.758   2.075  0.00  0.00    +0.007 C 
ATOM      5  C   UNL     1     -39.183  24.027   2.574  0.00  0.00    -0.000 C 
ATOM      6  C   UNL     1     -39.506  22.745   2.131  0.00  0.00    +0.001 C 
ENDROOT
BRANCH   2   7
ATOM      7  S   UNL     1     -35.987  20.756   2.372  0.00  0.00    -0.050 S 
BRANCH   7   8
ATOM      8  S   UNL     1     -35.017  21.226   0.620  0.00  0.00    -0.031 S 
BRANCH   8  10
ATOM      9  N   UNL     1     -33.758  18.985   1.370  0.00  0.00    -0.237 NA
ATOM     10  C   UNL     1     -33.601  20.142   0.689  0.00  0.00    +0.117 C 
ATOM     11  C   UNL     1     -32.426  20.518   0.057  0.00  0.00    +0.026 C 
ATOM     12  C   UNL     1     -31.343  19.649   0.130  0.00  0.00    +0.004 C 
ATOM     13  C   UNL     1     -31.466  18.449   0.822  0.00  0.00    +0.021 C 
ATOM     14  C   UNL     1     -32.684  18.167   1.419  0.00  0.00    +0.099 C 
ENDBRANCH   8  10
ENDBRANCH   7   8
ENDBRANCH   2   7
BRANCH   1  15
ATOM     15  C   UNL     1     -35.506  23.705   3.330  0.00  0.00    +0.058 C 
BRANCH  15  16
ATOM     16  C   UNL     1     -35.402  24.029   4.803  0.00  0.00    +0.200 C 
BRANCH  16  19
ATOM     17  O   UNL     1     -36.031  26.058   5.852  0.00  0.00    -0.244 OA
ATOM     18  O   UNL     1     -33.716  25.608   5.294  0.00  0.00    -0.244 OA
ATOM     19  C   UNL     1     -35.057  25.221   5.308  0.00  0.00    +0.382 C 
ENDBRANCH  16  19
BRANCH  16  20
ATOM     20  N   UNL     1     -35.684  22.932   5.735  0.00  0.00    -0.102 NA
ATOM     21  N   UNL     1     -35.891  22.130   6.417  0.00  0.00    -0.020 NA
ENDBRANCH  16  20
ENDBRANCH  15  16
ENDBRANCH   1  15
TORSDOF 7
ENDMDL
MODEL 6
REMARK VINA RESULT:      -6.0      4.379      6.540
REMARK  Name = 57358388
REMARK  7 active torsions:
REMARK  status: ('A' for Active; 'I' for Inactive)
REMARK    1  A    between atoms: C_1  and  C_15
REMARK    2  A    between atoms: C_2  and  S_7
REMARK    3  A    between atoms: S_7  and  S_8
REMARK    4  A    between atoms: S_8  and  C_10
REMARK    5  A    between atoms: C_15  and  C_18
REMARK    6  A    between atoms: C_18  and  C_19
REMARK    7  A    between atoms: C_18  and  N_20
REMARK                            x       y       z     vdW  Elec       q    Type
REMARK                         _______ _______ _______ _____ _____    ______ ____
ROOT
ATOM      1  C   UNL     1     -35.703  23.692   4.239  0.00  0.00    -0.014 C 
ATOM      2  C   UNL     1     -35.558  22.463   3.594  0.00  0.00    +0.032 C 
ATOM      3  C   UNL     1     -35.563  23.773   5.625  0.00  0.00    -0.004 C 
ATOM      4  C   UNL     1     -35.273  21.317   4.334  0.00  0.00    +0.007 C 
ATOM      5  C   UNL     1     -35.278  22.625   6.364  0.00  0.00    -0.000 C 
ATOM      6  C   UNL     1     -35.132  21.397   5.720  0.00  0.00    +0.001 C 
ENDROOT
BRANCH   2   7
ATOM      7  S   UNL     1     -35.728  22.308   1.820  0.00  0.00    -0.050 S 
BRANCH   7   8
ATOM      8  S   UNL     1     -35.757  20.265   1.586  0.00  0.00    -0.031 S 
BRANCH   8  10
ATOM      9  N   UNL     1     -33.457  20.880   0.363  0.00  0.00    -0.237 NA
ATOM     10  C   UNL     1     -34.071  19.932   1.104  0.00  0.00    +0.117 C 
ATOM     11  C   UNL     1     -33.473  18.747   1.500  0.00  0.00    +0.026 C 
ATOM     12  C   UNL     1     -32.157  18.520   1.108  0.00  0.00    +0.004 C 
ATOM     13  C   UNL     1     -31.492  19.472   0.344  0.00  0.00    +0.021 C 
ATOM     14  C   UNL     1     -32.180  20.625   0.000  0.00  0.00    +0.099 C 
ENDBRANCH   8  10
ENDBRANCH   7   8
ENDBRANCH   2   7
BRANCH   1  15
ATOM     15  C   UNL     1     -36.009  24.949   3.490  0.00  0.00    +0.058 C 
BRANCH  15  16
ATOM     16  C   UNL     1     -34.804  25.845   3.313  0.00  0.00    +0.200 C 
BRANCH  16  19
ATOM     17  O   UNL     1     -34.810  28.208   3.463  0.00  0.00    -0.244 OA
ATOM     18  O   UNL     1     -34.061  26.844   5.319  0.00  0.00    -0.244 OA
ATOM     19  C   UNL     1     -34.558  26.956   4.020  0.00  0.00    +0.382 C 
ENDBRANCH  16  19
BRANCH  16  20
ATOM     20  N   UNL     1     -33.853  25.460   2.264  0.00  0.00    -0.102 NA
ATOM     21  N   UNL     1     -33.158  25.178   1.497  0.00  0.00    -0.020 NA
ENDBRANCH  16  20
ENDBRANCH  15  16
ENDBRANCH   1  15
TORSDOF 7
ENDMDL
MODEL 7
REMARK VINA RESULT:      -5.9      5.877      7.260
REMARK  Name = 57358388
REMARK  7 active torsions:
REMARK  status: ('A' for Active; 'I' for Inactive)
REMARK    1  A    between atoms: C_1  and  C_15
REMARK    2  A    between atoms: C_2  and  S_7
REMARK    3  A    between atoms: S_7  and  S_8
REMARK    4  A    between atoms: S_8  and  C_10
REMARK    5  A    between atoms: C_15  and  C_18
REMARK    6  A    between atoms: C_18  and  C_19
REMARK    7  A    between atoms: C_18  and  N_20
REMARK                            x       y       z     vdW  Elec       q    Type
REMARK                         _______ _______ _______ _____ _____    ______ ____
ROOT
ATOM      1  C   UNL     1     -32.607  19.509   0.721  0.00  0.00    -0.014 C 
ATOM      2  C   UNL     1     -33.645  20.442   0.738  0.00  0.00    +0.032 C 
ATOM      3  C   UNL     1     -31.411  19.809   0.067  0.00  0.00    -0.004 C 
ATOM      4  C   UNL     1     -33.486  21.673   0.104  0.00  0.00    +0.007 C 
ATOM      5  C   UNL     1     -31.254  21.041  -0.567  0.00  0.00    -0.000 C 
ATOM      6  C   UNL     1     -32.290  21.973  -0.549  0.00  0.00    +0.001 C 
ENDROOT
BRANCH   2   7
ATOM      7  S   UNL     1     -35.196  20.105   1.562  0.00  0.00    -0.050 S 
BRANCH   7   8
ATOM      8  S   UNL     1     -35.929  22.005   1.853  0.00  0.00    -0.031 S 
BRANCH   8  10
ATOM      9  N   UNL     1     -35.301  21.135   4.305  0.00  0.00    -0.237 NA
ATOM     10  C   UNL     1     -35.663  22.231   3.603  0.00  0.00    +0.117 C 
ATOM     11  C   UNL     1     -35.831  23.490   4.158  0.00  0.00    +0.026 C 
ATOM     12  C   UNL     1     -35.613  23.631   5.525  0.00  0.00    +0.004 C 
ATOM     13  C   UNL     1     -35.241  22.526   6.282  0.00  0.00    +0.021 C 
ATOM     14  C   UNL     1     -35.099  21.312   5.630  0.00  0.00    +0.099 C 
ENDBRANCH   8  10
ENDBRANCH   7   8
ENDBRANCH   2   7
BRANCH   1  15
ATOM     15  C   UNL     1     -32.728  18.176   1.385  0.00  0.00    +0.058 C 
BRANCH  15  16
ATOM     16  C   UNL     1     -32.755  17.023   0.407  0.00  0.00    +0.200 C 
BRANCH  16  19
ATOM     17  O   UNL     1     -34.734  15.767   0.070  0.00  0.00    -0.244 OA
ATOM     18  O   UNL     1     -33.931  17.306  -1.621  0.00  0.00    -0.244 OA
ATOM     19  C   UNL     1     -33.794  16.697  -0.373  0.00  0.00    +0.382 C 
ENDBRANCH  16  19
BRANCH  16  20
ATOM     20  N   UNL     1     -31.545  16.197   0.338  0.00  0.00    -0.102 NA
ATOM     21  N   UNL     1     -30.659  15.593   0.287  0.00  0.00    -0.020 NA
ENDBRANCH  16  20
ENDBRANCH  15  16
ENDBRANCH   1  15
TORSDOF 7
ENDMDL
MODEL 8
REMARK VINA RESULT:      -5.8      3.649      5.701
REMARK  Name = 57358388
REMARK  7 active torsions:
REMARK  status: ('A' for Active; 'I' for Inactive)
REMARK    1  A    between atoms: C_1  and  C_15
REMARK    2  A    between atoms: C_2  and  S_7
REMARK    3  A    between atoms: S_7  and  S_8
REMARK    4  A    between atoms: S_8  and  C_10
REMARK    5  A    between atoms: C_15  and  C_18
REMARK    6  A    between atoms: C_18  and  C_19
REMARK    7  A    between atoms: C_18  and  N_20
REMARK                            x       y       z     vdW  Elec       q    Type
REMARK                         _______ _______ _______ _____ _____    ______ ____
ROOT
ATOM      1  C   UNL     1     -36.223  23.079   3.504  0.00  0.00    -0.014 C 
ATOM      2  C   UNL     1     -35.660  21.815   3.688  0.00  0.00    +0.032 C 
ATOM      3  C   UNL     1     -36.133  24.035   4.516  0.00  0.00    -0.004 C 
ATOM      4  C   UNL     1     -35.008  21.509   4.882  0.00  0.00    +0.007 C 
ATOM      5  C   UNL     1     -35.481  23.728   5.710  0.00  0.00    -0.000 C 
ATOM      6  C   UNL     1     -34.918  22.466   5.894  0.00  0.00    +0.001 C 
ENDROOT
BRANCH   2   7
ATOM      7  S   UNL     1     -35.748  20.555   2.422  0.00  0.00    -0.050 S 
BRANCH   7   8
ATOM      8  S   UNL     1     -34.548  21.358   0.957  0.00  0.00    -0.031 S 
BRANCH   8  10
ATOM      9  N   UNL     1     -33.484  18.953   1.454  0.00  0.00    -0.237 NA
ATOM     10  C   UNL     1     -33.259  20.131   0.832  0.00  0.00    +0.117 C 
ATOM     11  C   UNL     1     -32.108  20.425   0.119  0.00  0.00    +0.026 C 
ATOM     12  C   UNL     1     -31.124  19.445   0.040  0.00  0.00    +0.004 C 
ATOM     13  C   UNL     1     -31.318  18.220   0.668  0.00  0.00    +0.021 C 
ATOM     14  C   UNL     1     -32.505  18.026   1.356  0.00  0.00    +0.099 C 
ENDBRANCH   8  10
ENDBRANCH   7   8
ENDBRANCH   2   7
BRANCH   1  15
ATOM     15  C   UNL     1     -36.932  23.455   2.243  0.00  0.00    +0.058 C 
BRANCH  15  16
ATOM     16  C   UNL     1     -38.417  23.173   2.289  0.00  0.00    +0.200 C 
BRANCH  16  19
ATOM     17  O   UNL     1     -40.296  21.753   2.045  0.00  0.00    -0.244 OA
ATOM     18  O   UNL     1     -38.406  21.590   0.538  0.00  0.00    -0.244 OA
ATOM     19  C   UNL     1     -39.034  22.180   1.635  0.00  0.00    +0.382 C 
ENDBRANCH  16  19
BRANCH  16  20
ATOM     20  N   UNL     1     -39.229  24.085   3.101  0.00  0.00    -0.102 NA
ATOM     21  N   UNL     1     -39.824  24.752   3.695  0.00  0.00    -0.020 NA
ENDBRANCH  16  20
ENDBRANCH  15  16
ENDBRANCH   1  15
TORSDOF 7
ENDMDL
MODEL 9
REMARK VINA RESULT:      -5.7      2.030      2.615
REMARK  Name = 57358388
REMARK  7 active torsions:
REMARK  status: ('A' for Active; 'I' for Inactive)
REMARK    1  A    between atoms: C_1  and  C_15
REMARK    2  A    between atoms: C_2  and  S_7
REMARK    3  A    between atoms: S_7  and  S_8
REMARK    4  A    between atoms: S_8  and  C_10
REMARK    5  A    between atoms: C_15  and  C_18
REMARK    6  A    between atoms: C_18  and  C_19
REMARK    7  A    between atoms: C_18  and  N_20
REMARK                            x       y       z     vdW  Elec       q    Type
REMARK                         _______ _______ _______ _____ _____    ______ ____
ROOT
ATOM      1  C   UNL     1     -36.086  22.968   3.784  0.00  0.00    -0.014 C 
ATOM      2  C   UNL     1     -35.821  23.882   4.803  0.00  0.00    +0.032 C 
ATOM      3  C   UNL     1     -35.737  21.626   3.942  0.00  0.00    -0.004 C 
ATOM      4  C   UNL     1     -35.207  23.456   5.980  0.00  0.00    +0.007 C 
ATOM      5  C   UNL     1     -35.122  21.201   5.120  0.00  0.00    -0.000 C 
ATOM      6  C   UNL     1     -34.857  22.115   6.139  0.00  0.00    +0.001 C 
ENDROOT
BRANCH   2   7
ATOM      7  S   UNL     1     -36.250  25.612   4.648  0.00  0.00    -0.050 S 
BRANCH   7   8
ATOM      8  S   UNL     1     -34.496  26.409   3.928  0.00  0.00    -0.031 S 
BRANCH   8  10
ATOM      9  N   UNL     1     -34.655  29.022   3.369  0.00  0.00    -0.237 NA
ATOM     10  C   UNL     1     -35.092  27.802   2.985  0.00  0.00    +0.117 C 
ATOM     11  C   UNL     1     -35.955  27.584   1.924  0.00  0.00    +0.026 C 
ATOM     12  C   UNL     1     -36.399  28.692   1.209  0.00  0.00    +0.004 C 
ATOM     13  C   UNL     1     -35.972  29.964   1.574  0.00  0.00    +0.021 C 
ATOM     14  C   UNL     1     -35.108  30.074   2.651  0.00  0.00    +0.099 C 
ENDBRANCH   8  10
ENDBRANCH   7   8
ENDBRANCH   2   7
BRANCH   1  15
ATOM     15  C   UNL     1     -36.742  23.375   2.504  0.00  0.00    +0.058 C 
BRANCH  15  16
ATOM     16  C   UNL     1     -38.218  23.049   2.461  0.00  0.00    +0.200 C 
BRANCH  16  19
ATOM     17  O   UNL     1     -40.057  21.587   2.164  0.00  0.00    -0.244 OA
ATOM     18  O   UNL     1     -38.000  21.269   0.925  0.00  0.00    -0.244 OA
ATOM     19  C   UNL     1     -38.754  21.978   1.861  0.00  0.00    +0.382 C 
ENDBRANCH  16  19
BRANCH  16  20
ATOM     20  N   UNL     1     -39.117  24.005   3.115  0.00  0.00    -0.102 NA
ATOM     21  N   UNL     1     -39.776  24.705   3.593  0.00  0.00    -0.020 NA
ENDBRANCH  16  20
ENDBRANCH  15  16
ENDBRANCH   1  15
TORSDOF 7
ENDMDL
