MODEL 1
REMARK VINA RESULT:      -5.7      0.000      0.000
REMARK  Name = 56494
REMARK  7 active torsions:
REMARK  status: ('A' for Active; 'I' for Inactive)
REMARK    1  A    between atoms: C_2  and  C_12
REMARK    2  A    between atoms: C_5  and  O_8
REMARK    3  A    between atoms: C_7  and  O_10
REMARK    4  A    between atoms: C_12  and  CA_13
REMARK    5  A    between atoms: CA_13  and  N_14
REMARK    6  A    between atoms: CA_13  and  C_19
REMARK    7  A    between atoms: C_19  and  O_20
REMARK                            x       y       z     vdW  Elec       q    Type
REMARK                         _______ _______ _______ _____ _____    ______ ____
ROOT
ATOM      1  F   UNL     1     -35.892  25.261   2.871  0.00  0.00    -0.204 F 
ATOM      2  C   UNL     1     -35.365  24.260   4.958  0.00  0.00    +0.007 C 
ATOM      3  C   UNL     1     -35.193  23.132   5.742  0.00  0.00    +0.038 C 
ATOM      4  C   UNL     1     -35.725  24.165   3.623  0.00  0.00    +0.139 C 
ATOM      5  C   UNL     1     -35.386  21.872   5.176  0.00  0.00    +0.167 C 
ATOM      6  C   UNL     1     -35.918  22.904   3.058  0.00  0.00    +0.069 C 
ATOM      7  C   UNL     1     -35.748  21.758   3.834  0.00  0.00    +0.170 C 
ENDROOT
BRANCH   5   8
ATOM      8  O   UNL     1     -35.218  20.760   5.944  0.00  0.00    -0.503 OA
ATOM      9  H   UNL     1     -35.687  19.975   5.741  0.00  0.00    +0.292 HD
ENDBRANCH   5   8
BRANCH   7  10
ATOM     10  O   UNL     1     -35.941  20.533   3.270  0.00  0.00    -0.503 OA
ATOM     11  H   UNL     1     -35.266  19.883   3.319  0.00  0.00    +0.292 HD
ENDBRANCH   7  10
BRANCH   2  12
ATOM     12  C   UNL     1     -35.156  25.625   5.573  0.00  0.00    +0.018 C 
BRANCH  12  13
ATOM     13  CA  UNL     1     -33.707  26.120   5.450  0.00  0.00    +0.040 C 
BRANCH  13  14
ATOM     14  N   UNL     1     -33.329  26.847   6.660  0.00  0.00    +0.389 N 
ATOM     15  H1  UNL     1     -33.251  26.193   7.440  0.00  0.00    -0.088 HD
ATOM     16  H2  UNL     1     -34.040  27.546   6.873  0.00  0.00    -0.088 HD
ATOM     17  H3  UNL     1     -32.431  27.309   6.513  0.00  0.00    -0.088 HD
ENDBRANCH  13  14
BRANCH  13  19
ATOM     18  OXT UNL     1     -34.372  27.890   3.915  0.00  0.00    -0.253 OA
ATOM     19  C   UNL     1     -33.529  27.085   4.291  0.00  0.00    +0.293 C 
BRANCH  19  20
ATOM     20  O   UNL     1     -32.299  26.988   3.722  0.00  0.00    -0.482 OA
ATOM     21  H   UNL     1     -32.212  26.670   2.845  0.00  0.00    +0.295 HD
ENDBRANCH  19  20
ENDBRANCH  13  19
ENDBRANCH  12  13
ENDBRANCH   2  12
TORSDOF 7
ENDMDL
MODEL 2
REMARK VINA RESULT:      -5.5      3.200      4.073
REMARK  Name = 56494
REMARK  7 active torsions:
REMARK  status: ('A' for Active; 'I' for Inactive)
REMARK    1  A    between atoms: C_2  and  C_12
REMARK    2  A    between atoms: C_5  and  O_8
REMARK    3  A    between atoms: C_7  and  O_10
REMARK    4  A    between atoms: C_12  and  CA_13
REMARK    5  A    between atoms: CA_13  and  N_14
REMARK    6  A    between atoms: CA_13  and  C_19
REMARK    7  A    between atoms: C_19  and  O_20
REMARK                            x       y       z     vdW  Elec       q    Type
REMARK                         _______ _______ _______ _____ _____    ______ ____
ROOT
ATOM      1  F   UNL     1     -35.702  25.324   5.958  0.00  0.00    -0.204 F 
ATOM      2  C   UNL     1     -36.009  24.136   3.927  0.00  0.00    +0.007 C 
ATOM      3  C   UNL     1     -36.019  22.947   3.218  0.00  0.00    +0.038 C 
ATOM      4  C   UNL     1     -35.711  24.169   5.279  0.00  0.00    +0.139 C 
ATOM      5  C   UNL     1     -35.721  21.756   3.879  0.00  0.00    +0.167 C 
ATOM      6  C   UNL     1     -35.413  22.977   5.941  0.00  0.00    +0.069 C 
ATOM      7  C   UNL     1     -35.419  21.771   5.241  0.00  0.00    +0.170 C 
ENDROOT
BRANCH   5   8
ATOM      8  O   UNL     1     -35.729  20.584   3.186  0.00  0.00    -0.503 OA
ATOM      9  H   UNL     1     -35.643  19.769   3.641  0.00  0.00    +0.292 HD
ENDBRANCH   5   8
BRANCH   7  10
ATOM     10  O   UNL     1     -35.126  20.614   5.899  0.00  0.00    -0.503 OA
ATOM     11  H   UNL     1     -35.722  20.275   6.538  0.00  0.00    +0.292 HD
ENDBRANCH   7  10
BRANCH   2  12
ATOM     12  C   UNL     1     -36.331  25.426   3.207  0.00  0.00    +0.018 C 
BRANCH  12  13
ATOM     13  CA  UNL     1     -37.567  25.313   2.302  0.00  0.00    +0.040 C 
BRANCH  13  14
ATOM     14  N   UNL     1     -37.646  26.480   1.425  0.00  0.00    +0.389 N 
ATOM     15  H1  UNL     1     -37.380  27.315   1.947  0.00  0.00    -0.088 HD
ATOM     16  H2  UNL     1     -38.600  26.583   1.082  0.00  0.00    -0.088 HD
ATOM     17  H3  UNL     1     -37.011  26.355   0.636  0.00  0.00    -0.088 HD
ENDBRANCH  13  14
BRANCH  13  19
ATOM     18  OXT UNL     1     -39.460  24.264   3.420  0.00  0.00    -0.253 OA
ATOM     19  C   UNL     1     -38.859  25.282   3.100  0.00  0.00    +0.293 C 
BRANCH  19  20
ATOM     20  O   UNL     1     -39.273  26.525   3.460  0.00  0.00    -0.482 OA
ATOM     21  H   UNL     1     -39.991  26.626   4.054  0.00  0.00    +0.295 HD
ENDBRANCH  19  20
ENDBRANCH  13  19
ENDBRANCH  12  13
ENDBRANCH   2  12
TORSDOF 7
ENDMDL
MODEL 3
REMARK VINA RESULT:      -5.3      3.524      5.629
REMARK  Name = 56494
REMARK  7 active torsions:
REMARK  status: ('A' for Active; 'I' for Inactive)
REMARK    1  A    between atoms: C_2  and  C_12
REMARK    2  A    between atoms: C_5  and  O_8
REMARK    3  A    between atoms: C_7  and  O_10
REMARK    4  A    between atoms: C_12  and  CA_13
REMARK    5  A    between atoms: CA_13  and  N_14
REMARK    6  A    between atoms: CA_13  and  C_19
REMARK    7  A    between atoms: C_19  and  O_20
REMARK                            x       y       z     vdW  Elec       q    Type
REMARK                         _______ _______ _______ _____ _____    ______ ____
ROOT
ATOM      1  F   UNL     1     -34.410  22.337   6.075  0.00  0.00    -0.204 F 
ATOM      2  C   UNL     1     -35.783  22.623   4.160  0.00  0.00    +0.007 C 
ATOM      3  C   UNL     1     -36.608  23.414   3.378  0.00  0.00    +0.038 C 
ATOM      4  C   UNL     1     -35.206  23.109   5.322  0.00  0.00    +0.139 C 
ATOM      5  C   UNL     1     -36.863  24.728   3.768  0.00  0.00    +0.167 C 
ATOM      6  C   UNL     1     -35.461  24.424   5.712  0.00  0.00    +0.069 C 
ATOM      7  C   UNL     1     -36.289  25.233   4.936  0.00  0.00    +0.170 C 
ENDROOT
BRANCH   5   8
ATOM      8  O   UNL     1     -37.675  25.510   3.002  0.00  0.00    -0.503 OA
ATOM      9  H   UNL     1     -37.396  26.368   2.750  0.00  0.00    +0.292 HD
ENDBRANCH   5   8
BRANCH   7  10
ATOM     10  O   UNL     1     -36.532  26.515   5.328  0.00  0.00    -0.503 OA
ATOM     11  H   UNL     1     -35.851  27.019   5.731  0.00  0.00    +0.292 HD
ENDBRANCH   7  10
BRANCH   2  12
ATOM     12  C   UNL     1     -35.509  21.198   3.735  0.00  0.00    +0.018 C 
BRANCH  12  13
ATOM     13  CA  UNL     1     -35.912  20.921   2.279  0.00  0.00    +0.040 C 
BRANCH  13  14
ATOM     14  N   UNL     1     -36.888  19.835   2.235  0.00  0.00    +0.389 N 
ATOM     15  H1  UNL     1     -36.685  19.165   2.977  0.00  0.00    -0.088 HD
ATOM     16  H2  UNL     1     -36.835  19.366   1.331  0.00  0.00    -0.088 HD
ATOM     17  H3  UNL     1     -37.826  20.215   2.367  0.00  0.00    -0.088 HD
ENDBRANCH  13  14
BRANCH  13  19
ATOM     18  OXT UNL     1     -33.977  21.233   0.832  0.00  0.00    -0.253 OA
ATOM     19  C   UNL     1     -34.730  20.478   1.434  0.00  0.00    +0.293 C 
BRANCH  19  20
ATOM     20  O   UNL     1     -34.568  19.129   1.441  0.00  0.00    -0.482 OA
ATOM     21  H   UNL     1     -35.169  18.582   0.974  0.00  0.00    +0.295 HD
ENDBRANCH  19  20
ENDBRANCH  13  19
ENDBRANCH  12  13
ENDBRANCH   2  12
TORSDOF 7
ENDMDL
MODEL 4
REMARK VINA RESULT:      -5.2      2.071      5.224
REMARK  Name = 56494
REMARK  7 active torsions:
REMARK  status: ('A' for Active; 'I' for Inactive)
REMARK    1  A    between atoms: C_2  and  C_12
REMARK    2  A    between atoms: C_5  and  O_8
REMARK    3  A    between atoms: C_7  and  O_10
REMARK    4  A    between atoms: C_12  and  CA_13
REMARK    5  A    between atoms: CA_13  and  N_14
REMARK    6  A    between atoms: CA_13  and  C_19
REMARK    7  A    between atoms: C_19  and  O_20
REMARK                            x       y       z     vdW  Elec       q    Type
REMARK                         _______ _______ _______ _____ _____    ______ ____
ROOT
ATOM      1  F   UNL     1     -35.827  26.107   2.835  0.00  0.00    -0.204 F 
ATOM      2  C   UNL     1     -35.043  25.635   5.025  0.00  0.00    +0.007 C 
ATOM      3  C   UNL     1     -34.150  25.863   6.059  0.00  0.00    +0.038 C 
ATOM      4  C   UNL     1     -34.961  26.334   3.832  0.00  0.00    +0.139 C 
ATOM      5  C   UNL     1     -33.148  26.818   5.897  0.00  0.00    +0.167 C 
ATOM      6  C   UNL     1     -33.958  27.290   3.670  0.00  0.00    +0.069 C 
ATOM      7  C   UNL     1     -33.052  27.533   4.701  0.00  0.00    +0.170 C 
ENDROOT
BRANCH   5   8
ATOM      8  O   UNL     1     -32.268  27.046   6.911  0.00  0.00    -0.503 OA
ATOM      9  H   UNL     1     -31.774  27.842   6.933  0.00  0.00    +0.292 HD
ENDBRANCH   5   8
BRANCH   7  10
ATOM     10  O   UNL     1     -32.076  28.468   4.530  0.00  0.00    -0.503 OA
ATOM     11  H   UNL     1     -31.202  28.293   4.823  0.00  0.00    +0.292 HD
ENDBRANCH   7  10
BRANCH   2  12
ATOM     12  C   UNL     1     -36.128  24.598   5.204  0.00  0.00    +0.018 C 
BRANCH  12  13
ATOM     13  CA  UNL     1     -35.792  23.259   4.528  0.00  0.00    +0.040 C 
BRANCH  13  14
ATOM     14  N   UNL     1     -36.957  22.773   3.791  0.00  0.00    +0.389 N 
ATOM     15  H1  UNL     1     -37.744  23.404   3.943  0.00  0.00    -0.088 HD
ATOM     16  H2  UNL     1     -37.202  21.839   4.121  0.00  0.00    -0.088 HD
ATOM     17  H3  UNL     1     -36.738  22.735   2.795  0.00  0.00    -0.088 HD
ENDBRANCH  13  14
BRANCH  13  19
ATOM     18  OXT UNL     1     -35.268  22.374   6.735  0.00  0.00    -0.253 OA
ATOM     19  C   UNL     1     -35.436  22.183   5.538  0.00  0.00    +0.293 C 
BRANCH  19  20
ATOM     20  O   UNL     1     -35.354  20.951   4.971  0.00  0.00    -0.482 OA
ATOM     21  H   UNL     1     -35.145  20.205   5.499  0.00  0.00    +0.295 HD
ENDBRANCH  19  20
ENDBRANCH  13  19
ENDBRANCH  12  13
ENDBRANCH   2  12
TORSDOF 7
ENDMDL
MODEL 5
REMARK VINA RESULT:      -5.2      1.948      2.750
REMARK  Name = 56494
REMARK  7 active torsions:
REMARK  status: ('A' for Active; 'I' for Inactive)
REMARK    1  A    between atoms: C_2  and  C_12
REMARK    2  A    between atoms: C_5  and  O_8
REMARK    3  A    between atoms: C_7  and  O_10
REMARK    4  A    between atoms: C_12  and  CA_13
REMARK    5  A    between atoms: CA_13  and  N_14
REMARK    6  A    between atoms: CA_13  and  C_19
REMARK    7  A    between atoms: C_19  and  O_20
REMARK                            x       y       z     vdW  Elec       q    Type
REMARK                         _______ _______ _______ _____ _____    ______ ____
ROOT
ATOM      1  F   UNL     1     -34.354  25.156   5.792  0.00  0.00    -0.204 F 
ATOM      2  C   UNL     1     -34.973  24.041   3.790  0.00  0.00    +0.007 C 
ATOM      3  C   UNL     1     -35.378  22.895   3.126  0.00  0.00    +0.038 C 
ATOM      4  C   UNL     1     -34.748  24.044   5.157  0.00  0.00    +0.139 C 
ATOM      5  C   UNL     1     -35.564  21.718   3.850  0.00  0.00    +0.167 C 
ATOM      6  C   UNL     1     -34.935  22.865   5.880  0.00  0.00    +0.069 C 
ATOM      7  C   UNL     1     -35.343  21.703   5.228  0.00  0.00    +0.170 C 
ENDROOT
BRANCH   5   8
ATOM      8  O   UNL     1     -35.963  20.588   3.201  0.00  0.00    -0.503 OA
ATOM      9  H   UNL     1     -36.413  20.652   2.382  0.00  0.00    +0.292 HD
ENDBRANCH   5   8
BRANCH   7  10
ATOM     10  O   UNL     1     -35.521  20.559   5.945  0.00  0.00    -0.503 OA
ATOM     11  H   UNL     1     -36.101  19.893   5.630  0.00  0.00    +0.292 HD
ENDBRANCH   7  10
BRANCH   2  12
ATOM     12  C   UNL     1     -34.770  25.316   3.003  0.00  0.00    +0.018 C 
BRANCH  12  13
ATOM     13  CA  UNL     1     -35.651  26.472   3.502  0.00  0.00    +0.040 C 
BRANCH  13  14
ATOM     14  N   UNL     1     -36.887  26.522   2.723  0.00  0.00    +0.389 N 
ATOM     15  H1  UNL     1     -36.774  27.175   1.947  0.00  0.00    -0.088 HD
ATOM     16  H2  UNL     1     -37.653  26.833   3.319  0.00  0.00    -0.088 HD
ATOM     17  H3  UNL     1     -37.096  25.593   2.357  0.00  0.00    -0.088 HD
ENDBRANCH  13  14
BRANCH  13  19
ATOM     18  OXT UNL     1     -33.890  28.126   3.809  0.00  0.00    -0.253 OA
ATOM     19  C   UNL     1     -34.975  27.821   3.331  0.00  0.00    +0.293 C 
BRANCH  19  20
ATOM     20  O   UNL     1     -35.697  28.664   2.547  0.00  0.00    -0.482 OA
ATOM     21  H   UNL     1     -35.802  29.561   2.796  0.00  0.00    +0.295 HD
ENDBRANCH  19  20
ENDBRANCH  13  19
ENDBRANCH  12  13
ENDBRANCH   2  12
TORSDOF 7
ENDMDL
MODEL 6
REMARK VINA RESULT:      -5.1      1.517      1.754
REMARK  Name = 56494
REMARK  7 active torsions:
REMARK  status: ('A' for Active; 'I' for Inactive)
REMARK    1  A    between atoms: C_2  and  C_12
REMARK    2  A    between atoms: C_5  and  O_8
REMARK    3  A    between atoms: C_7  and  O_10
REMARK    4  A    between atoms: C_12  and  CA_13
REMARK    5  A    between atoms: CA_13  and  N_14
REMARK    6  A    between atoms: CA_13  and  C_19
REMARK    7  A    between atoms: C_19  and  O_20
REMARK                            x       y       z     vdW  Elec       q    Type
REMARK                         _______ _______ _______ _____ _____    ______ ____
ROOT
ATOM      1  F   UNL     1     -36.234  24.317   1.157  0.00  0.00    -0.204 F 
ATOM      2  C   UNL     1     -35.447  23.828   3.343  0.00  0.00    +0.007 C 
ATOM      3  C   UNL     1     -35.205  22.920   4.360  0.00  0.00    +0.038 C 
ATOM      4  C   UNL     1     -36.001  23.432   2.136  0.00  0.00    +0.139 C 
ATOM      5  C   UNL     1     -35.525  21.577   4.165  0.00  0.00    +0.167 C 
ATOM      6  C   UNL     1     -36.321  22.088   1.943  0.00  0.00    +0.069 C 
ATOM      7  C   UNL     1     -36.083  21.161   2.956  0.00  0.00    +0.170 C 
ENDROOT
BRANCH   5   8
ATOM      8  O   UNL     1     -35.289  20.681   5.163  0.00  0.00    -0.503 OA
ATOM      9  H   UNL     1     -35.870  20.633   5.898  0.00  0.00    +0.292 HD
ENDBRANCH   5   8
BRANCH   7  10
ATOM     10  O   UNL     1     -36.401  19.851   2.754  0.00  0.00    -0.503 OA
ATOM     11  H   UNL     1     -35.878  19.325   2.181  0.00  0.00    +0.292 HD
ENDBRANCH   7  10
BRANCH   2  12
ATOM     12  C   UNL     1     -35.100  25.284   3.556  0.00  0.00    +0.018 C 
BRANCH  12  13
ATOM     13  CA  UNL     1     -35.101  25.687   5.039  0.00  0.00    +0.040 C 
BRANCH  13  14
ATOM     14  N   UNL     1     -36.191  26.627   5.293  0.00  0.00    +0.389 N 
ATOM     15  H1  UNL     1     -35.993  27.513   4.827  0.00  0.00    -0.088 HD
ATOM     16  H2  UNL     1     -36.278  26.784   6.297  0.00  0.00    -0.088 HD
ATOM     17  H3  UNL     1     -37.064  26.241   4.932  0.00  0.00    -0.088 HD
ENDBRANCH  13  14
BRANCH  13  19
ATOM     18  OXT UNL     1     -33.545  26.754   6.578  0.00  0.00    -0.253 OA
ATOM     19  C   UNL     1     -33.818  26.393   5.441  0.00  0.00    +0.293 C 
BRANCH  19  20
ATOM     20  O   UNL     1     -32.968  26.554   4.393  0.00  0.00    -0.482 OA
ATOM     21  H   UNL     1     -32.881  27.393   3.986  0.00  0.00    +0.295 HD
ENDBRANCH  19  20
ENDBRANCH  13  19
ENDBRANCH  12  13
ENDBRANCH   2  12
TORSDOF 7
ENDMDL
MODEL 7
REMARK VINA RESULT:      -5.1      2.917      5.690
REMARK  Name = 56494
REMARK  7 active torsions:
REMARK  status: ('A' for Active; 'I' for Inactive)
REMARK    1  A    between atoms: C_2  and  C_12
REMARK    2  A    between atoms: C_5  and  O_8
REMARK    3  A    between atoms: C_7  and  O_10
REMARK    4  A    between atoms: C_12  and  CA_13
REMARK    5  A    between atoms: CA_13  and  N_14
REMARK    6  A    between atoms: CA_13  and  C_19
REMARK    7  A    between atoms: C_19  and  O_20
REMARK                            x       y       z     vdW  Elec       q    Type
REMARK                         _______ _______ _______ _____ _____    ______ ____
ROOT
ATOM      1  F   UNL     1     -35.138  21.958   5.274  0.00  0.00    -0.204 F 
ATOM      2  C   UNL     1     -36.146  23.651   3.951  0.00  0.00    +0.007 C 
ATOM      3  C   UNL     1     -36.313  24.987   3.629  0.00  0.00    +0.038 C 
ATOM      4  C   UNL     1     -35.293  23.253   4.967  0.00  0.00    +0.139 C 
ATOM      5  C   UNL     1     -35.607  25.954   4.344  0.00  0.00    +0.167 C 
ATOM      6  C   UNL     1     -34.587  24.221   5.682  0.00  0.00    +0.069 C 
ATOM      7  C   UNL     1     -34.743  25.571   5.371  0.00  0.00    +0.170 C 
ENDROOT
BRANCH   5   8
ATOM      8  O   UNL     1     -35.768  27.270   4.031  0.00  0.00    -0.503 OA
ATOM      9  H   UNL     1     -35.782  27.540   3.134  0.00  0.00    +0.292 HD
ENDBRANCH   5   8
BRANCH   7  10
ATOM     10  O   UNL     1     -34.048  26.506   6.077  0.00  0.00    -0.503 OA
ATOM     11  H   UNL     1     -33.555  26.252   6.833  0.00  0.00    +0.292 HD
ENDBRANCH   7  10
BRANCH   2  12
ATOM     12  C   UNL     1     -36.913  22.604   3.175  0.00  0.00    +0.018 C 
BRANCH  12  13
ATOM     13  CA  UNL     1     -36.064  21.923   2.090  0.00  0.00    +0.040 C 
BRANCH  13  14
ATOM     14  N   UNL     1     -36.776  21.955   0.815  0.00  0.00    +0.389 N 
ATOM     15  H1  UNL     1     -36.641  21.069   0.327  0.00  0.00    -0.088 HD
ATOM     16  H2  UNL     1     -36.414  22.717   0.242  0.00  0.00    -0.088 HD
ATOM     17  H3  UNL     1     -37.772  22.101   0.985  0.00  0.00    -0.088 HD
ENDBRANCH  13  14
BRANCH  13  19
ATOM     18  OXT UNL     1     -34.692  19.951   2.486  0.00  0.00    -0.253 OA
ATOM     19  C   UNL     1     -35.802  20.461   2.404  0.00  0.00    +0.293 C 
BRANCH  19  20
ATOM     20  O   UNL     1     -36.949  19.766   2.624  0.00  0.00    -0.482 OA
ATOM     21  H   UNL     1     -37.606  20.116   3.193  0.00  0.00    +0.295 HD
ENDBRANCH  19  20
ENDBRANCH  13  19
ENDBRANCH  12  13
ENDBRANCH   2  12
TORSDOF 7
ENDMDL
MODEL 8
REMARK VINA RESULT:      -5.1      2.923      3.897
REMARK  Name = 56494
REMARK  7 active torsions:
REMARK  status: ('A' for Active; 'I' for Inactive)
REMARK    1  A    between atoms: C_2  and  C_12
REMARK    2  A    between atoms: C_5  and  O_8
REMARK    3  A    between atoms: C_7  and  O_10
REMARK    4  A    between atoms: C_12  and  CA_13
REMARK    5  A    between atoms: CA_13  and  N_14
REMARK    6  A    between atoms: CA_13  and  C_19
REMARK    7  A    between atoms: C_19  and  O_20
REMARK                            x       y       z     vdW  Elec       q    Type
REMARK                         _______ _______ _______ _____ _____    ______ ____
ROOT
ATOM      1  F   UNL     1     -39.477  25.473   2.790  0.00  0.00    -0.204 F 
ATOM      2  C   UNL     1     -37.679  23.924   2.828  0.00  0.00    +0.007 C 
ATOM      3  C   UNL     1     -37.192  22.641   2.647  0.00  0.00    +0.038 C 
ATOM      4  C   UNL     1     -39.013  24.229   2.611  0.00  0.00    +0.139 C 
ATOM      5  C   UNL     1     -38.064  21.633   2.236  0.00  0.00    +0.167 C 
ATOM      6  C   UNL     1     -39.884  23.220   2.199  0.00  0.00    +0.069 C 
ATOM      7  C   UNL     1     -39.410  21.923   2.012  0.00  0.00    +0.170 C 
ENDROOT
BRANCH   5   8
ATOM      8  O   UNL     1     -37.589  20.368   2.056  0.00  0.00    -0.503 OA
ATOM      9  H   UNL     1     -36.815  20.226   1.548  0.00  0.00    +0.292 HD
ENDBRANCH   5   8
BRANCH   7  10
ATOM     10  O   UNL     1     -40.271  20.946   1.610  0.00  0.00    -0.503 OA
ATOM     11  H   UNL     1     -41.197  21.083   1.673  0.00  0.00    +0.292 HD
ENDBRANCH   7  10
BRANCH   2  12
ATOM     12  C   UNL     1     -36.733  25.016   3.275  0.00  0.00    +0.018 C 
BRANCH  12  13
ATOM     13  CA  UNL     1     -36.621  25.120   4.804  0.00  0.00    +0.040 C 
BRANCH  13  14
ATOM     14  N   UNL     1     -36.357  26.506   5.186  0.00  0.00    +0.389 N 
ATOM     15  H1  UNL     1     -35.754  26.523   6.009  0.00  0.00    -0.088 HD
ATOM     16  H2  UNL     1     -37.238  26.973   5.400  0.00  0.00    -0.088 HD
ATOM     17  H3  UNL     1     -35.895  26.988   4.415  0.00  0.00    -0.088 HD
ENDBRANCH  13  14
BRANCH  13  19
ATOM     18  OXT UNL     1     -34.292  24.619   5.309  0.00  0.00    -0.253 OA
ATOM     19  C   UNL     1     -35.472  24.293   5.352  0.00  0.00    +0.293 C 
BRANCH  19  20
ATOM     20  O   UNL     1     -35.896  23.143   5.938  0.00  0.00    -0.482 OA
ATOM     21  H   UNL     1     -36.786  22.867   5.838  0.00  0.00    +0.295 HD
ENDBRANCH  19  20
ENDBRANCH  13  19
ENDBRANCH  12  13
ENDBRANCH   2  12
TORSDOF 7
ENDMDL
MODEL 9
REMARK VINA RESULT:      -5.1      2.765      5.581
REMARK  Name = 56494
REMARK  7 active torsions:
REMARK  status: ('A' for Active; 'I' for Inactive)
REMARK    1  A    between atoms: C_2  and  C_12
REMARK    2  A    between atoms: C_5  and  O_8
REMARK    3  A    between atoms: C_7  and  O_10
REMARK    4  A    between atoms: C_12  and  CA_13
REMARK    5  A    between atoms: CA_13  and  N_14
REMARK    6  A    between atoms: CA_13  and  C_19
REMARK    7  A    between atoms: C_19  and  O_20
REMARK                            x       y       z     vdW  Elec       q    Type
REMARK                         _______ _______ _______ _____ _____    ______ ____
ROOT
ATOM      1  F   UNL     1     -34.058  23.818   1.807  0.00  0.00    -0.204 F 
ATOM      2  C   UNL     1     -35.416  23.871   3.753  0.00  0.00    +0.007 C 
ATOM      3  C   UNL     1     -36.074  24.582   4.743  0.00  0.00    +0.038 C 
ATOM      4  C   UNL     1     -34.694  24.513   2.760  0.00  0.00    +0.139 C 
ATOM      5  C   UNL     1     -36.010  25.974   4.739  0.00  0.00    +0.167 C 
ATOM      6  C   UNL     1     -34.630  25.907   2.758  0.00  0.00    +0.069 C 
ATOM      7  C   UNL     1     -35.288  26.637   3.746  0.00  0.00    +0.170 C 
ENDROOT
BRANCH   5   8
ATOM      8  O   UNL     1     -36.655  26.678   5.711  0.00  0.00    -0.503 OA
ATOM      9  H   UNL     1     -36.809  27.596   5.601  0.00  0.00    +0.292 HD
ENDBRANCH   5   8
BRANCH   7  10
ATOM     10  O   UNL     1     -35.217  27.998   3.733  0.00  0.00    -0.503 OA
ATOM     11  H   UNL     1     -34.394  28.423   3.581  0.00  0.00    +0.292 HD
ENDBRANCH   7  10
BRANCH   2  12
ATOM     12  C   UNL     1     -35.486  22.360   3.760  0.00  0.00    +0.018 C 
BRANCH  12  13
ATOM     13  CA  UNL     1     -36.204  21.791   2.526  0.00  0.00    +0.040 C 
BRANCH  13  14
ATOM     14  N   UNL     1     -37.649  21.813   2.743  0.00  0.00    +0.389 N 
ATOM     15  H1  UNL     1     -37.890  21.172   3.500  0.00  0.00    -0.088 HD
ATOM     16  H2  UNL     1     -38.126  21.524   1.889  0.00  0.00    -0.088 HD
ATOM     17  H3  UNL     1     -37.941  22.758   2.993  0.00  0.00    -0.088 HD
ENDBRANCH  13  14
BRANCH  13  19
ATOM     18  OXT UNL     1     -34.699  19.954   1.988  0.00  0.00    -0.253 OA
ATOM     19  C   UNL     1     -35.827  20.344   2.262  0.00  0.00    +0.293 C 
BRANCH  19  20
ATOM     20  O   UNL     1     -36.884  19.502   2.398  0.00  0.00    -0.482 OA
ATOM     21  H   UNL     1     -37.574  19.708   2.998  0.00  0.00    +0.295 HD
ENDBRANCH  19  20
ENDBRANCH  13  19
ENDBRANCH  12  13
ENDBRANCH   2  12
TORSDOF 7
ENDMDL
