MODEL 1
REMARK VINA RESULT:      -7.3      0.000      0.000
REMARK  Name = 193311
REMARK  4 active torsions:
REMARK  status: ('A' for Active; 'I' for Inactive)
REMARK    1  A    between atoms: C_7  and  C_26
REMARK    2  A    between atoms: C_10  and  O_21
REMARK    3  A    between atoms: C_15  and  O_23
REMARK    4  A    between atoms: C_26  and  O_27
REMARK                            x       y       z     vdW  Elec       q    Type
REMARK                         _______ _______ _______ _____ _____    ______ ____
ROOT
ATOM      1  O   UNL     1     -33.732  24.933   2.116  0.00  0.00    -0.456 OA
ATOM      2  O   UNL     1     -32.798  26.473   3.573  0.00  0.00    -0.250 OA
ATOM      3  C   UNL     1     -35.829  21.863   2.487  0.00  0.00    +0.020 C 
ATOM      4  C   UNL     1     -34.893  24.100   2.201  0.00  0.00    +0.137 C 
ATOM      5  C   UNL     1     -34.819  22.703   1.606  0.00  0.00    +0.038 C 
ATOM      6  C   UNL     1     -34.817  23.700   3.670  0.00  0.00    +0.060 C 
ATOM      7  C   UNL     1     -35.895  22.640   3.844  0.00  0.00    +0.103 C 
ATOM      8  C   UNL     1     -34.709  25.075   4.298  0.00  0.00    +0.118 C 
ATOM      9  C   UNL     1     -35.290  20.427   2.404  0.00  0.00    +0.032 C 
ATOM     10  C   UNL     1     -35.664  20.071   0.946  0.00  0.00    +0.103 C 
ATOM     11  C   UNL     1     -37.262  21.647   1.904  0.00  0.00    +0.025 C 
ATOM     12  C   UNL     1     -34.977  22.435   0.121  0.00  0.00    +0.006 C 
ATOM     13  C   UNL     1     -36.132  24.930   1.803  0.00  0.00    +0.043 C 
ATOM     14  C   UNL     1     -34.873  20.907  -0.095  0.00  0.00    +0.031 C 
ATOM     15  C   UNL     1     -35.985  25.921   4.128  0.00  0.00    +0.121 C 
ATOM     16  C   UNL     1     -37.108  20.503   0.934  0.00  0.00    -0.020 C 
ATOM     17  C   UNL     1     -36.306  26.187   2.654  0.00  0.00    +0.033 C 
ATOM     18  C   UNL     1     -33.621  25.602   3.337  0.00  0.00    +0.318 C 
ATOM     19  C   UNL     1     -34.218  25.006   5.740  0.00  0.00    +0.014 C 
ATOM     20  C   UNL     1     -38.111  19.952   0.243  0.00  0.00    -0.007 C 
ENDROOT
BRANCH  10  21
ATOM     21  O   UNL     1     -35.482  18.690   0.694  0.00  0.00    -0.383 OA
ATOM     22  H   UNL     1     -35.584  18.194   1.520  0.00  0.00    +0.211 HD
ENDBRANCH  10  21
BRANCH  15  23
ATOM     23  O   UNL     1     -35.844  27.173   4.798  0.00  0.00    -0.384 OA
ATOM     24  H   UNL     1     -35.598  27.018   5.723  0.00  0.00    +0.210 HD
ENDBRANCH  15  23
BRANCH   7  26
ATOM     25  O   UNL     1     -34.928  20.760   5.008  0.00  0.00    -0.250 OA
ATOM     26  C   UNL     1     -35.626  21.762   5.024  0.00  0.00    +0.313 C 
BRANCH  26  27
ATOM     27  O   UNL     1     -36.267  22.229   6.123  0.00  0.00    -0.480 OA
ATOM     28  H   UNL     1     -36.797  22.999   6.065  0.00  0.00    +0.295 HD
ENDBRANCH  26  27
ENDBRANCH   7  26
TORSDOF 4
ENDMDL
MODEL 2
REMARK VINA RESULT:      -6.9      1.631      2.170
REMARK  Name = 193311
REMARK  4 active torsions:
REMARK  status: ('A' for Active; 'I' for Inactive)
REMARK    1  A    between atoms: C_7  and  C_26
REMARK    2  A    between atoms: C_10  and  O_21
REMARK    3  A    between atoms: C_15  and  O_23
REMARK    4  A    between atoms: C_26  and  O_27
REMARK                            x       y       z     vdW  Elec       q    Type
REMARK                         _______ _______ _______ _____ _____    ______ ____
ROOT
ATOM      1  O   UNL     1     -33.635  25.137   2.908  0.00  0.00    -0.456 OA
ATOM      2  O   UNL     1     -33.590  25.726   5.148  0.00  0.00    -0.250 OA
ATOM      3  C   UNL     1     -35.221  22.405   0.914  0.00  0.00    +0.020 C 
ATOM      4  C   UNL     1     -34.597  24.441   2.109  0.00  0.00    +0.137 C 
ATOM      5  C   UNL     1     -34.086  23.500   1.029  0.00  0.00    +0.038 C 
ATOM      6  C   UNL     1     -35.042  23.380   3.109  0.00  0.00    +0.060 C 
ATOM      7  C   UNL     1     -35.929  22.436   2.309  0.00  0.00    +0.103 C 
ATOM      8  C   UNL     1     -35.397  24.273   4.280  0.00  0.00    +0.118 C 
ATOM      9  C   UNL     1     -34.483  21.155   0.410  0.00  0.00    +0.032 C 
ATOM     10  C   UNL     1     -34.198  21.568  -1.052  0.00  0.00    +0.103 C 
ATOM     11  C   UNL     1     -36.261  22.585  -0.238  0.00  0.00    +0.025 C 
ATOM     12  C   UNL     1     -33.608  23.990  -0.325  0.00  0.00    +0.006 C 
ATOM     13  C   UNL     1     -35.691  25.434   1.665  0.00  0.00    +0.043 C 
ATOM     14  C   UNL     1     -33.198  22.750  -1.156  0.00  0.00    +0.031 C 
ATOM     15  C   UNL     1     -36.617  25.174   4.007  0.00  0.00    +0.121 C 
ATOM     16  C   UNL     1     -35.569  22.041  -1.462  0.00  0.00    -0.020 C 
ATOM     17  C   UNL     1     -36.371  26.136   2.839  0.00  0.00    +0.033 C 
ATOM     18  C   UNL     1     -34.113  25.129   4.220  0.00  0.00    +0.318 C 
ATOM     19  C   UNL     1     -35.505  23.489   5.583  0.00  0.00    +0.014 C 
ATOM     20  C   UNL     1     -36.126  21.954  -2.674  0.00  0.00    -0.007 C 
ENDROOT
BRANCH  10  21
ATOM     21  O   UNL     1     -33.725  20.471  -1.811  0.00  0.00    -0.383 OA
ATOM     22  H   UNL     1     -33.657  19.689  -1.242  0.00  0.00    +0.211 HD
ENDBRANCH  10  21
BRANCH  15  23
ATOM     23  O   UNL     1     -36.940  25.938   5.168  0.00  0.00    -0.384 OA
ATOM     24  H   UNL     1     -37.888  26.144   5.165  0.00  0.00    +0.210 HD
ENDBRANCH  15  23
BRANCH   7  26
ATOM     25  O   UNL     1     -35.205  20.629   3.736  0.00  0.00    -0.250 OA
ATOM     26  C   UNL     1     -36.014  21.084   2.942  0.00  0.00    +0.313 C 
BRANCH  26  27
ATOM     27  O   UNL     1     -37.117  20.423   2.513  0.00  0.00    -0.480 OA
ATOM     28  H   UNL     1     -37.579  20.725   1.755  0.00  0.00    +0.295 HD
ENDBRANCH  26  27
ENDBRANCH   7  26
TORSDOF 4
ENDMDL
MODEL 3
REMARK VINA RESULT:      -6.7      2.700      6.167
REMARK  Name = 193311
REMARK  4 active torsions:
REMARK  status: ('A' for Active; 'I' for Inactive)
REMARK    1  A    between atoms: C_7  and  C_26
REMARK    2  A    between atoms: C_10  and  O_21
REMARK    3  A    between atoms: C_15  and  O_23
REMARK    4  A    between atoms: C_26  and  O_27
REMARK                            x       y       z     vdW  Elec       q    Type
REMARK                         _______ _______ _______ _____ _____    ______ ____
ROOT
ATOM      1  O   UNL     1     -36.822  22.845   0.105  0.00  0.00    -0.456 OA
ATOM      2  O   UNL     1     -38.407  22.009  -1.362  0.00  0.00    -0.250 OA
ATOM      3  C   UNL     1     -36.837  25.329   2.896  0.00  0.00    +0.020 C 
ATOM      4  C   UNL     1     -36.914  23.377   1.430  0.00  0.00    +0.137 C 
ATOM      5  C   UNL     1     -36.010  24.543   1.800  0.00  0.00    +0.038 C 
ATOM      6  C   UNL     1     -38.215  24.160   1.304  0.00  0.00    +0.060 C 
ATOM      7  C   UNL     1     -38.326  24.948   2.601  0.00  0.00    +0.103 C 
ATOM      8  C   UNL     1     -39.114  23.066   0.762  0.00  0.00    +0.118 C 
ATOM      9  C   UNL     1     -36.334  26.776   2.775  0.00  0.00    +0.032 C 
ATOM     10  C   UNL     1     -34.922  26.634   3.388  0.00  0.00    +0.103 C 
ATOM     11  C   UNL     1     -36.478  25.044   4.389  0.00  0.00    +0.025 C 
ATOM     12  C   UNL     1     -34.554  24.362   2.186  0.00  0.00    +0.006 C 
ATOM     13  C   UNL     1     -36.939  22.207   2.437  0.00  0.00    +0.043 C 
ATOM     14  C   UNL     1     -33.979  25.758   2.521  0.00  0.00    +0.031 C 
ATOM     15  C   UNL     1     -39.367  21.933   1.775  0.00  0.00    +0.121 C 
ATOM     16  C   UNL     1     -35.261  25.891   4.655  0.00  0.00    -0.020 C 
ATOM     17  C   UNL     1     -38.072  21.217   2.173  0.00  0.00    +0.033 C 
ATOM     18  C   UNL     1     -38.125  22.570  -0.315  0.00  0.00    +0.318 C 
ATOM     19  C   UNL     1     -40.393  23.629   0.153  0.00  0.00    +0.014 C 
ATOM     20  C   UNL     1     -34.647  25.989   5.839  0.00  0.00    -0.007 C 
ENDROOT
BRANCH  10  21
ATOM     21  O   UNL     1     -34.331  27.900   3.612  0.00  0.00    -0.383 OA
ATOM     22  H   UNL     1     -34.904  28.593   3.249  0.00  0.00    +0.211 HD
ENDBRANCH  10  21
BRANCH  15  23
ATOM     23  O   UNL     1     -40.271  20.973   1.231  0.00  0.00    -0.384 OA
ATOM     24  H   UNL     1     -41.183  21.247   1.416  0.00  0.00    +0.210 HD
ENDBRANCH  15  23
BRANCH   7  26
ATOM     25  O   UNL     1     -39.412  26.740   1.403  0.00  0.00    -0.250 OA
ATOM     26  C   UNL     1     -39.208  26.146   2.451  0.00  0.00    +0.313 C 
BRANCH  26  27
ATOM     27  O   UNL     1     -39.755  26.490   3.642  0.00  0.00    -0.480 OA
ATOM     28  H   UNL     1     -39.829  27.393   3.881  0.00  0.00    +0.295 HD
ENDBRANCH  26  27
ENDBRANCH   7  26
TORSDOF 4
ENDMDL
MODEL 4
REMARK VINA RESULT:      -6.7      2.646      5.772
REMARK  Name = 193311
REMARK  4 active torsions:
REMARK  status: ('A' for Active; 'I' for Inactive)
REMARK    1  A    between atoms: C_7  and  C_26
REMARK    2  A    between atoms: C_10  and  O_21
REMARK    3  A    between atoms: C_15  and  O_23
REMARK    4  A    between atoms: C_26  and  O_27
REMARK                            x       y       z     vdW  Elec       q    Type
REMARK                         _______ _______ _______ _____ _____    ______ ____
ROOT
ATOM      1  O   UNL     1     -39.620  23.144   1.577  0.00  0.00    -0.456 OA
ATOM      2  O   UNL     1     -41.020  21.754   0.363  0.00  0.00    -0.250 OA
ATOM      3  C   UNL     1     -36.069  22.983   2.729  0.00  0.00    +0.020 C 
ATOM      4  C   UNL     1     -38.200  23.321   1.584  0.00  0.00    +0.137 C 
ATOM      5  C   UNL     1     -37.517  23.593   2.915  0.00  0.00    +0.038 C 
ATOM      6  C   UNL     1     -37.758  21.871   1.421  0.00  0.00    +0.060 C 
ATOM      7  C   UNL     1     -36.249  21.896   1.617  0.00  0.00    +0.103 C 
ATOM      8  C   UNL     1     -38.563  21.501   0.192  0.00  0.00    +0.118 C 
ATOM      9  C   UNL     1     -35.633  22.615   4.155  0.00  0.00    +0.032 C 
ATOM     10  C   UNL     1     -35.384  24.023   4.745  0.00  0.00    +0.103 C 
ATOM     11  C   UNL     1     -34.928  23.979   2.348  0.00  0.00    +0.025 C 
ATOM     12  C   UNL     1     -37.493  24.966   3.559  0.00  0.00    +0.006 C 
ATOM     13  C   UNL     1     -37.809  24.267   0.429  0.00  0.00    +0.043 C 
ATOM     14  C   UNL     1     -36.688  24.855   4.875  0.00  0.00    +0.031 C 
ATOM     15  C   UNL     1     -38.113  22.253  -1.076  0.00  0.00    +0.121 C 
ATOM     16  C   UNL     1     -34.526  24.614   3.655  0.00  0.00    -0.020 C 
ATOM     17  C   UNL     1     -38.284  23.770  -0.935  0.00  0.00    +0.033 C 
ATOM     18  C   UNL     1     -39.896  22.101   0.690  0.00  0.00    +0.318 C 
ATOM     19  C   UNL     1     -38.649  19.991  -0.000  0.00  0.00    +0.014 C 
ATOM     20  C   UNL     1     -33.536  25.500   3.797  0.00  0.00    -0.007 C 
ENDROOT
BRANCH  10  21
ATOM     21  O   UNL     1     -34.736  23.945   6.000  0.00  0.00    -0.383 OA
ATOM     22  H   UNL     1     -35.394  23.794   6.695  0.00  0.00    +0.211 HD
ENDBRANCH  10  21
BRANCH  15  23
ATOM     23  O   UNL     1     -38.862  21.812  -2.207  0.00  0.00    -0.384 OA
ATOM     24  H   UNL     1     -38.581  22.307  -2.993  0.00  0.00    +0.210 HD
ENDBRANCH  15  23
BRANCH   7  26
ATOM     25  O   UNL     1     -34.573  20.175   1.849  0.00  0.00    -0.250 OA
ATOM     26  C   UNL     1     -35.719  20.560   2.027  0.00  0.00    +0.313 C 
BRANCH  26  27
ATOM     27  O   UNL     1     -36.687  19.824   2.625  0.00  0.00    -0.480 OA
ATOM     28  H   UNL     1     -37.137  19.159   2.141  0.00  0.00    +0.295 HD
ENDBRANCH  26  27
ENDBRANCH   7  26
TORSDOF 4
ENDMDL
MODEL 5
REMARK VINA RESULT:      -6.7      2.162      5.895
REMARK  Name = 193311
REMARK  4 active torsions:
REMARK  status: ('A' for Active; 'I' for Inactive)
REMARK    1  A    between atoms: C_7  and  C_26
REMARK    2  A    between atoms: C_10  and  O_21
REMARK    3  A    between atoms: C_15  and  O_23
REMARK    4  A    between atoms: C_26  and  O_27
REMARK                            x       y       z     vdW  Elec       q    Type
REMARK                         _______ _______ _______ _____ _____    ______ ____
ROOT
ATOM      1  O   UNL     1     -35.389  22.774  -0.083  0.00  0.00    -0.456 OA
ATOM      2  O   UNL     1     -36.571  21.463  -1.583  0.00  0.00    -0.250 OA
ATOM      3  C   UNL     1     -36.260  24.790   2.940  0.00  0.00    +0.020 C 
ATOM      4  C   UNL     1     -35.609  23.111   1.291  0.00  0.00    +0.137 C 
ATOM      5  C   UNL     1     -35.254  24.516   1.750  0.00  0.00    +0.038 C 
ATOM      6  C   UNL     1     -37.124  23.277   1.277  0.00  0.00    +0.060 C 
ATOM      7  C   UNL     1     -37.469  23.839   2.648  0.00  0.00    +0.103 C 
ATOM      8  C   UNL     1     -37.515  21.952   0.654  0.00  0.00    +0.118 C 
ATOM      9  C   UNL     1     -36.419  26.318   2.950  0.00  0.00    +0.032 C 
ATOM     10  C   UNL     1     -35.040  26.739   3.508  0.00  0.00    +0.103 C 
ATOM     11  C   UNL     1     -35.718  24.566   4.387  0.00  0.00    +0.025 C 
ATOM     12  C   UNL     1     -33.834  24.938   2.078  0.00  0.00    +0.006 C 
ATOM     13  C   UNL     1     -35.075  21.965   2.177  0.00  0.00    +0.043 C 
ATOM     14  C   UNL     1     -33.876  26.416   2.534  0.00  0.00    +0.031 C 
ATOM     15  C   UNL     1     -37.203  20.742   1.556  0.00  0.00    +0.121 C 
ATOM     16  C   UNL     1     -34.952  25.826   4.704  0.00  0.00    -0.020 C 
ATOM     17  C   UNL     1     -35.704  20.613   1.846  0.00  0.00    +0.033 C 
ATOM     18  C   UNL     1     -36.482  22.007  -0.493  0.00  0.00    +0.318 C 
ATOM     19  C   UNL     1     -38.949  21.966   0.137  0.00  0.00    +0.014 C 
ATOM     20  C   UNL     1     -34.360  26.081   5.875  0.00  0.00    -0.007 C 
ENDROOT
BRANCH  10  21
ATOM     21  O   UNL     1     -35.021  28.115   3.841  0.00  0.00    -0.383 OA
ATOM     22  H   UNL     1     -35.914  28.400   4.088  0.00  0.00    +0.211 HD
ENDBRANCH  10  21
BRANCH  15  23
ATOM     23  O   UNL     1     -37.655  19.536   0.943  0.00  0.00    -0.384 OA
ATOM     24  H   UNL     1     -37.418  18.781   1.504  0.00  0.00    +0.210 HD
ENDBRANCH  15  23
BRANCH   7  26
ATOM     25  O   UNL     1     -39.339  24.986   1.642  0.00  0.00    -0.250 OA
ATOM     26  C   UNL     1     -38.779  24.559   2.641  0.00  0.00    +0.313 C 
BRANCH  26  27
ATOM     27  O   UNL     1     -39.267  24.678   3.899  0.00  0.00    -0.480 OA
ATOM     28  H   UNL     1     -39.376  25.527   4.281  0.00  0.00    +0.295 HD
ENDBRANCH  26  27
ENDBRANCH   7  26
TORSDOF 4
ENDMDL
MODEL 6
REMARK VINA RESULT:      -6.5      2.401      3.762
REMARK  Name = 193311
REMARK  4 active torsions:
REMARK  status: ('A' for Active; 'I' for Inactive)
REMARK    1  A    between atoms: C_7  and  C_26
REMARK    2  A    between atoms: C_10  and  O_21
REMARK    3  A    between atoms: C_15  and  O_23
REMARK    4  A    between atoms: C_26  and  O_27
REMARK                            x       y       z     vdW  Elec       q    Type
REMARK                         _______ _______ _______ _____ _____    ______ ____
ROOT
ATOM      1  O   UNL     1     -33.138  23.605   0.335  0.00  0.00    -0.456 OA
ATOM      2  O   UNL     1     -33.911  25.615   1.190  0.00  0.00    -0.250 OA
ATOM      3  C   UNL     1     -34.123  20.018   0.684  0.00  0.00    +0.020 C 
ATOM      4  C   UNL     1     -33.782  22.356   0.066  0.00  0.00    +0.137 C 
ATOM      5  C   UNL     1     -33.003  21.077   0.327  0.00  0.00    +0.038 C 
ATOM      6  C   UNL     1     -34.710  22.279   1.272  0.00  0.00    +0.060 C 
ATOM      7  C   UNL     1     -35.315  20.884   1.212  0.00  0.00    +0.103 C 
ATOM      8  C   UNL     1     -35.389  23.628   1.152  0.00  0.00    +0.118 C 
ATOM      9  C   UNL     1     -33.402  19.002   1.584  0.00  0.00    +0.032 C 
ATOM     10  C   UNL     1     -32.515  18.284   0.541  0.00  0.00    +0.103 C 
ATOM     11  C   UNL     1     -34.593  19.073  -0.466  0.00  0.00    +0.025 C 
ATOM     12  C   UNL     1     -31.973  20.531  -0.644  0.00  0.00    +0.006 C 
ATOM     13  C   UNL     1     -34.483  22.441  -1.307  0.00  0.00    +0.043 C 
ATOM     14  C   UNL     1     -31.421  19.212  -0.053  0.00  0.00    +0.031 C 
ATOM     15  C   UNL     1     -36.284  23.748  -0.098  0.00  0.00    +0.121 C 
ATOM     16  C   UNL     1     -33.544  17.991  -0.520  0.00  0.00    -0.020 C 
ATOM     17  C   UNL     1     -35.482  23.593  -1.395  0.00  0.00    +0.033 C 
ATOM     18  C   UNL     1     -34.093  24.437   0.925  0.00  0.00    +0.318 C 
ATOM     19  C   UNL     1     -36.097  24.027   2.441  0.00  0.00    +0.014 C 
ATOM     20  C   UNL     1     -33.583  16.935  -1.340  0.00  0.00    -0.007 C 
ENDROOT
BRANCH  10  21
ATOM     21  O   UNL     1     -31.916  17.125   1.089  0.00  0.00    -0.383 OA
ATOM     22  H   UNL     1     -32.246  16.986   1.990  0.00  0.00    +0.211 HD
ENDBRANCH  10  21
BRANCH  15  23
ATOM     23  O   UNL     1     -36.944  25.012  -0.116  0.00  0.00    -0.384 OA
ATOM     24  H   UNL     1     -36.482  25.608  -0.727  0.00  0.00    +0.210 HD
ENDBRANCH  15  23
BRANCH   7  26
ATOM     25  O   UNL     1     -35.312  20.749   3.622  0.00  0.00    -0.250 OA
ATOM     26  C   UNL     1     -35.806  20.433   2.550  0.00  0.00    +0.313 C 
BRANCH  26  27
ATOM     27  O   UNL     1     -36.881  19.618   2.416  0.00  0.00    -0.480 OA
ATOM     28  H   UNL     1     -37.152  19.336   1.565  0.00  0.00    +0.295 HD
ENDBRANCH  26  27
ENDBRANCH   7  26
TORSDOF 4
ENDMDL
MODEL 7
REMARK VINA RESULT:      -6.4      1.763      2.266
REMARK  Name = 193311
REMARK  4 active torsions:
REMARK  status: ('A' for Active; 'I' for Inactive)
REMARK    1  A    between atoms: C_7  and  C_26
REMARK    2  A    between atoms: C_10  and  O_21
REMARK    3  A    between atoms: C_15  and  O_23
REMARK    4  A    between atoms: C_26  and  O_27
REMARK                            x       y       z     vdW  Elec       q    Type
REMARK                         _______ _______ _______ _____ _____    ______ ____
ROOT
ATOM      1  O   UNL     1     -32.704  25.025   1.318  0.00  0.00    -0.456 OA
ATOM      2  O   UNL     1     -31.324  26.747   2.021  0.00  0.00    -0.250 OA
ATOM      3  C   UNL     1     -35.839  23.445   2.598  0.00  0.00    +0.020 C 
ATOM      4  C   UNL     1     -34.099  24.764   1.504  0.00  0.00    +0.137 C 
ATOM      5  C   UNL     1     -34.539  23.322   1.705  0.00  0.00    +0.038 C 
ATOM      6  C   UNL     1     -34.258  25.228   2.947  0.00  0.00    +0.060 C 
ATOM      7  C   UNL     1     -35.668  24.813   3.340  0.00  0.00    +0.103 C 
ATOM      8  C   UNL     1     -33.660  26.616   2.831  0.00  0.00    +0.118 C 
ATOM      9  C   UNL     1     -35.892  22.113   3.363  0.00  0.00    +0.032 C 
ATOM     10  C   UNL     1     -36.299  21.151   2.223  0.00  0.00    +0.103 C 
ATOM     11  C   UNL     1     -37.212  23.385   1.858  0.00  0.00    +0.025 C 
ATOM     12  C   UNL     1     -34.712  22.350   0.553  0.00  0.00    +0.006 C 
ATOM     13  C   UNL     1     -34.900  25.566   0.457  0.00  0.00    +0.043 C 
ATOM     14  C   UNL     1     -35.195  21.004   1.142  0.00  0.00    +0.031 C 
ATOM     15  C   UNL     1     -34.501  27.567   1.958  0.00  0.00    +0.121 C 
ATOM     16  C   UNL     1     -37.462  21.914   1.641  0.00  0.00    -0.020 C 
ATOM     17  C   UNL     1     -34.619  27.067   0.514  0.00  0.00    +0.033 C 
ATOM     18  C   UNL     1     -32.405  26.181   2.042  0.00  0.00    +0.318 C 
ATOM     19  C   UNL     1     -33.308  27.200   4.194  0.00  0.00    +0.014 C 
ATOM     20  C   UNL     1     -38.563  21.404   1.080  0.00  0.00    -0.007 C 
ENDROOT
BRANCH  10  21
ATOM     21  O   UNL     1     -36.650  19.877   2.729  0.00  0.00    -0.383 OA
ATOM     22  H   UNL     1     -36.677  19.910   3.697  0.00  0.00    +0.211 HD
ENDBRANCH  10  21
BRANCH  15  23
ATOM     23  O   UNL     1     -33.923  28.870   1.944  0.00  0.00    -0.384 OA
ATOM     24  H   UNL     1     -34.617  29.530   1.788  0.00  0.00    +0.210 HD
ENDBRANCH  15  23
BRANCH   7  26
ATOM     25  O   UNL     1     -34.934  24.344   5.590  0.00  0.00    -0.250 OA
ATOM     26  C   UNL     1     -35.819  24.688   4.821  0.00  0.00    +0.313 C 
BRANCH  26  27
ATOM     27  O   UNL     1     -37.080  25.007   5.203  0.00  0.00    -0.480 OA
ATOM     28  H   UNL     1     -37.583  24.403   5.712  0.00  0.00    +0.295 HD
ENDBRANCH  26  27
ENDBRANCH   7  26
TORSDOF 4
ENDMDL
MODEL 8
REMARK VINA RESULT:      -6.3      2.315      5.354
REMARK  Name = 193311
REMARK  4 active torsions:
REMARK  status: ('A' for Active; 'I' for Inactive)
REMARK    1  A    between atoms: C_7  and  C_26
REMARK    2  A    between atoms: C_10  and  O_21
REMARK    3  A    between atoms: C_15  and  O_23
REMARK    4  A    between atoms: C_26  and  O_27
REMARK                            x       y       z     vdW  Elec       q    Type
REMARK                         _______ _______ _______ _____ _____    ______ ____
ROOT
ATOM      1  O   UNL     1     -35.269  23.265  -1.298  0.00  0.00    -0.456 OA
ATOM      2  O   UNL     1     -34.635  21.667  -2.851  0.00  0.00    -0.250 OA
ATOM      3  C   UNL     1     -35.918  23.280   2.382  0.00  0.00    +0.020 C 
ATOM      4  C   UNL     1     -35.035  23.396   0.108  0.00  0.00    +0.137 C 
ATOM      5  C   UNL     1     -36.152  23.959   0.972  0.00  0.00    +0.038 C 
ATOM      6  C   UNL     1     -35.167  21.937   0.528  0.00  0.00    +0.060 C 
ATOM      7  C   UNL     1     -35.139  21.964   2.050  0.00  0.00    +0.103 C 
ATOM      8  C   UNL     1     -34.188  21.307  -0.442  0.00  0.00    +0.118 C 
ATOM      9  C   UNL     1     -37.316  23.251   3.018  0.00  0.00    +0.032 C 
ATOM     10  C   UNL     1     -37.507  24.751   3.342  0.00  0.00    +0.103 C 
ATOM     11  C   UNL     1     -35.152  24.121   3.451  0.00  0.00    +0.025 C 
ATOM     12  C   UNL     1     -36.435  25.445   1.080  0.00  0.00    +0.006 C 
ATOM     13  C   UNL     1     -33.642  24.025   0.325  0.00  0.00    +0.043 C 
ATOM     14  C   UNL     1     -37.613  25.630   2.066  0.00  0.00    +0.031 C 
ATOM     15  C   UNL     1     -32.726  21.719  -0.181  0.00  0.00    +0.121 C 
ATOM     16  C   UNL     1     -36.198  25.038   4.032  0.00  0.00    -0.020 C 
ATOM     17  C   UNL     1     -32.519  23.230  -0.338  0.00  0.00    +0.033 C 
ATOM     18  C   UNL     1     -34.707  22.049  -1.693  0.00  0.00    +0.318 C 
ATOM     19  C   UNL     1     -34.380  19.799  -0.547  0.00  0.00    +0.014 C 
ATOM     20  C   UNL     1     -35.982  25.903   5.029  0.00  0.00    -0.007 C 
ENDROOT
BRANCH  10  21
ATOM     21  O   UNL     1     -38.641  24.958   4.163  0.00  0.00    -0.383 OA
ATOM     22  H   UNL     1     -38.957  25.868   4.056  0.00  0.00    +0.211 HD
ENDBRANCH  10  21
BRANCH  15  23
ATOM     23  O   UNL     1     -31.851  21.043  -1.082  0.00  0.00    -0.384 OA
ATOM     24  H   UNL     1     -31.029  21.549  -1.174  0.00  0.00    +0.210 HD
ENDBRANCH  15  23
BRANCH   7  26
ATOM     25  O   UNL     1     -36.563  20.015   2.054  0.00  0.00    -0.250 OA
ATOM     26  C   UNL     1     -35.781  20.749   2.639  0.00  0.00    +0.313 C 
BRANCH  26  27
ATOM     27  O   UNL     1     -35.380  20.570   3.921  0.00  0.00    -0.480 OA
ATOM     28  H   UNL     1     -34.563  20.148   4.102  0.00  0.00    +0.295 HD
ENDBRANCH  26  27
ENDBRANCH   7  26
TORSDOF 4
ENDMDL
MODEL 9
REMARK VINA RESULT:      -6.3      1.692      5.976
REMARK  Name = 193311
REMARK  4 active torsions:
REMARK  status: ('A' for Active; 'I' for Inactive)
REMARK    1  A    between atoms: C_7  and  C_26
REMARK    2  A    between atoms: C_10  and  O_21
REMARK    3  A    between atoms: C_15  and  O_23
REMARK    4  A    between atoms: C_26  and  O_27
REMARK                            x       y       z     vdW  Elec       q    Type
REMARK                         _______ _______ _______ _____ _____    ______ ____
ROOT
ATOM      1  O   UNL     1     -34.480  19.936   2.654  0.00  0.00    -0.456 OA
ATOM      2  O   UNL     1     -33.306  18.322   1.479  0.00  0.00    -0.250 OA
ATOM      3  C   UNL     1     -35.453  23.489   2.031  0.00  0.00    +0.020 C 
ATOM      4  C   UNL     1     -35.256  21.064   2.238  0.00  0.00    +0.137 C 
ATOM      5  C   UNL     1     -35.188  22.331   3.076  0.00  0.00    +0.038 C 
ATOM      6  C   UNL     1     -34.404  21.546   1.069  0.00  0.00    +0.060 C 
ATOM      7  C   UNL     1     -35.019  22.876   0.658  0.00  0.00    +0.103 C 
ATOM      8  C   UNL     1     -34.297  20.253   0.287  0.00  0.00    +0.118 C 
ATOM      9  C   UNL     1     -34.734  24.706   2.635  0.00  0.00    +0.032 C 
ATOM     10  C   UNL     1     -35.677  25.031   3.816  0.00  0.00    +0.103 C 
ATOM     11  C   UNL     1     -36.908  24.049   1.953  0.00  0.00    +0.025 C 
ATOM     12  C   UNL     1     -35.978  22.509   4.358  0.00  0.00    +0.006 C 
ATOM     13  C   UNL     1     -36.676  20.584   1.869  0.00  0.00    +0.043 C 
ATOM     14  C   UNL     1     -35.676  23.925   4.905  0.00  0.00    +0.031 C 
ATOM     15  C   UNL     1     -35.643  19.786  -0.300  0.00  0.00    +0.121 C 
ATOM     16  C   UNL     1     -37.004  25.020   3.101  0.00  0.00    -0.020 C 
ATOM     17  C   UNL     1     -36.678  19.500   0.793  0.00  0.00    +0.033 C 
ATOM     18  C   UNL     1     -33.939  19.365   1.500  0.00  0.00    +0.318 C 
ATOM     19  C   UNL     1     -33.173  20.300  -0.741  0.00  0.00    +0.014 C 
ATOM     20  C   UNL     1     -38.076  25.771   3.375  0.00  0.00    -0.007 C 
ENDROOT
BRANCH  10  21
ATOM     21  O   UNL     1     -35.356  26.280   4.400  0.00  0.00    -0.383 OA
ATOM     22  H   UNL     1     -35.789  26.990   3.902  0.00  0.00    +0.211 HD
ENDBRANCH  10  21
BRANCH  15  23
ATOM     23  O   UNL     1     -35.462  18.604  -1.078  0.00  0.00    -0.384 OA
ATOM     24  H   UNL     1     -36.144  18.564  -1.767  0.00  0.00    +0.210 HD
ENDBRANCH  15  23
BRANCH   7  26
ATOM     25  O   UNL     1     -32.827  23.656   0.018  0.00  0.00    -0.250 OA
ATOM     26  C   UNL     1     -34.043  23.738  -0.075  0.00  0.00    +0.313 C 
BRANCH  26  27
ATOM     27  O   UNL     1     -34.689  24.632  -0.863  0.00  0.00    -0.480 OA
ATOM     28  H   UNL     1     -35.016  24.368  -1.700  0.00  0.00    +0.295 HD
ENDBRANCH  26  27
ENDBRANCH   7  26
TORSDOF 4
ENDMDL
