MODEL 1
REMARK VINA RESULT:      -7.1      0.000      0.000
REMARK  Name = 56640146
REMARK  6 active torsions:
REMARK  status: ('A' for Active; 'I' for Inactive)
REMARK    1  A    between atoms: C_1  and  C_32
REMARK    2  A    between atoms: C_2  and  O_36
REMARK    3  A    between atoms: C_3  and  C_7
REMARK    4  A    between atoms: C_5  and  N_25
REMARK    5  A    between atoms: C_15  and  N_17
REMARK    6  A    between atoms: N_17  and  S_19
REMARK                            x       y       z     vdW  Elec       q    Type
REMARK                         _______ _______ _______ _____ _____    ______ ____
ROOT
ATOM      1  C   UNL     1     -37.777  23.785   1.707  0.00  0.00    +0.012 C 
ATOM      2  C   UNL     1     -36.926  24.727   2.285  0.00  0.00    +0.135 C 
ATOM      3  C   UNL     1     -35.564  24.452   2.410  0.00  0.00    +0.035 C 
ATOM      4  C   UNL     1     -37.268  22.568   1.256  0.00  0.00    +0.014 C 
ATOM      5  C   UNL     1     -35.906  22.293   1.382  0.00  0.00    +0.059 C 
ATOM      6  C   UNL     1     -35.054  23.235   1.959  0.00  0.00    +0.018 C 
ENDROOT
BRANCH   3   7
ATOM      7  C   UNL     1     -34.663  25.415   3.006  0.00  0.00    +0.003 C 
ATOM      8  C   UNL     1     -34.503  25.457   4.390  0.00  0.00    +0.000 C 
ATOM      9  C   UNL     1     -33.632  26.388   4.982  0.00  0.00    +0.000 C 
ATOM     10  C   UNL     1     -33.958  26.300   2.194  0.00  0.00    +0.000 C 
ATOM     11  C   UNL     1     -32.915  27.287   4.158  0.00  0.00    +0.001 C 
ATOM     12  C   UNL     1     -33.089  27.230   2.765  0.00  0.00    +0.000 C 
ATOM     13  C   UNL     1     -33.458  26.444   6.375  0.00  0.00    +0.001 C 
ATOM     14  C   UNL     1     -32.044  28.216   4.751  0.00  0.00    +0.016 C 
ATOM     15  C   UNL     1     -31.884  28.258   6.136  0.00  0.00    +0.064 C 
ATOM     16  C   UNL     1     -32.589  27.374   6.947  0.00  0.00    +0.016 C 
BRANCH  15  17
ATOM     17  N   UNL     1     -30.996  29.210   6.722  0.00  0.00    -0.219 N 
ATOM     18  H   UNL     1     -31.339  30.038   7.129  0.00  0.00    +0.173 HD
BRANCH  17  19
ATOM     19  S   UNL     1     -29.307  28.869   6.699  0.00  0.00    +0.056 S 
ATOM     20  O   UNL     1     -28.700  29.479   7.867  0.00  0.00    -0.154 OA
ATOM     21  O   UNL     1     -29.064  27.475   6.386  0.00  0.00    -0.154 OA
ATOM     22  C   UNL     1     -28.811  29.839   5.294  0.00  0.00    +0.200 C 
ENDBRANCH  17  19
ENDBRANCH  15  17
ENDBRANCH   3   7
BRANCH   5  25
ATOM     23  O   UNL     1     -35.017  20.137   3.076  0.00  0.00    -0.251 OA
ATOM     24  O   UNL     1     -33.879  17.514  -0.510  0.00  0.00    -0.270 OA
ATOM     25  N   UNL     1     -35.376  21.028   0.912  0.00  0.00    -0.220 N 
ATOM     26  N   UNL     1     -34.399  18.889   1.275  0.00  0.00    -0.235 N 
ATOM     27  C   UNL     1     -34.930  20.055   1.847  0.00  0.00    +0.318 C 
ATOM     28  C   UNL     1     -35.318  20.746  -0.449  0.00  0.00    +0.078 C 
ATOM     29  C   UNL     1     -34.840  19.613  -0.965  0.00  0.00    +0.075 C 
ATOM     30  C   UNL     1     -34.325  18.569  -0.067  0.00  0.00    +0.254 C 
ATOM     31  H   UNL     1     -34.036  18.222   1.902  0.00  0.00    +0.159 HD
ENDBRANCH   5  25
BRANCH   1  32
ATOM     32  C   UNL     1     -39.238  24.061   1.564  0.00  0.00    +0.022 C 
ATOM     33  C   UNL     1     -40.035  22.749   1.291  0.00  0.00    +0.004 C 
ATOM     34  C   UNL     1     -39.923  24.714   2.809  0.00  0.00    +0.004 C 
ATOM     35  C   UNL     1     -39.514  25.036   0.378  0.00  0.00    +0.004 C 
ENDBRANCH   1  32
BRANCH   2  36
ATOM     36  O   UNL     1     -37.436  25.915   2.724  0.00  0.00    -0.472 OA
ATOM     37  C   UNL     1     -37.279  27.040   1.862  0.00  0.00    +0.252 C 
ENDBRANCH   2  36
TORSDOF 6
ENDMDL
MODEL 2
REMARK VINA RESULT:      -7.0      3.625      9.565
REMARK  Name = 56640146
REMARK  6 active torsions:
REMARK  status: ('A' for Active; 'I' for Inactive)
REMARK    1  A    between atoms: C_1  and  C_32
REMARK    2  A    between atoms: C_2  and  O_36
REMARK    3  A    between atoms: C_3  and  C_7
REMARK    4  A    between atoms: C_5  and  N_25
REMARK    5  A    between atoms: C_15  and  N_17
REMARK    6  A    between atoms: N_17  and  S_19
REMARK                            x       y       z     vdW  Elec       q    Type
REMARK                         _______ _______ _______ _____ _____    ______ ____
ROOT
ATOM      1  C   UNL     1     -32.881  30.058   3.132  0.00  0.00    +0.012 C 
ATOM      2  C   UNL     1     -33.763  28.984   3.016  0.00  0.00    +0.135 C 
ATOM      3  C   UNL     1     -33.559  27.829   3.771  0.00  0.00    +0.035 C 
ATOM      4  C   UNL     1     -31.794  29.978   4.001  0.00  0.00    +0.014 C 
ATOM      5  C   UNL     1     -31.588  28.822   4.755  0.00  0.00    +0.059 C 
ATOM      6  C   UNL     1     -32.471  27.748   4.640  0.00  0.00    +0.018 C 
ENDROOT
BRANCH   3   7
ATOM      7  C   UNL     1     -34.462  26.703   3.667  0.00  0.00    +0.003 C 
ATOM      8  C   UNL     1     -34.241  25.718   2.705  0.00  0.00    +0.000 C 
ATOM      9  C   UNL     1     -35.110  24.620   2.592  0.00  0.00    +0.000 C 
ATOM     10  C   UNL     1     -35.552  26.606   4.527  0.00  0.00    +0.000 C 
ATOM     11  C   UNL     1     -36.218  24.521   3.466  0.00  0.00    +0.001 C 
ATOM     12  C   UNL     1     -36.425  25.522   4.429  0.00  0.00    +0.000 C 
ATOM     13  C   UNL     1     -34.902  23.618   1.629  0.00  0.00    +0.001 C 
ATOM     14  C   UNL     1     -37.086  23.422   3.353  0.00  0.00    +0.016 C 
ATOM     15  C   UNL     1     -36.865  22.437   2.391  0.00  0.00    +0.064 C 
ATOM     16  C   UNL     1     -35.775  22.534   1.531  0.00  0.00    +0.016 C 
BRANCH  15  17
ATOM     17  N   UNL     1     -37.758  21.328   2.288  0.00  0.00    -0.219 N 
ATOM     18  H   UNL     1     -37.571  20.483   2.758  0.00  0.00    +0.173 HD
BRANCH  17  19
ATOM     19  S   UNL     1     -39.171  21.508   1.319  0.00  0.00    +0.056 S 
ATOM     20  O   UNL     1     -40.312  21.034   2.080  0.00  0.00    -0.154 OA
ATOM     21  O   UNL     1     -39.200  22.808   0.681  0.00  0.00    -0.154 OA
ATOM     22  C   UNL     1     -38.847  20.291   0.063  0.00  0.00    +0.200 C 
ENDBRANCH  17  19
ENDBRANCH  15  17
ENDBRANCH   3   7
BRANCH   5  25
ATOM     23  O   UNL     1     -31.559  29.801   7.466  0.00  0.00    -0.251 OA
ATOM     24  O   UNL     1     -27.219  28.470   8.117  0.00  0.00    -0.270 OA
ATOM     25  N   UNL     1     -30.458  28.738   5.660  0.00  0.00    -0.220 N 
ATOM     26  N   UNL     1     -29.383  29.191   7.732  0.00  0.00    -0.235 N 
ATOM     27  C   UNL     1     -30.551  29.295   6.964  0.00  0.00    +0.318 C 
ATOM     28  C   UNL     1     -29.287  28.096   5.271  0.00  0.00    +0.078 C 
ATOM     29  C   UNL     1     -28.201  27.979   6.036  0.00  0.00    +0.075 C 
ATOM     30  C   UNL     1     -28.202  28.560   7.387  0.00  0.00    +0.254 C 
ATOM     31  H   UNL     1     -29.405  29.615   8.621  0.00  0.00    +0.159 HD
ENDBRANCH   5  25
BRANCH   1  32
ATOM     32  C   UNL     1     -33.084  31.304   2.333  0.00  0.00    +0.022 C 
ATOM     33  C   UNL     1     -32.675  31.090   0.843  0.00  0.00    +0.004 C 
ATOM     34  C   UNL     1     -34.551  31.842   2.290  0.00  0.00    +0.004 C 
ATOM     35  C   UNL     1     -32.225  32.479   2.893  0.00  0.00    +0.004 C 
ENDBRANCH   1  32
BRANCH   2  36
ATOM     36  O   UNL     1     -34.825  29.074   2.162  0.00  0.00    -0.472 OA
ATOM     37  C   UNL     1     -34.679  28.456   0.886  0.00  0.00    +0.252 C 
ENDBRANCH   2  36
TORSDOF 6
ENDMDL
MODEL 3
REMARK VINA RESULT:      -6.7      3.992      6.956
REMARK  Name = 56640146
REMARK  6 active torsions:
REMARK  status: ('A' for Active; 'I' for Inactive)
REMARK    1  A    between atoms: C_1  and  C_32
REMARK    2  A    between atoms: C_2  and  O_36
REMARK    3  A    between atoms: C_3  and  C_7
REMARK    4  A    between atoms: C_5  and  N_25
REMARK    5  A    between atoms: C_15  and  N_17
REMARK    6  A    between atoms: N_17  and  S_19
REMARK                            x       y       z     vdW  Elec       q    Type
REMARK                         _______ _______ _______ _____ _____    ______ ____
ROOT
ATOM      1  C   UNL     1     -35.128  17.273  -0.705  0.00  0.00    +0.012 C 
ATOM      2  C   UNL     1     -34.973  18.455   0.018  0.00  0.00    +0.135 C 
ATOM      3  C   UNL     1     -36.093  19.200   0.389  0.00  0.00    +0.035 C 
ATOM      4  C   UNL     1     -36.404  16.835  -1.061  0.00  0.00    +0.014 C 
ATOM      5  C   UNL     1     -37.525  17.580  -0.692  0.00  0.00    +0.059 C 
ATOM      6  C   UNL     1     -37.369  18.762   0.033  0.00  0.00    +0.018 C 
ENDROOT
BRANCH   3   7
ATOM      7  C   UNL     1     -35.955  20.428   1.140  0.00  0.00    +0.003 C 
ATOM      8  C   UNL     1     -35.685  20.383   2.507  0.00  0.00    +0.000 C 
ATOM      9  C   UNL     1     -35.549  21.567   3.250  0.00  0.00    +0.000 C 
ATOM     10  C   UNL     1     -36.091  21.655   0.496  0.00  0.00    +0.000 C 
ATOM     11  C   UNL     1     -35.688  22.814   2.596  0.00  0.00    +0.001 C 
ATOM     12  C   UNL     1     -35.958  22.841   1.218  0.00  0.00    +0.000 C 
ATOM     13  C   UNL     1     -35.278  21.540   4.628  0.00  0.00    +0.001 C 
ATOM     14  C   UNL     1     -35.551  23.999   3.339  0.00  0.00    +0.016 C 
ATOM     15  C   UNL     1     -35.282  23.953   4.707  0.00  0.00    +0.064 C 
ATOM     16  C   UNL     1     -35.145  22.727   5.351  0.00  0.00    +0.016 C 
BRANCH  15  17
ATOM     17  N   UNL     1     -35.147  25.166   5.448  0.00  0.00    -0.219 N 
ATOM     18  H   UNL     1     -35.706  25.340   6.240  0.00  0.00    +0.173 HD
BRANCH  17  19
ATOM     19  S   UNL     1     -33.978  26.316   4.920  0.00  0.00    +0.056 S 
ATOM     20  O   UNL     1     -32.964  25.620   4.151  0.00  0.00    -0.154 OA
ATOM     21  O   UNL     1     -34.621  27.501   4.388  0.00  0.00    -0.154 OA
ATOM     22  C   UNL     1     -33.238  26.749   6.478  0.00  0.00    +0.200 C 
ENDBRANCH  17  19
ENDBRANCH  15  17
ENDBRANCH   3   7
BRANCH   5  25
ATOM     23  O   UNL     1     -38.645  15.013  -0.011  0.00  0.00    -0.251 OA
ATOM     24  O   UNL     1     -42.588  15.932  -2.164  0.00  0.00    -0.270 OA
ATOM     25  N   UNL     1     -38.851  17.125  -1.060  0.00  0.00    -0.220 N 
ATOM     26  N   UNL     1     -40.562  15.474  -1.147  0.00  0.00    -0.235 N 
ATOM     27  C   UNL     1     -39.278  15.817  -0.701  0.00  0.00    +0.318 C 
ATOM     28  C   UNL     1     -39.722  17.965  -1.747  0.00  0.00    +0.078 C 
ATOM     29  C   UNL     1     -40.954  17.624  -2.129  0.00  0.00    +0.075 C 
ATOM     30  C   UNL     1     -41.459  16.277  -1.827  0.00  0.00    +0.254 C 
ATOM     31  H   UNL     1     -40.860  14.556  -0.955  0.00  0.00    +0.159 HD
ENDBRANCH   5  25
BRANCH   1  32
ATOM     32  C   UNL     1     -33.941  16.462  -1.110  0.00  0.00    +0.022 C 
ATOM     33  C   UNL     1     -33.228  17.085  -2.348  0.00  0.00    +0.004 C 
ATOM     34  C   UNL     1     -32.830  16.310  -0.019  0.00  0.00    +0.004 C 
ATOM     35  C   UNL     1     -34.355  15.006  -1.488  0.00  0.00    +0.004 C 
ENDBRANCH   1  32
BRANCH   2  36
ATOM     36  O   UNL     1     -33.719  18.874   0.361  0.00  0.00    -0.472 OA
ATOM     37  C   UNL     1     -33.156  19.926  -0.419  0.00  0.00    +0.252 C 
ENDBRANCH   2  36
TORSDOF 6
ENDMDL
MODEL 4
REMARK VINA RESULT:      -6.7      2.938      5.806
REMARK  Name = 56640146
REMARK  6 active torsions:
REMARK  status: ('A' for Active; 'I' for Inactive)
REMARK    1  A    between atoms: C_1  and  C_32
REMARK    2  A    between atoms: C_2  and  O_36
REMARK    3  A    between atoms: C_3  and  C_7
REMARK    4  A    between atoms: C_5  and  N_25
REMARK    5  A    between atoms: C_15  and  N_17
REMARK    6  A    between atoms: N_17  and  S_19
REMARK                            x       y       z     vdW  Elec       q    Type
REMARK                         _______ _______ _______ _____ _____    ______ ____
ROOT
ATOM      1  C   UNL     1     -38.183  23.432   1.823  0.00  0.00    +0.012 C 
ATOM      2  C   UNL     1     -37.094  23.879   2.571  0.00  0.00    +0.135 C 
ATOM      3  C   UNL     1     -37.161  25.103   3.238  0.00  0.00    +0.035 C 
ATOM      4  C   UNL     1     -39.338  24.209   1.738  0.00  0.00    +0.014 C 
ATOM      5  C   UNL     1     -39.404  25.434   2.403  0.00  0.00    +0.059 C 
ATOM      6  C   UNL     1     -38.316  25.880   3.153  0.00  0.00    +0.018 C 
ENDROOT
BRANCH   3   7
ATOM      7  C   UNL     1     -36.044  25.585   4.020  0.00  0.00    +0.003 C 
ATOM      8  C   UNL     1     -35.231  26.603   3.522  0.00  0.00    +0.000 C 
ATOM      9  C   UNL     1     -34.142  27.081   4.271  0.00  0.00    +0.000 C 
ATOM     10  C   UNL     1     -35.782  25.032   5.271  0.00  0.00    +0.000 C 
ATOM     11  C   UNL     1     -33.875  26.518   5.541  0.00  0.00    +0.001 C 
ATOM     12  C   UNL     1     -34.705  25.494   6.027  0.00  0.00    +0.000 C 
ATOM     13  C   UNL     1     -33.312  28.105   3.785  0.00  0.00    +0.001 C 
ATOM     14  C   UNL     1     -32.787  26.997   6.290  0.00  0.00    +0.016 C 
ATOM     15  C   UNL     1     -31.973  28.014   5.791  0.00  0.00    +0.064 C 
ATOM     16  C   UNL     1     -32.235  28.568   4.541  0.00  0.00    +0.016 C 
BRANCH  15  17
ATOM     17  N   UNL     1     -30.870  28.488   6.563  0.00  0.00    -0.219 N 
ATOM     18  H   UNL     1     -31.012  29.077   7.340  0.00  0.00    +0.173 HD
BRANCH  17  19
ATOM     19  S   UNL     1     -29.284  28.002   6.100  0.00  0.00    +0.056 S 
ATOM     20  O   UNL     1     -28.813  27.010   7.048  0.00  0.00    -0.154 OA
ATOM     21  O   UNL     1     -29.214  27.751   4.675  0.00  0.00    -0.154 OA
ATOM     22  C   UNL     1     -28.386  29.501   6.435  0.00  0.00    +0.200 C 
ENDBRANCH  17  19
ENDBRANCH  15  17
ENDBRANCH   3   7
BRANCH   5  25
ATOM     23  O   UNL     1     -40.232  26.927   0.082  0.00  0.00    -0.251 OA
ATOM     24  O   UNL     1     -43.993  28.502   2.181  0.00  0.00    -0.270 OA
ATOM     25  N   UNL     1     -40.605  26.241   2.316  0.00  0.00    -0.220 N 
ATOM     26  N   UNL     1     -42.053  27.746   1.175  0.00  0.00    -0.235 N 
ATOM     27  C   UNL     1     -40.887  26.968   1.127  0.00  0.00    +0.318 C 
ATOM     28  C   UNL     1     -41.500  26.297   3.380  0.00  0.00    +0.078 C 
ATOM     29  C   UNL     1     -42.621  27.018   3.386  0.00  0.00    +0.075 C 
ATOM     30  C   UNL     1     -42.968  27.827   2.208  0.00  0.00    +0.254 C 
ATOM     31  H   UNL     1     -42.242  28.298   0.382  0.00  0.00    +0.159 HD
ENDBRANCH   5  25
BRANCH   1  32
ATOM     32  C   UNL     1     -38.131  22.124   1.104  0.00  0.00    +0.022 C 
ATOM     33  C   UNL     1     -37.420  22.268  -0.276  0.00  0.00    +0.004 C 
ATOM     34  C   UNL     1     -37.370  20.979   1.849  0.00  0.00    +0.004 C 
ATOM     35  C   UNL     1     -39.564  21.569   0.840  0.00  0.00    +0.004 C 
ENDBRANCH   1  32
BRANCH   2  36
ATOM     36  O   UNL     1     -35.968  23.110   2.648  0.00  0.00    -0.472 OA
ATOM     37  C   UNL     1     -34.868  23.496   1.827  0.00  0.00    +0.252 C 
ENDBRANCH   2  36
TORSDOF 6
ENDMDL
MODEL 5
REMARK VINA RESULT:      -6.6      3.505      8.637
REMARK  Name = 56640146
REMARK  6 active torsions:
REMARK  status: ('A' for Active; 'I' for Inactive)
REMARK    1  A    between atoms: C_1  and  C_32
REMARK    2  A    between atoms: C_2  and  O_36
REMARK    3  A    between atoms: C_3  and  C_7
REMARK    4  A    between atoms: C_5  and  N_25
REMARK    5  A    between atoms: C_15  and  N_17
REMARK    6  A    between atoms: N_17  and  S_19
REMARK                            x       y       z     vdW  Elec       q    Type
REMARK                         _______ _______ _______ _____ _____    ______ ____
ROOT
ATOM      1  C   UNL     1     -37.317  24.498   2.372  0.00  0.00    +0.012 C 
ATOM      2  C   UNL     1     -36.740  23.330   1.874  0.00  0.00    +0.135 C 
ATOM      3  C   UNL     1     -35.404  23.037   2.154  0.00  0.00    +0.035 C 
ATOM      4  C   UNL     1     -36.559  25.375   3.148  0.00  0.00    +0.014 C 
ATOM      5  C   UNL     1     -35.224  25.083   3.428  0.00  0.00    +0.059 C 
ATOM      6  C   UNL     1     -34.647  23.914   2.930  0.00  0.00    +0.018 C 
ENDROOT
BRANCH   3   7
ATOM      7  C   UNL     1     -34.786  21.831   1.649  0.00  0.00    +0.003 C 
ATOM      8  C   UNL     1     -33.784  21.913   0.683  0.00  0.00    +0.000 C 
ATOM      9  C   UNL     1     -33.175  20.750   0.182  0.00  0.00    +0.000 C 
ATOM     10  C   UNL     1     -35.194  20.589   2.128  0.00  0.00    +0.000 C 
ATOM     11  C   UNL     1     -33.589  19.487   0.668  0.00  0.00    +0.001 C 
ATOM     12  C   UNL     1     -34.600  19.424   1.641  0.00  0.00    +0.000 C 
ATOM     13  C   UNL     1     -32.164  20.814  -0.791  0.00  0.00    +0.001 C 
ATOM     14  C   UNL     1     -32.980  18.325   0.167  0.00  0.00    +0.016 C 
ATOM     15  C   UNL     1     -31.977  18.407  -0.799  0.00  0.00    +0.064 C 
ATOM     16  C   UNL     1     -31.570  19.649  -1.278  0.00  0.00    +0.016 C 
BRANCH  15  17
ATOM     17  N   UNL     1     -31.369  17.216  -1.299  0.00  0.00    -0.219 N 
ATOM     18  H   UNL     1     -31.390  17.002  -2.259  0.00  0.00    +0.173 HD
BRANCH  17  19
ATOM     19  S   UNL     1     -30.597  16.164  -0.174  0.00  0.00    +0.056 S 
ATOM     20  O   UNL     1     -29.974  16.972   0.858  0.00  0.00    -0.154 OA
ATOM     21  O   UNL     1     -31.463  15.058   0.180  0.00  0.00    -0.154 OA
ATOM     22  C   UNL     1     -29.285  15.526  -1.191  0.00  0.00    +0.200 C 
ENDBRANCH  17  19
ENDBRANCH  15  17
ENDBRANCH   3   7
BRANCH   5  25
ATOM     23  O   UNL     1     -34.074  27.555   2.493  0.00  0.00    -0.251 OA
ATOM     24  O   UNL     1     -32.216  28.477   6.583  0.00  0.00    -0.270 OA
ATOM     25  N   UNL     1     -34.436  25.994   4.235  0.00  0.00    -0.220 N 
ATOM     26  N   UNL     1     -33.108  27.948   4.516  0.00  0.00    -0.235 N 
ATOM     27  C   UNL     1     -33.886  27.166   3.649  0.00  0.00    +0.318 C 
ATOM     28  C   UNL     1     -34.230  25.743   5.588  0.00  0.00    +0.078 C 
ATOM     29  C   UNL     1     -33.515  26.523   6.399  0.00  0.00    +0.075 C 
ATOM     30  C   UNL     1     -32.881  27.737   5.863  0.00  0.00    +0.254 C 
ATOM     31  H   UNL     1     -32.674  28.738   4.120  0.00  0.00    +0.159 HD
ENDBRANCH   5  25
BRANCH   1  32
ATOM     32  C   UNL     1     -38.744  24.829   2.085  0.00  0.00    +0.022 C 
ATOM     33  C   UNL     1     -38.917  25.368   0.632  0.00  0.00    +0.004 C 
ATOM     34  C   UNL     1     -39.747  23.634   2.208  0.00  0.00    +0.004 C 
ATOM     35  C   UNL     1     -39.278  25.922   3.061  0.00  0.00    +0.004 C 
ENDBRANCH   1  32
BRANCH   2  36
ATOM     36  O   UNL     1     -37.490  22.479   1.116  0.00  0.00    -0.472 OA
ATOM     37  C   UNL     1     -37.278  22.514  -0.293  0.00  0.00    +0.252 C 
ENDBRANCH   2  36
TORSDOF 6
ENDMDL
MODEL 6
REMARK VINA RESULT:      -6.6      1.939      3.237
REMARK  Name = 56640146
REMARK  6 active torsions:
REMARK  status: ('A' for Active; 'I' for Inactive)
REMARK    1  A    between atoms: C_1  and  C_32
REMARK    2  A    between atoms: C_2  and  O_36
REMARK    3  A    between atoms: C_3  and  C_7
REMARK    4  A    between atoms: C_5  and  N_25
REMARK    5  A    between atoms: C_15  and  N_17
REMARK    6  A    between atoms: N_17  and  S_19
REMARK                            x       y       z     vdW  Elec       q    Type
REMARK                         _______ _______ _______ _____ _____    ______ ____
ROOT
ATOM      1  C   UNL     1     -37.351  20.912   0.581  0.00  0.00    +0.012 C 
ATOM      2  C   UNL     1     -36.953  21.935   1.442  0.00  0.00    +0.135 C 
ATOM      3  C   UNL     1     -35.702  21.883   2.057  0.00  0.00    +0.035 C 
ATOM      4  C   UNL     1     -36.498  19.836   0.336  0.00  0.00    +0.014 C 
ATOM      5  C   UNL     1     -35.247  19.783   0.951  0.00  0.00    +0.059 C 
ATOM      6  C   UNL     1     -34.849  20.807   1.811  0.00  0.00    +0.018 C 
ENDROOT
BRANCH   3   7
ATOM      7  C   UNL     1     -35.269  22.933   2.953  0.00  0.00    +0.003 C 
ATOM      8  C   UNL     1     -34.523  24.004   2.463  0.00  0.00    +0.000 C 
ATOM      9  C   UNL     1     -34.095  25.031   3.321  0.00  0.00    +0.000 C 
ATOM     10  C   UNL     1     -35.599  22.873   4.304  0.00  0.00    +0.000 C 
ATOM     11  C   UNL     1     -34.429  24.970   4.694  0.00  0.00    +0.001 C 
ATOM     12  C   UNL     1     -35.182  23.884   5.170  0.00  0.00    +0.000 C 
ATOM     13  C   UNL     1     -33.343  26.118   2.845  0.00  0.00    +0.001 C 
ATOM     14  C   UNL     1     -34.002  25.998   5.552  0.00  0.00    +0.016 C 
ATOM     15  C   UNL     1     -33.255  27.069   5.061  0.00  0.00    +0.064 C 
ATOM     16  C   UNL     1     -32.926  27.129   3.711  0.00  0.00    +0.016 C 
BRANCH  15  17
ATOM     17  N   UNL     1     -32.827  28.104   5.947  0.00  0.00    -0.219 N 
ATOM     18  H   UNL     1     -33.448  28.499   6.600  0.00  0.00    +0.173 HD
BRANCH  17  19
ATOM     19  S   UNL     1     -31.194  28.642   5.840  0.00  0.00    +0.056 S 
ATOM     20  O   UNL     1     -30.324  27.552   6.237  0.00  0.00    -0.154 OA
ATOM     21  O   UNL     1     -30.963  29.354   4.599  0.00  0.00    -0.154 OA
ATOM     22  C   UNL     1     -31.168  29.830   7.163  0.00  0.00    +0.200 C 
ENDBRANCH  17  19
ENDBRANCH  15  17
ENDBRANCH   3   7
BRANCH   5  25
ATOM     23  O   UNL     1     -35.874  17.520  -0.719  0.00  0.00    -0.251 OA
ATOM     24  O   UNL     1     -31.801  15.559   0.056  0.00  0.00    -0.270 OA
ATOM     25  N   UNL     1     -34.360  18.665   0.695  0.00  0.00    -0.220 N 
ATOM     26  N   UNL     1     -33.871  16.541  -0.258  0.00  0.00    -0.235 N 
ATOM     27  C   UNL     1     -34.799  17.583  -0.116  0.00  0.00    +0.318 C 
ATOM     28  C   UNL     1     -33.072  18.649   1.220  0.00  0.00    +0.078 C 
ATOM     29  C   UNL     1     -32.196  17.660   1.039  0.00  0.00    +0.075 C 
ATOM     30  C   UNL     1     -32.583  16.487   0.242  0.00  0.00    +0.254 C 
ATOM     31  H   UNL     1     -34.171  15.757  -0.773  0.00  0.00    +0.159 HD
ENDBRANCH   5  25
BRANCH   1  32
ATOM     32  C   UNL     1     -38.686  20.951  -0.087  0.00  0.00    +0.022 C 
ATOM     33  C   UNL     1     -39.818  21.275   0.935  0.00  0.00    +0.004 C 
ATOM     34  C   UNL     1     -38.835  22.011  -1.226  0.00  0.00    +0.004 C 
ATOM     35  C   UNL     1     -39.025  19.579  -0.747  0.00  0.00    +0.004 C 
ENDBRANCH   1  32
BRANCH   2  36
ATOM     36  O   UNL     1     -37.796  22.984   1.676  0.00  0.00    -0.472 OA
ATOM     37  C   UNL     1     -37.546  24.184   0.949  0.00  0.00    +0.252 C 
ENDBRANCH   2  36
TORSDOF 6
ENDMDL
MODEL 7
REMARK VINA RESULT:      -6.6      1.377      2.177
REMARK  Name = 56640146
REMARK  6 active torsions:
REMARK  status: ('A' for Active; 'I' for Inactive)
REMARK    1  A    between atoms: C_1  and  C_32
REMARK    2  A    between atoms: C_2  and  O_36
REMARK    3  A    between atoms: C_3  and  C_7
REMARK    4  A    between atoms: C_5  and  N_25
REMARK    5  A    between atoms: C_15  and  N_17
REMARK    6  A    between atoms: N_17  and  S_19
REMARK                            x       y       z     vdW  Elec       q    Type
REMARK                         _______ _______ _______ _____ _____    ______ ____
ROOT
ATOM      1  C   UNL     1     -37.797  22.352   1.449  0.00  0.00    +0.012 C 
ATOM      2  C   UNL     1     -37.183  23.271   2.299  0.00  0.00    +0.135 C 
ATOM      3  C   UNL     1     -35.887  23.036   2.762  0.00  0.00    +0.035 C 
ATOM      4  C   UNL     1     -37.118  21.197   1.062  0.00  0.00    +0.014 C 
ATOM      5  C   UNL     1     -35.824  20.961   1.525  0.00  0.00    +0.059 C 
ATOM      6  C   UNL     1     -35.209  21.881   2.375  0.00  0.00    +0.018 C 
ENDROOT
BRANCH   3   7
ATOM      7  C   UNL     1     -35.231  23.977   3.643  0.00  0.00    +0.003 C 
ATOM      8  C   UNL     1     -34.454  25.005   3.112  0.00  0.00    +0.000 C 
ATOM      9  C   UNL     1     -33.809  25.925   3.956  0.00  0.00    +0.000 C 
ATOM     10  C   UNL     1     -35.376  23.852   5.022  0.00  0.00    +0.000 C 
ATOM     11  C   UNL     1     -33.956  25.800   5.357  0.00  0.00    +0.001 C 
ATOM     12  C   UNL     1     -34.743  24.758   5.875  0.00  0.00    +0.000 C 
ATOM     13  C   UNL     1     -33.023  26.968   3.438  0.00  0.00    +0.001 C 
ATOM     14  C   UNL     1     -33.313  26.721   6.200  0.00  0.00    +0.016 C 
ATOM     15  C   UNL     1     -32.535  27.749   5.668  0.00  0.00    +0.064 C 
ATOM     16  C   UNL     1     -32.391  27.873   4.290  0.00  0.00    +0.016 C 
BRANCH  15  17
ATOM     17  N   UNL     1     -31.886  28.676   6.539  0.00  0.00    -0.219 N 
ATOM     18  H   UNL     1     -32.397  29.177   7.216  0.00  0.00    +0.173 HD
BRANCH  17  19
ATOM     19  S   UNL     1     -30.185  28.892   6.376  0.00  0.00    +0.056 S 
ATOM     20  O   UNL     1     -29.661  29.384   7.636  0.00  0.00    -0.154 OA
ATOM     21  O   UNL     1     -29.578  27.751   5.721  0.00  0.00    -0.154 OA
ATOM     22  C   UNL     1     -30.151  30.257   5.236  0.00  0.00    +0.200 C 
ENDBRANCH  17  19
ENDBRANCH  15  17
ENDBRANCH   3   7
BRANCH   5  25
ATOM     23  O   UNL     1     -36.917  18.870  -0.130  0.00  0.00    -0.251 OA
ATOM     24  O   UNL     1     -33.051  16.412   0.063  0.00  0.00    -0.270 OA
ATOM     25  N   UNL     1     -35.117  19.761   1.122  0.00  0.00    -0.220 N 
ATOM     26  N   UNL     1     -35.008  17.643   0.044  0.00  0.00    -0.235 N 
ATOM     27  C   UNL     1     -35.778  18.779   0.336  0.00  0.00    +0.318 C 
ATOM     28  C   UNL     1     -33.786  19.568   1.481  0.00  0.00    +0.078 C 
ATOM     29  C   UNL     1     -33.066  18.494   1.159  0.00  0.00    +0.075 C 
ATOM     30  C   UNL     1     -33.686  17.414   0.377  0.00  0.00    +0.254 C 
ATOM     31  H   UNL     1     -35.461  16.926  -0.457  0.00  0.00    +0.159 HD
ENDBRANCH   5  25
BRANCH   1  32
ATOM     32  C   UNL     1     -39.183  22.586   0.942  0.00  0.00    +0.022 C 
ATOM     33  C   UNL     1     -40.098  23.176   2.058  0.00  0.00    +0.004 C 
ATOM     34  C   UNL     1     -39.298  23.577  -0.261  0.00  0.00    +0.004 C 
ATOM     35  C   UNL     1     -39.835  21.257   0.451  0.00  0.00    +0.004 C 
ENDBRANCH   1  32
BRANCH   2  36
ATOM     36  O   UNL     1     -37.857  24.398   2.671  0.00  0.00    -0.472 OA
ATOM     37  C   UNL     1     -37.540  25.598   1.970  0.00  0.00    +0.252 C 
ENDBRANCH   2  36
TORSDOF 6
ENDMDL
MODEL 8
REMARK VINA RESULT:      -6.6      3.908      8.238
REMARK  Name = 56640146
REMARK  6 active torsions:
REMARK  status: ('A' for Active; 'I' for Inactive)
REMARK    1  A    between atoms: C_1  and  C_32
REMARK    2  A    between atoms: C_2  and  O_36
REMARK    3  A    between atoms: C_3  and  C_7
REMARK    4  A    between atoms: C_5  and  N_25
REMARK    5  A    between atoms: C_15  and  N_17
REMARK    6  A    between atoms: N_17  and  S_19
REMARK                            x       y       z     vdW  Elec       q    Type
REMARK                         _______ _______ _______ _____ _____    ______ ____
ROOT
ATOM      1  C   UNL     1     -37.762  22.995   1.334  0.00  0.00    +0.012 C 
ATOM      2  C   UNL     1     -36.827  21.974   1.161  0.00  0.00    +0.135 C 
ATOM      3  C   UNL     1     -35.472  22.224   1.379  0.00  0.00    +0.035 C 
ATOM      4  C   UNL     1     -37.342  24.267   1.722  0.00  0.00    +0.014 C 
ATOM      5  C   UNL     1     -35.987  24.518   1.939  0.00  0.00    +0.059 C 
ATOM      6  C   UNL     1     -35.052  23.497   1.767  0.00  0.00    +0.018 C 
ENDROOT
BRANCH   3   7
ATOM      7  C   UNL     1     -34.486  21.180   1.207  0.00  0.00    +0.003 C 
ATOM      8  C   UNL     1     -33.388  21.388   0.372  0.00  0.00    +0.000 C 
ATOM      9  C   UNL     1     -32.423  20.382   0.194  0.00  0.00    +0.000 C 
ATOM     10  C   UNL     1     -34.635  19.968   1.875  0.00  0.00    +0.000 C 
ATOM     11  C   UNL     1     -32.574  19.150   0.873  0.00  0.00    +0.001 C 
ATOM     12  C   UNL     1     -33.686  18.958   1.710  0.00  0.00    +0.000 C 
ATOM     13  C   UNL     1     -31.311  20.574  -0.642  0.00  0.00    +0.001 C 
ATOM     14  C   UNL     1     -31.609  18.145   0.696  0.00  0.00    +0.016 C 
ATOM     15  C   UNL     1     -30.511  18.353  -0.140  0.00  0.00    +0.064 C 
ATOM     16  C   UNL     1     -30.362  19.565  -0.807  0.00  0.00    +0.016 C 
BRANCH  15  17
ATOM     17  N   UNL     1     -29.539  17.321  -0.310  0.00  0.00    -0.219 N 
ATOM     18  H   UNL     1     -29.691  16.583  -0.944  0.00  0.00    +0.173 HD
BRANCH  17  19
ATOM     19  S   UNL     1     -28.093  17.403   0.623  0.00  0.00    +0.056 S 
ATOM     20  O   UNL     1     -27.152  18.267  -0.064  0.00  0.00    -0.154 OA
ATOM     21  O   UNL     1     -28.392  17.609   2.026  0.00  0.00    -0.154 OA
ATOM     22  C   UNL     1     -27.501  15.737   0.430  0.00  0.00    +0.200 C 
ENDBRANCH  17  19
ENDBRANCH  15  17
ENDBRANCH   3   7
BRANCH   5  25
ATOM     23  O   UNL     1     -35.912  25.479   4.655  0.00  0.00    -0.251 OA
ATOM     24  O   UNL     1     -34.323  29.586   3.375  0.00  0.00    -0.270 OA
ATOM     25  N   UNL     1     -35.550  25.840   2.344  0.00  0.00    -0.220 N 
ATOM     26  N   UNL     1     -35.190  27.529   3.979  0.00  0.00    -0.235 N 
ATOM     27  C   UNL     1     -35.598  26.214   3.714  0.00  0.00    +0.318 C 
ATOM     28  C   UNL     1     -35.063  26.743   1.404  0.00  0.00    +0.078 C 
ATOM     29  C   UNL     1     -34.648  27.978   1.689  0.00  0.00    +0.075 C 
ATOM     30  C   UNL     1     -34.698  28.456   3.079  0.00  0.00    +0.254 C 
ATOM     31  H   UNL     1     -35.263  27.829   4.915  0.00  0.00    +0.159 HD
ENDBRANCH   5  25
BRANCH   1  32
ATOM     32  C   UNL     1     -39.217  22.746   1.107  0.00  0.00    +0.022 C 
ATOM     33  C   UNL     1     -40.083  23.913   1.672  0.00  0.00    +0.004 C 
ATOM     34  C   UNL     1     -39.645  22.595  -0.390  0.00  0.00    +0.004 C 
ATOM     35  C   UNL     1     -39.681  21.432   1.807  0.00  0.00    +0.004 C 
ENDBRANCH   1  32
BRANCH   2  36
ATOM     36  O   UNL     1     -37.249  20.732   0.781  0.00  0.00    -0.472 OA
ATOM     37  C   UNL     1     -37.095  20.393  -0.595  0.00  0.00    +0.252 C 
ENDBRANCH   2  36
TORSDOF 6
ENDMDL
MODEL 9
REMARK VINA RESULT:      -6.6     11.425     16.006
REMARK  Name = 56640146
REMARK  6 active torsions:
REMARK  status: ('A' for Active; 'I' for Inactive)
REMARK    1  A    between atoms: C_1  and  C_32
REMARK    2  A    between atoms: C_2  and  O_36
REMARK    3  A    between atoms: C_3  and  C_7
REMARK    4  A    between atoms: C_5  and  N_25
REMARK    5  A    between atoms: C_15  and  N_17
REMARK    6  A    between atoms: N_17  and  S_19
REMARK                            x       y       z     vdW  Elec       q    Type
REMARK                         _______ _______ _______ _____ _____    ______ ____
ROOT
ATOM      1  C   UNL     1     -33.378  36.678   0.383  0.00  0.00    +0.012 C 
ATOM      2  C   UNL     1     -34.694  36.228   0.287  0.00  0.00    +0.135 C 
ATOM      3  C   UNL     1     -35.752  37.126   0.440  0.00  0.00    +0.035 C 
ATOM      4  C   UNL     1     -33.117  38.025   0.635  0.00  0.00    +0.014 C 
ATOM      5  C   UNL     1     -34.174  38.922   0.790  0.00  0.00    +0.059 C 
ATOM      6  C   UNL     1     -35.491  38.472   0.692  0.00  0.00    +0.018 C 
ENDROOT
BRANCH   3   7
ATOM      7  C   UNL     1     -37.125  36.681   0.343  0.00  0.00    +0.003 C 
ATOM      8  C   UNL     1     -37.834  36.348   1.496  0.00  0.00    +0.000 C 
ATOM      9  C   UNL     1     -39.167  35.913   1.417  0.00  0.00    +0.000 C 
ATOM     10  C   UNL     1     -37.736  36.584  -0.904  0.00  0.00    +0.000 C 
ATOM     11  C   UNL     1     -39.789  35.815   0.150  0.00  0.00    +0.001 C 
ATOM     12  C   UNL     1     -39.060  36.155  -1.001  0.00  0.00    +0.000 C 
ATOM     13  C   UNL     1     -39.897  35.575   2.569  0.00  0.00    +0.001 C 
ATOM     14  C   UNL     1     -41.123  35.381   0.072  0.00  0.00    +0.016 C 
ATOM     15  C   UNL     1     -41.832  35.048   1.226  0.00  0.00    +0.064 C 
ATOM     16  C   UNL     1     -41.221  35.145   2.472  0.00  0.00    +0.016 C 
BRANCH  15  17
ATOM     17  N   UNL     1     -43.186  34.608   1.129  0.00  0.00    -0.219 N 
ATOM     18  H   UNL     1     -43.894  35.213   0.808  0.00  0.00    +0.173 HD
BRANCH  17  19
ATOM     19  S   UNL     1     -43.550  32.987   1.587  0.00  0.00    +0.056 S 
ATOM     20  O   UNL     1     -42.515  32.118   1.059  0.00  0.00    -0.154 OA
ATOM     21  O   UNL     1     -43.930  32.916   2.983  0.00  0.00    -0.154 OA
ATOM     22  C   UNL     1     -45.008  32.704   0.608  0.00  0.00    +0.200 C 
ENDBRANCH  17  19
ENDBRANCH  15  17
ENDBRANCH   3   7
BRANCH   5  25
ATOM     23  O   UNL     1     -34.511  41.058  -1.116  0.00  0.00    -0.251 OA
ATOM     24  O   UNL     1     -33.095  44.230   1.879  0.00  0.00    -0.270 OA
ATOM     25  N   UNL     1     -33.904  40.323   1.051  0.00  0.00    -0.220 N 
ATOM     26  N   UNL     1     -33.738  42.597   0.373  0.00  0.00    -0.235 N 
ATOM     27  C   UNL     1     -34.069  41.282   0.015  0.00  0.00    +0.318 C 
ATOM     28  C   UNL     1     -33.503  40.743   2.315  0.00  0.00    +0.078 C 
ATOM     29  C   UNL     1     -33.229  42.007   2.638  0.00  0.00    +0.075 C 
ATOM     30  C   UNL     1     -33.340  43.056   1.614  0.00  0.00    +0.254 C 
ATOM     31  H   UNL     1     -33.795  43.271  -0.342  0.00  0.00    +0.159 HD
ENDBRANCH   5  25
BRANCH   1  32
ATOM     32  C   UNL     1     -32.233  35.733   0.221  0.00  0.00    +0.022 C 
ATOM     33  C   UNL     1     -32.018  34.881   1.509  0.00  0.00    +0.004 C 
ATOM     34  C   UNL     1     -32.376  34.700  -0.944  0.00  0.00    +0.004 C 
ATOM     35  C   UNL     1     -30.905  36.500  -0.064  0.00  0.00    +0.004 C 
ENDBRANCH   1  32
BRANCH   2  36
ATOM     36  O   UNL     1     -34.938  34.908   0.040  0.00  0.00    -0.472 OA
ATOM     37  C   UNL     1     -35.277  34.095   1.161  0.00  0.00    +0.252 C 
ENDBRANCH   2  36
TORSDOF 6
ENDMDL
