MODEL 1
REMARK VINA RESULT:      -6.8      0.000      0.000
REMARK  Name = 50993829
REMARK  10 active torsions:
REMARK  status: ('A' for Active; 'I' for Inactive)
REMARK    1  A    between atoms: C_2  and  C_16
REMARK    2  A    between atoms: C_3  and  C_29
REMARK    3  A    between atoms: C_4  and  C_6
REMARK    4  A    between atoms: C_9  and  O_12
REMARK    5  A    between atoms: C_11  and  O_14
REMARK    6  A    between atoms: C_16  and  C_17
REMARK    7  A    between atoms: C_16  and  O_27
REMARK    8  A    between atoms: C_20  and  O_23
REMARK    9  A    between atoms: C_22  and  O_25
REMARK   10  A    between atoms: C_29  and  O_30
REMARK                            x       y       z     vdW  Elec       q    Type
REMARK                         _______ _______ _______ _____ _____    ______ ____
ROOT
ATOM      1  O   UNL     1     -37.122  23.627   4.125  0.00  0.00    -0.352 OA
ATOM      2  C   UNL     1     -35.562  22.060   3.303  0.00  0.00    +0.066 C 
ATOM      3  C   UNL     1     -35.095  22.472   4.697  0.00  0.00    +0.066 C 
ATOM      4  C   UNL     1     -35.958  23.718   4.970  0.00  0.00    +0.140 C 
ATOM      5  C   UNL     1     -37.030  22.441   3.326  0.00  0.00    +0.145 C 
ENDROOT
BRANCH   4   6
ATOM      6  C   UNL     1     -35.211  25.013   4.726  0.00  0.00    +0.008 C 
ATOM      7  C   UNL     1     -34.231  25.433   5.625  0.00  0.00    +0.038 C 
ATOM      8  C   UNL     1     -35.502  25.785   3.601  0.00  0.00    +0.001 C 
ATOM      9  C   UNL     1     -33.543  26.625   5.400  0.00  0.00    +0.167 C 
ATOM     10  C   UNL     1     -34.814  26.976   3.376  0.00  0.00    +0.040 C 
ATOM     11  C   UNL     1     -33.834  27.396   4.275  0.00  0.00    +0.167 C 
BRANCH   9  12
ATOM     12  O   UNL     1     -32.586  27.023   6.284  0.00  0.00    -0.503 OA
ATOM     13  H   UNL     1     -32.729  27.777   6.822  0.00  0.00    +0.292 HD
ENDBRANCH   9  12
BRANCH  11  14
ATOM     14  O   UNL     1     -33.167  28.562   4.044  0.00  0.00    -0.503 OA
ATOM     15  H   UNL     1     -32.897  28.783   3.174  0.00  0.00    +0.292 HD
ENDBRANCH  11  14
ENDBRANCH   4   6
BRANCH   2  16
ATOM     16  C   UNL     1     -35.320  20.618   2.891  0.00  0.00    +0.135 C 
BRANCH  16  17
ATOM     17  C   UNL     1     -34.439  20.521   1.671  0.00  0.00    +0.008 C 
ATOM     18  C   UNL     1     -33.702  19.361   1.433  0.00  0.00    +0.038 C 
ATOM     19  C   UNL     1     -34.361  21.592   0.780  0.00  0.00    +0.001 C 
ATOM     20  C   UNL     1     -32.889  19.271   0.303  0.00  0.00    +0.172 C 
ATOM     21  C   UNL     1     -33.547  21.501  -0.350  0.00  0.00    +0.040 C 
ATOM     22  C   UNL     1     -32.812  20.341  -0.587  0.00  0.00    +0.168 C 
BRANCH  20  23
ATOM     23  O   UNL     1     -32.177  18.130   0.081  0.00  0.00    -0.468 OA
ATOM     24  C   UNL     1     -30.932  18.000   0.765  0.00  0.00    +0.253 C 
ENDBRANCH  20  23
BRANCH  22  25
ATOM     25  O   UNL     1     -32.021  20.264  -1.695  0.00  0.00    -0.503 OA
ATOM     26  H   UNL     1     -31.416  19.555  -1.790  0.00  0.00    +0.292 HD
ENDBRANCH  22  25
ENDBRANCH  16  17
BRANCH  16  27
ATOM     27  O   UNL     1     -36.570  19.989   2.625  0.00  0.00    -0.380 OA
ATOM     28  H   UNL     1     -37.148  20.078   3.399  0.00  0.00    +0.211 HD
ENDBRANCH  16  27
ENDBRANCH   2  16
BRANCH   3  29
ATOM     29  C   UNL     1     -35.324  21.411   5.779  0.00  0.00    +0.140 C 
BRANCH  29  30
ATOM     30  O   UNL     1     -36.312  21.885   6.678  0.00  0.00    -0.382 OA
ATOM     31  H   UNL     1     -36.761  22.653   6.291  0.00  0.00    +0.210 HD
ENDBRANCH  29  30
ENDBRANCH   3  29
TORSDOF 10
ENDMDL
MODEL 2
REMARK VINA RESULT:      -6.7      0.719      1.754
REMARK  Name = 50993829
REMARK  10 active torsions:
REMARK  status: ('A' for Active; 'I' for Inactive)
REMARK    1  A    between atoms: C_2  and  C_16
REMARK    2  A    between atoms: C_3  and  C_29
REMARK    3  A    between atoms: C_4  and  C_6
REMARK    4  A    between atoms: C_9  and  O_12
REMARK    5  A    between atoms: C_11  and  O_14
REMARK    6  A    between atoms: C_16  and  C_17
REMARK    7  A    between atoms: C_16  and  O_27
REMARK    8  A    between atoms: C_20  and  O_23
REMARK    9  A    between atoms: C_22  and  O_25
REMARK   10  A    between atoms: C_29  and  O_30
REMARK                            x       y       z     vdW  Elec       q    Type
REMARK                         _______ _______ _______ _____ _____    ______ ____
ROOT
ATOM      1  O   UNL     1     -37.148  23.619   4.035  0.00  0.00    -0.352 OA
ATOM      2  C   UNL     1     -35.586  22.048   3.226  0.00  0.00    +0.066 C 
ATOM      3  C   UNL     1     -35.098  22.503   4.600  0.00  0.00    +0.066 C 
ATOM      4  C   UNL     1     -35.970  23.746   4.855  0.00  0.00    +0.140 C 
ATOM      5  C   UNL     1     -37.056  22.413   3.267  0.00  0.00    +0.145 C 
ENDROOT
BRANCH   4   6
ATOM      6  C   UNL     1     -35.243  25.042   4.562  0.00  0.00    +0.008 C 
ATOM      7  C   UNL     1     -34.244  25.491   5.425  0.00  0.00    +0.038 C 
ATOM      8  C   UNL     1     -35.571  25.786   3.429  0.00  0.00    +0.001 C 
ATOM      9  C   UNL     1     -33.573  26.685   5.155  0.00  0.00    +0.167 C 
ATOM     10  C   UNL     1     -34.901  26.978   3.158  0.00  0.00    +0.040 C 
ATOM     11  C   UNL     1     -33.902  27.428   4.021  0.00  0.00    +0.167 C 
BRANCH   9  12
ATOM     12  O   UNL     1     -32.598  27.112   6.003  0.00  0.00    -0.503 OA
ATOM     13  H   UNL     1     -32.377  26.602   6.758  0.00  0.00    +0.292 HD
ENDBRANCH   9  12
BRANCH  11  14
ATOM     14  O   UNL     1     -33.254  28.594   3.746  0.00  0.00    -0.503 OA
ATOM     15  H   UNL     1     -33.706  29.290   3.310  0.00  0.00    +0.292 HD
ENDBRANCH  11  14
ENDBRANCH   4   6
BRANCH   2  16
ATOM     16  C   UNL     1     -35.333  20.598   2.849  0.00  0.00    +0.135 C 
BRANCH  16  17
ATOM     17  C   UNL     1     -34.390  20.476   1.679  0.00  0.00    +0.008 C 
ATOM     18  C   UNL     1     -34.192  21.561   0.826  0.00  0.00    +0.038 C 
ATOM     19  C   UNL     1     -33.714  19.277   1.450  0.00  0.00    +0.001 C 
ATOM     20  C   UNL     1     -33.318  21.448  -0.256  0.00  0.00    +0.172 C 
ATOM     21  C   UNL     1     -32.841  19.164   0.368  0.00  0.00    +0.040 C 
ATOM     22  C   UNL     1     -32.643  20.250  -0.484  0.00  0.00    +0.168 C 
BRANCH  20  23
ATOM     23  O   UNL     1     -33.132  22.517  -1.080  0.00  0.00    -0.468 OA
ATOM     24  C   UNL     1     -32.247  23.539  -0.627  0.00  0.00    +0.253 C 
ENDBRANCH  20  23
BRANCH  22  25
ATOM     25  O   UNL     1     -31.786  20.128  -1.537  0.00  0.00    -0.503 OA
ATOM     26  H   UNL     1     -31.607  20.867  -2.083  0.00  0.00    +0.292 HD
ENDBRANCH  22  25
ENDBRANCH  16  17
BRANCH  16  27
ATOM     27  O   UNL     1     -36.573  19.975   2.526  0.00  0.00    -0.380 OA
ATOM     28  H   UNL     1     -36.825  19.367   3.239  0.00  0.00    +0.211 HD
ENDBRANCH  16  27
ENDBRANCH   2  16
BRANCH   3  29
ATOM     29  C   UNL     1     -35.294  21.469   5.714  0.00  0.00    +0.140 C 
BRANCH  29  30
ATOM     30  O   UNL     1     -36.263  21.962   6.624  0.00  0.00    -0.382 OA
ATOM     31  H   UNL     1     -37.134  21.968   6.198  0.00  0.00    +0.210 HD
ENDBRANCH  29  30
ENDBRANCH   3  29
TORSDOF 10
ENDMDL
MODEL 3
REMARK VINA RESULT:      -6.6      1.438      7.083
REMARK  Name = 50993829
REMARK  10 active torsions:
REMARK  status: ('A' for Active; 'I' for Inactive)
REMARK    1  A    between atoms: C_2  and  C_16
REMARK    2  A    between atoms: C_3  and  C_29
REMARK    3  A    between atoms: C_4  and  C_6
REMARK    4  A    between atoms: C_9  and  O_12
REMARK    5  A    between atoms: C_11  and  O_14
REMARK    6  A    between atoms: C_16  and  C_17
REMARK    7  A    between atoms: C_16  and  O_27
REMARK    8  A    between atoms: C_20  and  O_23
REMARK    9  A    between atoms: C_22  and  O_25
REMARK   10  A    between atoms: C_29  and  O_30
REMARK                            x       y       z     vdW  Elec       q    Type
REMARK                         _______ _______ _______ _____ _____    ______ ____
ROOT
ATOM      1  O   UNL     1     -35.178  20.158   3.329  0.00  0.00    -0.352 OA
ATOM      2  C   UNL     1     -35.371  22.454   2.822  0.00  0.00    +0.066 C 
ATOM      3  C   UNL     1     -35.747  21.680   1.560  0.00  0.00    +0.066 C 
ATOM      4  C   UNL     1     -35.251  20.261   1.893  0.00  0.00    +0.140 C 
ATOM      5  C   UNL     1     -35.557  21.413   3.908  0.00  0.00    +0.145 C 
ENDROOT
BRANCH   4   6
ATOM      6  C   UNL     1     -33.911  19.944   1.259  0.00  0.00    +0.008 C 
ATOM      7  C   UNL     1     -33.264  18.746   1.559  0.00  0.00    +0.038 C 
ATOM      8  C   UNL     1     -33.326  20.851   0.375  0.00  0.00    +0.001 C 
ATOM      9  C   UNL     1     -32.031  18.454   0.975  0.00  0.00    +0.167 C 
ATOM     10  C   UNL     1     -32.094  20.559  -0.209  0.00  0.00    +0.040 C 
ATOM     11  C   UNL     1     -31.446  19.361   0.091  0.00  0.00    +0.167 C 
BRANCH   9  12
ATOM     12  O   UNL     1     -31.410  17.279   1.274  0.00  0.00    -0.503 OA
ATOM     13  H   UNL     1     -31.234  17.056   2.167  0.00  0.00    +0.292 HD
ENDBRANCH   9  12
BRANCH  11  14
ATOM     14  O   UNL     1     -30.243  19.086  -0.486  0.00  0.00    -0.503 OA
ATOM     15  H   UNL     1     -30.203  18.839  -1.389  0.00  0.00    +0.292 HD
ENDBRANCH  11  14
ENDBRANCH   4   6
BRANCH   2  16
ATOM     16  C   UNL     1     -36.123  23.746   3.088  0.00  0.00    +0.135 C 
BRANCH  16  17
ATOM     17  C   UNL     1     -35.280  24.742   3.845  0.00  0.00    +0.008 C 
ATOM     18  C   UNL     1     -34.187  25.345   3.224  0.00  0.00    +0.038 C 
ATOM     19  C   UNL     1     -35.596  25.062   5.166  0.00  0.00    +0.001 C 
ATOM     20  C   UNL     1     -33.409  26.268   3.924  0.00  0.00    +0.172 C 
ATOM     21  C   UNL     1     -34.818  25.984   5.866  0.00  0.00    +0.040 C 
ATOM     22  C   UNL     1     -33.725  26.587   5.244  0.00  0.00    +0.168 C 
BRANCH  20  23
ATOM     23  O   UNL     1     -32.344  26.852   3.305  0.00  0.00    -0.468 OA
ATOM     24  C   UNL     1     -31.777  26.155   2.198  0.00  0.00    +0.253 C 
ENDBRANCH  20  23
BRANCH  22  25
ATOM     25  O   UNL     1     -32.972  27.488   5.938  0.00  0.00    -0.503 OA
ATOM     26  H   UNL     1     -32.754  28.312   5.550  0.00  0.00    +0.292 HD
ENDBRANCH  22  25
ENDBRANCH  16  17
BRANCH  16  27
ATOM     27  O   UNL     1     -37.301  23.458   3.835  0.00  0.00    -0.380 OA
ATOM     28  H   UNL     1     -37.348  24.047   4.605  0.00  0.00    +0.211 HD
ENDBRANCH  16  27
ENDBRANCH   2  16
BRANCH   3  29
ATOM     29  C   UNL     1     -37.247  21.666   1.251  0.00  0.00    +0.140 C 
BRANCH  29  30
ATOM     30  O   UNL     1     -37.888  20.775   2.148  0.00  0.00    -0.382 OA
ATOM     31  H   UNL     1     -38.683  21.197   2.510  0.00  0.00    +0.210 HD
ENDBRANCH  29  30
ENDBRANCH   3  29
TORSDOF 10
ENDMDL
MODEL 4
REMARK VINA RESULT:      -6.4      2.954      5.734
REMARK  Name = 50993829
REMARK  10 active torsions:
REMARK  status: ('A' for Active; 'I' for Inactive)
REMARK    1  A    between atoms: C_2  and  C_16
REMARK    2  A    between atoms: C_3  and  C_29
REMARK    3  A    between atoms: C_4  and  C_6
REMARK    4  A    between atoms: C_9  and  O_12
REMARK    5  A    between atoms: C_11  and  O_14
REMARK    6  A    between atoms: C_16  and  C_17
REMARK    7  A    between atoms: C_16  and  O_27
REMARK    8  A    between atoms: C_20  and  O_23
REMARK    9  A    between atoms: C_22  and  O_25
REMARK   10  A    between atoms: C_29  and  O_30
REMARK                            x       y       z     vdW  Elec       q    Type
REMARK                         _______ _______ _______ _____ _____    ______ ____
ROOT
ATOM      1  O   UNL     1     -31.859  27.131   2.290  0.00  0.00    -0.352 OA
ATOM      2  C   UNL     1     -33.778  26.250   3.341  0.00  0.00    +0.066 C 
ATOM      3  C   UNL     1     -33.809  27.764   3.540  0.00  0.00    +0.066 C 
ATOM      4  C   UNL     1     -32.379  28.170   3.143  0.00  0.00    +0.140 C 
ATOM      5  C   UNL     1     -32.843  26.098   2.158  0.00  0.00    +0.145 C 
ENDROOT
BRANCH   4   6
ATOM      6  C   UNL     1     -31.477  28.389   4.340  0.00  0.00    +0.008 C 
ATOM      7  C   UNL     1     -32.025  28.774   5.564  0.00  0.00    +0.038 C 
ATOM      8  C   UNL     1     -30.100  28.205   4.221  0.00  0.00    +0.001 C 
ATOM      9  C   UNL     1     -31.195  28.975   6.667  0.00  0.00    +0.167 C 
ATOM     10  C   UNL     1     -29.270  28.405   5.323  0.00  0.00    +0.040 C 
ATOM     11  C   UNL     1     -29.818  28.790   6.547  0.00  0.00    +0.167 C 
BRANCH   9  12
ATOM     12  O   UNL     1     -31.742  29.349   7.857  0.00  0.00    -0.503 OA
ATOM     13  H   UNL     1     -32.625  29.663   7.889  0.00  0.00    +0.292 HD
ENDBRANCH   9  12
BRANCH  11  14
ATOM     14  O   UNL     1     -28.998  28.983   7.618  0.00  0.00    -0.503 OA
ATOM     15  H   UNL     1     -29.141  28.503   8.409  0.00  0.00    +0.292 HD
ENDBRANCH  11  14
ENDBRANCH   4   6
BRANCH   2  16
ATOM     16  C   UNL     1     -35.113  25.551   3.150  0.00  0.00    +0.135 C 
BRANCH  16  17
ATOM     17  C   UNL     1     -35.174  24.240   3.893  0.00  0.00    +0.008 C 
ATOM     18  C   UNL     1     -35.284  23.043   3.187  0.00  0.00    +0.038 C 
ATOM     19  C   UNL     1     -35.121  24.226   5.288  0.00  0.00    +0.001 C 
ATOM     20  C   UNL     1     -35.339  21.830   3.875  0.00  0.00    +0.172 C 
ATOM     21  C   UNL     1     -35.177  23.013   5.975  0.00  0.00    +0.040 C 
ATOM     22  C   UNL     1     -35.286  21.816   5.268  0.00  0.00    +0.168 C 
BRANCH  20  23
ATOM     23  O   UNL     1     -35.443  20.667   3.173  0.00  0.00    -0.468 OA
ATOM     24  C   UNL     1     -36.452  20.606   2.167  0.00  0.00    +0.253 C 
ENDBRANCH  20  23
BRANCH  22  25
ATOM     25  O   UNL     1     -35.338  20.637   5.951  0.00  0.00    -0.503 OA
ATOM     26  H   UNL     1     -36.165  20.230   6.119  0.00  0.00    +0.292 HD
ENDBRANCH  22  25
ENDBRANCH  16  17
BRANCH  16  27
ATOM     27  O   UNL     1     -35.327  25.319   1.761  0.00  0.00    -0.380 OA
ATOM     28  H   UNL     1     -34.534  25.579   1.264  0.00  0.00    +0.211 HD
ENDBRANCH  16  27
ENDBRANCH   2  16
BRANCH   3  29
ATOM     29  C   UNL     1     -34.837  28.494   2.670  0.00  0.00    +0.140 C 
BRANCH  29  30
ATOM     30  O   UNL     1     -35.222  29.690   3.328  0.00  0.00    -0.382 OA
ATOM     31  H   UNL     1     -36.036  29.535   3.831  0.00  0.00    +0.210 HD
ENDBRANCH  29  30
ENDBRANCH   3  29
TORSDOF 10
ENDMDL
MODEL 5
REMARK VINA RESULT:      -6.3      1.209      7.036
REMARK  Name = 50993829
REMARK  10 active torsions:
REMARK  status: ('A' for Active; 'I' for Inactive)
REMARK    1  A    between atoms: C_2  and  C_16
REMARK    2  A    between atoms: C_3  and  C_29
REMARK    3  A    between atoms: C_4  and  C_6
REMARK    4  A    between atoms: C_9  and  O_12
REMARK    5  A    between atoms: C_11  and  O_14
REMARK    6  A    between atoms: C_16  and  C_17
REMARK    7  A    between atoms: C_16  and  O_27
REMARK    8  A    between atoms: C_20  and  O_23
REMARK    9  A    between atoms: C_22  and  O_25
REMARK   10  A    between atoms: C_29  and  O_30
REMARK                            x       y       z     vdW  Elec       q    Type
REMARK                         _______ _______ _______ _____ _____    ______ ____
ROOT
ATOM      1  O   UNL     1     -35.252  20.533   3.873  0.00  0.00    -0.352 OA
ATOM      2  C   UNL     1     -35.378  22.853   3.462  0.00  0.00    +0.066 C 
ATOM      3  C   UNL     1     -35.986  22.146   2.252  0.00  0.00    +0.066 C 
ATOM      4  C   UNL     1     -35.533  20.691   2.468  0.00  0.00    +0.140 C 
ATOM      5  C   UNL     1     -35.462  21.786   4.536  0.00  0.00    +0.145 C 
ENDROOT
BRANCH   4   6
ATOM      6  C   UNL     1     -34.327  20.321   1.630  0.00  0.00    +0.008 C 
ATOM      7  C   UNL     1     -33.695  19.092   1.820  0.00  0.00    +0.038 C 
ATOM      8  C   UNL     1     -33.847  21.209   0.667  0.00  0.00    +0.001 C 
ATOM      9  C   UNL     1     -32.585  18.752   1.048  0.00  0.00    +0.167 C 
ATOM     10  C   UNL     1     -32.738  20.869  -0.106  0.00  0.00    +0.040 C 
ATOM     11  C   UNL     1     -32.106  19.640   0.085  0.00  0.00    +0.167 C 
BRANCH   9  12
ATOM     12  O   UNL     1     -31.979  17.548   1.241  0.00  0.00    -0.503 OA
ATOM     13  H   UNL     1     -31.181  17.346   0.791  0.00  0.00    +0.292 HD
ENDBRANCH   9  12
BRANCH  11  14
ATOM     14  O   UNL     1     -31.023  19.318  -0.676  0.00  0.00    -0.503 OA
ATOM     15  H   UNL     1     -30.680  18.446  -0.656  0.00  0.00    +0.292 HD
ENDBRANCH  11  14
ENDBRANCH   4   6
BRANCH   2  16
ATOM     16  C   UNL     1     -36.000  24.175   3.873  0.00  0.00    +0.135 C 
BRANCH  16  17
ATOM     17  C   UNL     1     -35.063  25.335   3.645  0.00  0.00    +0.008 C 
ATOM     18  C   UNL     1     -34.250  25.790   4.682  0.00  0.00    +0.038 C 
ATOM     19  C   UNL     1     -35.009  25.952   2.394  0.00  0.00    +0.001 C 
ATOM     20  C   UNL     1     -33.382  26.861   4.469  0.00  0.00    +0.172 C 
ATOM     21  C   UNL     1     -34.142  27.023   2.182  0.00  0.00    +0.040 C 
ATOM     22  C   UNL     1     -33.328  27.477   3.220  0.00  0.00    +0.168 C 
BRANCH  20  23
ATOM     23  O   UNL     1     -32.591  27.294   5.491  0.00  0.00    -0.468 OA
ATOM     24  C   UNL     1     -32.959  26.895   6.810  0.00  0.00    +0.253 C 
ENDBRANCH  20  23
BRANCH  22  25
ATOM     25  O   UNL     1     -32.484  28.525   3.001  0.00  0.00    -0.503 OA
ATOM     26  H   UNL     1     -31.773  28.435   2.398  0.00  0.00    +0.292 HD
ENDBRANCH  22  25
ENDBRANCH  16  17
BRANCH  16  27
ATOM     27  O   UNL     1     -36.355  24.118   5.252  0.00  0.00    -0.380 OA
ATOM     28  H   UNL     1     -35.768  24.699   5.762  0.00  0.00    +0.211 HD
ENDBRANCH  16  27
ENDBRANCH   2  16
BRANCH   3  29
ATOM     29  C   UNL     1     -37.514  22.229   2.174  0.00  0.00    +0.140 C 
BRANCH  29  30
ATOM     30  O   UNL     1     -38.049  20.931   2.366  0.00  0.00    -0.382 OA
ATOM     31  H   UNL     1     -37.482  20.278   1.925  0.00  0.00    +0.210 HD
ENDBRANCH  29  30
ENDBRANCH   3  29
TORSDOF 10
ENDMDL
MODEL 6
REMARK VINA RESULT:      -5.8      4.141      7.018
REMARK  Name = 50993829
REMARK  10 active torsions:
REMARK  status: ('A' for Active; 'I' for Inactive)
REMARK    1  A    between atoms: C_2  and  C_16
REMARK    2  A    between atoms: C_3  and  C_29
REMARK    3  A    between atoms: C_4  and  C_6
REMARK    4  A    between atoms: C_9  and  O_12
REMARK    5  A    between atoms: C_11  and  O_14
REMARK    6  A    between atoms: C_16  and  C_17
REMARK    7  A    between atoms: C_16  and  O_27
REMARK    8  A    between atoms: C_20  and  O_23
REMARK    9  A    between atoms: C_22  and  O_25
REMARK   10  A    between atoms: C_29  and  O_30
REMARK                            x       y       z     vdW  Elec       q    Type
REMARK                         _______ _______ _______ _____ _____    ______ ____
ROOT
ATOM      1  O   UNL     1     -39.117  24.551   0.310  0.00  0.00    -0.352 OA
ATOM      2  C   UNL     1     -37.994  23.973   2.302  0.00  0.00    +0.066 C 
ATOM      3  C   UNL     1     -39.300  23.180   2.273  0.00  0.00    +0.066 C 
ATOM      4  C   UNL     1     -40.081  23.889   1.152  0.00  0.00    +0.140 C 
ATOM      5  C   UNL     1     -37.804  24.337   0.842  0.00  0.00    +0.145 C 
ENDROOT
BRANCH   4   6
ATOM      6  C   UNL     1     -41.104  24.872   1.682  0.00  0.00    +0.008 C 
ATOM      7  C   UNL     1     -40.768  25.732   2.727  0.00  0.00    +0.038 C 
ATOM      8  C   UNL     1     -42.382  24.919   1.124  0.00  0.00    +0.001 C 
ATOM      9  C   UNL     1     -41.710  26.639   3.215  0.00  0.00    +0.167 C 
ATOM     10  C   UNL     1     -43.324  25.825   1.611  0.00  0.00    +0.040 C 
ATOM     11  C   UNL     1     -42.988  26.685   2.656  0.00  0.00    +0.167 C 
BRANCH   9  12
ATOM     12  O   UNL     1     -41.369  27.475   4.234  0.00  0.00    -0.503 OA
ATOM     13  H   UNL     1     -40.890  27.147   4.969  0.00  0.00    +0.292 HD
ENDBRANCH   9  12
BRANCH  11  14
ATOM     14  O   UNL     1     -43.915  27.566   3.124  0.00  0.00    -0.503 OA
ATOM     15  H   UNL     1     -43.671  28.454   3.300  0.00  0.00    +0.292 HD
ENDBRANCH  11  14
ENDBRANCH   4   6
BRANCH   2  16
ATOM     16  C   UNL     1     -36.785  23.289   2.915  0.00  0.00    +0.135 C 
BRANCH  16  17
ATOM     17  C   UNL     1     -35.940  24.248   3.716  0.00  0.00    +0.008 C 
ATOM     18  C   UNL     1     -34.645  24.552   3.299  0.00  0.00    +0.038 C 
ATOM     19  C   UNL     1     -36.456  24.832   4.873  0.00  0.00    +0.001 C 
ATOM     20  C   UNL     1     -33.864  25.441   4.039  0.00  0.00    +0.172 C 
ATOM     21  C   UNL     1     -35.675  25.721   5.613  0.00  0.00    +0.040 C 
ATOM     22  C   UNL     1     -34.380  26.024   5.195  0.00  0.00    +0.168 C 
BRANCH  20  23
ATOM     23  O   UNL     1     -32.601  25.731   3.619  0.00  0.00    -0.468 OA
ATOM     24  C   UNL     1     -32.473  26.629   2.519  0.00  0.00    +0.253 C 
ENDBRANCH  20  23
BRANCH  22  25
ATOM     25  O   UNL     1     -33.627  26.895   5.926  0.00  0.00    -0.503 OA
ATOM     26  H   UNL     1     -33.147  27.574   5.496  0.00  0.00    +0.292 HD
ENDBRANCH  22  25
ENDBRANCH  16  17
BRANCH  16  27
ATOM     27  O   UNL     1     -35.995  22.713   1.878  0.00  0.00    -0.380 OA
ATOM     28  H   UNL     1     -36.071  21.746   1.912  0.00  0.00    +0.211 HD
ENDBRANCH  16  27
ENDBRANCH   2  16
BRANCH   3  29
ATOM     29  C   UNL     1     -39.128  21.692   1.953  0.00  0.00    +0.140 C 
BRANCH  29  30
ATOM     30  O   UNL     1     -40.347  21.024   2.233  0.00  0.00    -0.382 OA
ATOM     31  H   UNL     1     -40.309  20.121   1.881  0.00  0.00    +0.210 HD
ENDBRANCH  29  30
ENDBRANCH   3  29
TORSDOF 10
ENDMDL
MODEL 7
REMARK VINA RESULT:      -5.8      3.320      8.125
REMARK  Name = 50993829
REMARK  10 active torsions:
REMARK  status: ('A' for Active; 'I' for Inactive)
REMARK    1  A    between atoms: C_2  and  C_16
REMARK    2  A    between atoms: C_3  and  C_29
REMARK    3  A    between atoms: C_4  and  C_6
REMARK    4  A    between atoms: C_9  and  O_12
REMARK    5  A    between atoms: C_11  and  O_14
REMARK    6  A    between atoms: C_16  and  C_17
REMARK    7  A    between atoms: C_16  and  O_27
REMARK    8  A    between atoms: C_20  and  O_23
REMARK    9  A    between atoms: C_22  and  O_25
REMARK   10  A    between atoms: C_29  and  O_30
REMARK                            x       y       z     vdW  Elec       q    Type
REMARK                         _______ _______ _______ _____ _____    ______ ____
ROOT
ATOM      1  O   UNL     1     -35.373  26.260   2.058  0.00  0.00    -0.352 OA
ATOM      2  C   UNL     1     -33.825  27.524   3.312  0.00  0.00    +0.066 C 
ATOM      3  C   UNL     1     -33.126  26.228   2.905  0.00  0.00    +0.066 C 
ATOM      4  C   UNL     1     -34.305  25.363   2.424  0.00  0.00    +0.140 C 
ATOM      5  C   UNL     1     -34.958  27.609   2.309  0.00  0.00    +0.145 C 
ENDROOT
BRANCH   4   6
ATOM      6  C   UNL     1     -34.767  24.368   3.468  0.00  0.00    +0.008 C 
ATOM      7  C   UNL     1     -35.152  23.084   3.085  0.00  0.00    +0.038 C 
ATOM      8  C   UNL     1     -34.808  24.736   4.813  0.00  0.00    +0.001 C 
ATOM      9  C   UNL     1     -35.577  22.167   4.047  0.00  0.00    +0.167 C 
ATOM     10  C   UNL     1     -35.232  23.820   5.775  0.00  0.00    +0.040 C 
ATOM     11  C   UNL     1     -35.617  22.535   5.392  0.00  0.00    +0.167 C 
BRANCH   9  12
ATOM     12  O   UNL     1     -35.947  20.914   3.661  0.00  0.00    -0.503 OA
ATOM     13  H   UNL     1     -36.686  20.797   3.096  0.00  0.00    +0.292 HD
ENDBRANCH   9  12
BRANCH  11  14
ATOM     14  O   UNL     1     -36.029  21.648   6.340  0.00  0.00    -0.503 OA
ATOM     15  H   UNL     1     -35.654  20.790   6.372  0.00  0.00    +0.292 HD
ENDBRANCH  11  14
ENDBRANCH   4   6
BRANCH   2  16
ATOM     16  C   UNL     1     -32.973  28.779   3.368  0.00  0.00    +0.135 C 
BRANCH  16  17
ATOM     17  C   UNL     1     -31.899  28.685   4.423  0.00  0.00    +0.008 C 
ATOM     18  C   UNL     1     -30.564  28.893   4.079  0.00  0.00    +0.038 C 
ATOM     19  C   UNL     1     -32.242  28.391   5.743  0.00  0.00    +0.001 C 
ATOM     20  C   UNL     1     -29.571  28.808   5.056  0.00  0.00    +0.172 C 
ATOM     21  C   UNL     1     -31.249  28.306   6.719  0.00  0.00    +0.040 C 
ATOM     22  C   UNL     1     -29.914  28.514   6.375  0.00  0.00    +0.168 C 
BRANCH  20  23
ATOM     23  O   UNL     1     -28.270  29.015   4.707  0.00  0.00    -0.468 OA
ATOM     24  C   UNL     1     -27.853  30.368   4.535  0.00  0.00    +0.253 C 
ENDBRANCH  20  23
BRANCH  22  25
ATOM     25  O   UNL     1     -28.953  28.429   7.338  0.00  0.00    -0.503 OA
ATOM     26  H   UNL     1     -28.234  29.029   7.336  0.00  0.00    +0.292 HD
ENDBRANCH  22  25
ENDBRANCH  16  17
BRANCH  16  27
ATOM     27  O   UNL     1     -33.808  29.901   3.640  0.00  0.00    -0.380 OA
ATOM     28  H   UNL     1     -33.305  30.565   4.139  0.00  0.00    +0.211 HD
ENDBRANCH  16  27
ENDBRANCH   2  16
BRANCH   3  29
ATOM     29  C   UNL     1     -32.088  26.393   1.790  0.00  0.00    +0.140 C 
BRANCH  29  30
ATOM     30  O   UNL     1     -30.835  25.930   2.263  0.00  0.00    -0.382 OA
ATOM     31  H   UNL     1     -30.178  25.992   1.552  0.00  0.00    +0.210 HD
ENDBRANCH  29  30
ENDBRANCH   3  29
TORSDOF 10
ENDMDL
MODEL 8
REMARK VINA RESULT:      -5.8      1.742      6.981
REMARK  Name = 50993829
REMARK  10 active torsions:
REMARK  status: ('A' for Active; 'I' for Inactive)
REMARK    1  A    between atoms: C_2  and  C_16
REMARK    2  A    between atoms: C_3  and  C_29
REMARK    3  A    between atoms: C_4  and  C_6
REMARK    4  A    between atoms: C_9  and  O_12
REMARK    5  A    between atoms: C_11  and  O_14
REMARK    6  A    between atoms: C_16  and  C_17
REMARK    7  A    between atoms: C_16  and  O_27
REMARK    8  A    between atoms: C_20  and  O_23
REMARK    9  A    between atoms: C_22  and  O_25
REMARK   10  A    between atoms: C_29  and  O_30
REMARK                            x       y       z     vdW  Elec       q    Type
REMARK                         _______ _______ _______ _____ _____    ______ ____
ROOT
ATOM      1  O   UNL     1     -35.050  19.946   2.016  0.00  0.00    -0.352 OA
ATOM      2  C   UNL     1     -35.326  22.264   2.356  0.00  0.00    +0.066 C 
ATOM      3  C   UNL     1     -35.382  22.019   0.849  0.00  0.00    +0.066 C 
ATOM      4  C   UNL     1     -34.847  20.580   0.737  0.00  0.00    +0.140 C 
ATOM      5  C   UNL     1     -35.637  20.891   2.919  0.00  0.00    +0.145 C 
ENDROOT
BRANCH   4   6
ATOM      6  C   UNL     1     -33.388  20.527   0.333  0.00  0.00    +0.008 C 
ATOM      7  C   UNL     1     -32.811  21.605  -0.338  0.00  0.00    +0.038 C 
ATOM      8  C   UNL     1     -32.621  19.400   0.631  0.00  0.00    +0.001 C 
ATOM      9  C   UNL     1     -31.467  21.557  -0.710  0.00  0.00    +0.167 C 
ATOM     10  C   UNL     1     -31.278  19.352   0.260  0.00  0.00    +0.040 C 
ATOM     11  C   UNL     1     -30.701  20.430  -0.410  0.00  0.00    +0.167 C 
BRANCH   9  12
ATOM     12  O   UNL     1     -30.914  22.617  -1.361  0.00  0.00    -0.503 OA
ATOM     13  H   UNL     1     -30.130  23.012  -1.033  0.00  0.00    +0.292 HD
ENDBRANCH   9  12
BRANCH  11  14
ATOM     14  O   UNL     1     -29.387  20.372  -0.768  0.00  0.00    -0.503 OA
ATOM     15  H   UNL     1     -29.083  20.853  -1.512  0.00  0.00    +0.292 HD
ENDBRANCH  11  14
ENDBRANCH   4   6
BRANCH   2  16
ATOM     16  C   UNL     1     -36.219  23.360   2.910  0.00  0.00    +0.135 C 
BRANCH  16  17
ATOM     17  C   UNL     1     -35.438  24.372   3.710  0.00  0.00    +0.008 C 
ATOM     18  C   UNL     1     -34.271  24.927   3.185  0.00  0.00    +0.038 C 
ATOM     19  C   UNL     1     -35.883  24.755   4.976  0.00  0.00    +0.001 C 
ATOM     20  C   UNL     1     -33.550  25.865   3.924  0.00  0.00    +0.172 C 
ATOM     21  C   UNL     1     -35.162  25.692   5.715  0.00  0.00    +0.040 C 
ATOM     22  C   UNL     1     -33.996  26.246   5.189  0.00  0.00    +0.168 C 
BRANCH  20  23
ATOM     23  O   UNL     1     -32.413  26.400   3.398  0.00  0.00    -0.468 OA
ATOM     24  C   UNL     1     -32.091  26.045   2.056  0.00  0.00    +0.253 C 
ENDBRANCH  20  23
BRANCH  22  25
ATOM     25  O   UNL     1     -33.299  27.162   5.921  0.00  0.00    -0.503 OA
ATOM     26  H   UNL     1     -33.337  28.070   5.692  0.00  0.00    +0.292 HD
ENDBRANCH  22  25
ENDBRANCH  16  17
BRANCH  16  27
ATOM     27  O   UNL     1     -37.222  22.776   3.736  0.00  0.00    -0.380 OA
ATOM     28  H   UNL     1     -36.805  22.361   4.508  0.00  0.00    +0.211 HD
ENDBRANCH  16  27
ENDBRANCH   2  16
BRANCH   3  29
ATOM     29  C   UNL     1     -36.786  22.120   0.244  0.00  0.00    +0.140 C 
BRANCH  29  30
ATOM     30  O   UNL     1     -36.934  21.102  -0.731  0.00  0.00    -0.382 OA
ATOM     31  H   UNL     1     -37.032  21.506  -1.608  0.00  0.00    +0.210 HD
ENDBRANCH  29  30
ENDBRANCH   3  29
TORSDOF 10
ENDMDL
MODEL 9
REMARK VINA RESULT:      -5.7      2.293      3.381
REMARK  Name = 50993829
REMARK  10 active torsions:
REMARK  status: ('A' for Active; 'I' for Inactive)
REMARK    1  A    between atoms: C_2  and  C_16
REMARK    2  A    between atoms: C_3  and  C_29
REMARK    3  A    between atoms: C_4  and  C_6
REMARK    4  A    between atoms: C_9  and  O_12
REMARK    5  A    between atoms: C_11  and  O_14
REMARK    6  A    between atoms: C_16  and  C_17
REMARK    7  A    between atoms: C_16  and  O_27
REMARK    8  A    between atoms: C_20  and  O_23
REMARK    9  A    between atoms: C_22  and  O_25
REMARK   10  A    between atoms: C_29  and  O_30
REMARK                            x       y       z     vdW  Elec       q    Type
REMARK                         _______ _______ _______ _____ _____    ______ ____
ROOT
ATOM      1  O   UNL     1     -37.291  24.035   0.872  0.00  0.00    -0.352 OA
ATOM      2  C   UNL     1     -36.842  21.734   1.136  0.00  0.00    +0.066 C 
ATOM      3  C   UNL     1     -37.787  22.142   2.265  0.00  0.00    +0.066 C 
ATOM      4  C   UNL     1     -37.719  23.679   2.201  0.00  0.00    +0.140 C 
ATOM      5  C   UNL     1     -37.056  22.838   0.119  0.00  0.00    +0.145 C 
ENDROOT
BRANCH   4   6
ATOM      6  C   UNL     1     -36.792  24.268   3.244  0.00  0.00    +0.008 C 
ATOM      7  C   UNL     1     -36.494  25.630   3.223  0.00  0.00    +0.038 C 
ATOM      8  C   UNL     1     -36.235  23.449   4.227  0.00  0.00    +0.001 C 
ATOM      9  C   UNL     1     -35.641  26.173   4.184  0.00  0.00    +0.167 C 
ATOM     10  C   UNL     1     -35.383  23.991   5.187  0.00  0.00    +0.040 C 
ATOM     11  C   UNL     1     -35.085  25.353   5.166  0.00  0.00    +0.167 C 
BRANCH   9  12
ATOM     12  O   UNL     1     -35.361  27.506   4.154  0.00  0.00    -0.503 OA
ATOM     13  H   UNL     1     -35.743  28.051   3.494  0.00  0.00    +0.292 HD
ENDBRANCH   9  12
BRANCH  11  14
ATOM     14  O   UNL     1     -34.251  25.873   6.110  0.00  0.00    -0.503 OA
ATOM     15  H   UNL     1     -33.981  26.768   6.054  0.00  0.00    +0.292 HD
ENDBRANCH  11  14
ENDBRANCH   4   6
BRANCH   2  16
ATOM     16  C   UNL     1     -37.017  20.341   0.559  0.00  0.00    +0.135 C 
BRANCH  16  17
ATOM     17  C   UNL     1     -35.752  19.525   0.663  0.00  0.00    +0.008 C 
ATOM     18  C   UNL     1     -35.588  18.389  -0.130  0.00  0.00    +0.038 C 
ATOM     19  C   UNL     1     -34.747  19.907   1.551  0.00  0.00    +0.001 C 
ATOM     20  C   UNL     1     -34.417  17.636  -0.035  0.00  0.00    +0.172 C 
ATOM     21  C   UNL     1     -33.577  19.154   1.646  0.00  0.00    +0.040 C 
ATOM     22  C   UNL     1     -33.413  18.019   0.853  0.00  0.00    +0.168 C 
BRANCH  20  23
ATOM     23  O   UNL     1     -34.268  16.530  -0.817  0.00  0.00    -0.468 OA
ATOM     24  C   UNL     1     -35.013  15.371  -0.449  0.00  0.00    +0.253 C 
ENDBRANCH  20  23
BRANCH  22  25
ATOM     25  O   UNL     1     -32.264  17.291   0.954  0.00  0.00    -0.503 OA
ATOM     26  H   UNL     1     -31.711  17.183   0.206  0.00  0.00    +0.292 HD
ENDBRANCH  22  25
ENDBRANCH  16  17
BRANCH  16  27
ATOM     27  O   UNL     1     -37.404  20.443  -0.808  0.00  0.00    -0.380 OA
ATOM     28  H   UNL     1     -38.156  19.854  -0.977  0.00  0.00    +0.211 HD
ENDBRANCH  16  27
ENDBRANCH   2  16
BRANCH   3  29
ATOM     29  C   UNL     1     -39.230  21.659   2.086  0.00  0.00    +0.140 C 
BRANCH  29  30
ATOM     30  O   UNL     1     -40.076  22.790   1.965  0.00  0.00    -0.382 OA
ATOM     31  H   UNL     1     -40.986  22.539   2.188  0.00  0.00    +0.210 HD
ENDBRANCH  29  30
ENDBRANCH   3  29
TORSDOF 10
ENDMDL
