MODEL 1
REMARK VINA RESULT:      -6.1      0.000      0.000
REMARK  Name = 50898869
REMARK  8 active torsions:
REMARK  status: ('A' for Active; 'I' for Inactive)
REMARK    1  A    between atoms: N_3  and  C_26
REMARK    2  A    between atoms: C_7  and  O_29
REMARK    3  A    between atoms: C_8  and  N_13
REMARK    4  A    between atoms: C_9  and  C_32
REMARK    5  A    between atoms: N_14  and  C_19
REMARK    6  A    between atoms: N_14  and  O_24
REMARK    7  A    between atoms: C_17  and  N_20
REMARK    8  A    between atoms: C_32  and  O_33
REMARK                            x       y       z     vdW  Elec       q    Type
REMARK                         _______ _______ _______ _____ _____    ______ ____
ROOT
ATOM      1  F   UNL     1     -35.928  23.630   5.925  0.00  0.00    -0.203 F 
ATOM      2  O   UNL     1     -32.403  27.104   6.839  0.00  0.00    -0.286 OA
ATOM      3  N   UNL     1     -33.880  28.027   3.153  0.00  0.00    -0.285 N 
ATOM      4  C   UNL     1     -34.423  26.900   3.836  0.00  0.00    +0.090 C 
ATOM      5  C   UNL     1     -32.881  28.770   3.750  0.00  0.00    +0.075 C 
ATOM      6  C   UNL     1     -33.930  26.559   5.114  0.00  0.00    +0.058 C 
ATOM      7  C   UNL     1     -35.439  26.102   3.289  0.00  0.00    +0.168 C 
ATOM      8  C   UNL     1     -35.946  25.003   3.989  0.00  0.00    +0.111 C 
ATOM      9  C   UNL     1     -32.344  28.533   4.954  0.00  0.00    +0.129 C 
ATOM     10  C   UNL     1     -32.853  27.375   5.733  0.00  0.00    +0.204 C 
ATOM     11  C   UNL     1     -34.437  25.458   5.814  0.00  0.00    +0.036 C 
ATOM     12  C   UNL     1     -35.446  24.682   5.248  0.00  0.00    +0.156 C 
ENDROOT
BRANCH   8  13
ATOM     13  N   UNL     1     -36.958  24.211   3.438  0.00  0.00    -0.305 N 
ATOM     14  C   UNL     1     -36.773  22.756   3.336  0.00  0.00    +0.071 C 
ATOM     15  C   UNL     1     -38.345  24.675   3.597  0.00  0.00    +0.092 C 
ATOM     16  C   UNL     1     -37.617  22.164   2.201  0.00  0.00    -0.027 C 
ATOM     17  C   UNL     1     -39.201  24.198   2.432  0.00  0.00    +0.039 C 
ATOM     18  C   UNL     1     -39.027  22.710   2.250  0.00  0.00    +0.087 C 
BRANCH  16  19
ATOM     19  N   UNL     1     -37.075  22.495   0.885  0.00  0.00    +0.384 N 
ATOM     20  H   UNL     1     -36.693  23.441   0.902  0.00  0.00    -0.089 HD
ATOM     21  H   UNL     1     -37.818  22.442   0.187  0.00  0.00    -0.089 HD
ATOM     22  H   UNL     1     -36.336  21.834   0.645  0.00  0.00    -0.089 HD
ENDBRANCH  16  19
BRANCH  18  23
ATOM     23  N   UNL     1     -40.063  21.951   2.105  0.00  0.00    -0.087 NA
BRANCH  23  24
ATOM     24  O   UNL     1     -39.774  21.000   1.119  0.00  0.00    -0.264 OA
ATOM     25  C   UNL     1     -40.462  21.375  -0.065  0.00  0.00    +0.202 C 
ENDBRANCH  23  24
ENDBRANCH  18  23
ENDBRANCH   8  13
BRANCH   3  26
ATOM     26  C   UNL     1     -34.327  28.469   1.812  0.00  0.00    +0.077 C 
ATOM     27  C   UNL     1     -35.289  29.610   1.647  0.00  0.00    +0.022 C 
ATOM     28  C   UNL     1     -33.858  29.768   1.223  0.00  0.00    +0.022 C 
ENDBRANCH   3  26
BRANCH   7  29
ATOM     29  O   UNL     1     -35.984  26.347   2.060  0.00  0.00    -0.469 OA
ATOM     30  C   UNL     1     -35.471  25.592   0.966  0.00  0.00    +0.253 C 
ENDBRANCH   7  29
BRANCH   9  32
ATOM     31  O   UNL     1     -30.265  29.677   4.824  0.00  0.00    -0.245 OA
ATOM     32  C   UNL     1     -31.289  29.427   5.434  0.00  0.00    +0.342 C 
BRANCH  32  33
ATOM     33  O   UNL     1     -31.629  29.922   6.643  0.00  0.00    -0.477 OA
ATOM     34  H   UNL     1     -31.032  29.852   7.363  0.00  0.00    +0.295 HD
ENDBRANCH  32  33
ENDBRANCH   9  32
TORSDOF 8
ENDMDL
MODEL 2
REMARK VINA RESULT:      -6.0      2.224      8.527
REMARK  Name = 50898869
REMARK  8 active torsions:
REMARK  status: ('A' for Active; 'I' for Inactive)
REMARK    1  A    between atoms: N_3  and  C_26
REMARK    2  A    between atoms: C_7  and  O_29
REMARK    3  A    between atoms: C_8  and  N_13
REMARK    4  A    between atoms: C_9  and  C_32
REMARK    5  A    between atoms: N_14  and  C_19
REMARK    6  A    between atoms: N_14  and  O_24
REMARK    7  A    between atoms: C_17  and  N_20
REMARK    8  A    between atoms: C_32  and  O_33
REMARK                            x       y       z     vdW  Elec       q    Type
REMARK                         _______ _______ _______ _____ _____    ______ ____
ROOT
ATOM      1  F   UNL     1     -34.983  21.831   2.913  0.00  0.00    -0.203 F 
ATOM      2  O   UNL     1     -38.690  19.841   0.151  0.00  0.00    -0.286 OA
ATOM      3  N   UNL     1     -40.037  23.530   1.247  0.00  0.00    -0.285 N 
ATOM      4  C   UNL     1     -38.743  23.125   1.686  0.00  0.00    +0.090 C 
ATOM      5  C   UNL     1     -40.792  22.675   0.469  0.00  0.00    +0.075 C 
ATOM      6  C   UNL     1     -38.252  21.852   1.321  0.00  0.00    +0.058 C 
ATOM      7  C   UNL     1     -37.923  23.944   2.478  0.00  0.00    +0.168 C 
ATOM      8  C   UNL     1     -36.659  23.511   2.891  0.00  0.00    +0.111 C 
ATOM      9  C   UNL     1     -40.422  21.451   0.068  0.00  0.00    +0.129 C 
ATOM     10  C   UNL     1     -39.087  20.951   0.484  0.00  0.00    +0.204 C 
ATOM     11  C   UNL     1     -36.987  21.419   1.735  0.00  0.00    +0.036 C 
ATOM     12  C   UNL     1     -36.193  22.252   2.520  0.00  0.00    +0.156 C 
ENDROOT
BRANCH   8  13
ATOM     13  N   UNL     1     -35.847  24.331   3.680  0.00  0.00    -0.305 N 
ATOM     14  C   UNL     1     -35.937  24.254   5.146  0.00  0.00    +0.071 C 
ATOM     15  C   UNL     1     -34.537  24.715   3.133  0.00  0.00    +0.092 C 
ATOM     16  C   UNL     1     -35.504  25.571   5.800  0.00  0.00    -0.027 C 
ATOM     17  C   UNL     1     -34.113  26.073   3.676  0.00  0.00    +0.039 C 
ATOM     18  C   UNL     1     -34.218  26.073   5.182  0.00  0.00    +0.087 C 
BRANCH  16  19
ATOM     19  N   UNL     1     -36.502  26.625   5.625  0.00  0.00    +0.384 N 
ATOM     20  H   UNL     1     -36.314  27.384   6.279  0.00  0.00    -0.089 HD
ATOM     21  H   UNL     1     -37.432  26.246   5.804  0.00  0.00    -0.089 HD
ATOM     22  H   UNL     1     -36.458  26.979   4.669  0.00  0.00    -0.089 HD
ENDBRANCH  16  19
BRANCH  18  23
ATOM     23  N   UNL     1     -33.243  26.526   5.898  0.00  0.00    -0.087 NA
BRANCH  23  24
ATOM     24  O   UNL     1     -32.938  27.818   5.454  0.00  0.00    -0.264 OA
ATOM     25  C   UNL     1     -31.829  28.289   6.208  0.00  0.00    +0.202 C 
ENDBRANCH  23  24
ENDBRANCH  18  23
ENDBRANCH   8  13
BRANCH   3  26
ATOM     26  C   UNL     1     -40.643  24.842   1.573  0.00  0.00    +0.077 C 
ATOM     27  C   UNL     1     -40.867  25.883   0.515  0.00  0.00    +0.022 C 
ATOM     28  C   UNL     1     -42.039  25.185   1.141  0.00  0.00    +0.022 C 
ENDBRANCH   3  26
BRANCH   7  29
ATOM     29  O   UNL     1     -38.304  25.191   2.885  0.00  0.00    -0.469 OA
ATOM     30  C   UNL     1     -37.699  26.298   2.222  0.00  0.00    +0.253 C 
ENDBRANCH   7  29
BRANCH   9  32
ATOM     31  O   UNL     1     -42.430  20.260  -0.375  0.00  0.00    -0.245 OA
ATOM     32  C   UNL     1     -41.352  20.678  -0.757  0.00  0.00    +0.342 C 
BRANCH  32  33
ATOM     33  O   UNL     1     -40.830  20.507  -1.990  0.00  0.00    -0.477 OA
ATOM     34  H   UNL     1     -39.900  20.477  -2.105  0.00  0.00    +0.295 HD
ENDBRANCH  32  33
ENDBRANCH   9  32
TORSDOF 8
ENDMDL
MODEL 3
REMARK VINA RESULT:      -6.0      2.470      8.797
REMARK  Name = 50898869
REMARK  8 active torsions:
REMARK  status: ('A' for Active; 'I' for Inactive)
REMARK    1  A    between atoms: N_3  and  C_26
REMARK    2  A    between atoms: C_7  and  O_29
REMARK    3  A    between atoms: C_8  and  N_13
REMARK    4  A    between atoms: C_9  and  C_32
REMARK    5  A    between atoms: N_14  and  C_19
REMARK    6  A    between atoms: N_14  and  O_24
REMARK    7  A    between atoms: C_17  and  N_20
REMARK    8  A    between atoms: C_32  and  O_33
REMARK                            x       y       z     vdW  Elec       q    Type
REMARK                         _______ _______ _______ _____ _____    ______ ____
ROOT
ATOM      1  F   UNL     1     -38.784  24.571   3.694  0.00  0.00    -0.203 F 
ATOM      2  O   UNL     1     -40.684  21.125   0.556  0.00  0.00    -0.286 OA
ATOM      3  N   UNL     1     -36.639  20.674   0.315  0.00  0.00    -0.285 N 
ATOM      4  C   UNL     1     -37.157  21.676   1.186  0.00  0.00    +0.090 C 
ATOM      5  C   UNL     1     -37.510  19.889  -0.416  0.00  0.00    +0.075 C 
ATOM      6  C   UNL     1     -38.554  21.853   1.289  0.00  0.00    +0.058 C 
ATOM      7  C   UNL     1     -36.330  22.508   1.957  0.00  0.00    +0.168 C 
ATOM      8  C   UNL     1     -36.875  23.481   2.800  0.00  0.00    +0.111 C 
ATOM      9  C   UNL     1     -38.846  19.975  -0.392  0.00  0.00    +0.129 C 
ATOM     10  C   UNL     1     -39.468  20.996   0.490  0.00  0.00    +0.204 C 
ATOM     11  C   UNL     1     -39.099  22.828   2.133  0.00  0.00    +0.036 C 
ATOM     12  C   UNL     1     -38.255  23.640   2.888  0.00  0.00    +0.156 C 
ENDROOT
BRANCH   8  13
ATOM     13  N   UNL     1     -36.046  24.307   3.566  0.00  0.00    -0.305 N 
ATOM     14  C   UNL     1     -35.947  25.739   3.246  0.00  0.00    +0.071 C 
ATOM     15  C   UNL     1     -35.845  23.945   4.977  0.00  0.00    +0.092 C 
ATOM     16  C   UNL     1     -34.607  26.323   3.712  0.00  0.00    -0.027 C 
ATOM     17  C   UNL     1     -34.477  24.414   5.454  0.00  0.00    +0.039 C 
ATOM     18  C   UNL     1     -34.296  25.875   5.122  0.00  0.00    +0.087 C 
BRANCH  16  19
ATOM     19  N   UNL     1     -33.496  25.885   2.869  0.00  0.00    +0.384 N 
ATOM     20  H   UNL     1     -32.645  25.835   3.428  0.00  0.00    -0.089 HD
ATOM     21  H   UNL     1     -33.364  26.550   2.107  0.00  0.00    -0.089 HD
ATOM     22  H   UNL     1     -33.705  24.964   2.482  0.00  0.00    -0.089 HD
ENDBRANCH  16  19
BRANCH  18  23
ATOM     23  N   UNL     1     -33.853  26.692   6.020  0.00  0.00    -0.087 NA
BRANCH  23  24
ATOM     24  O   UNL     1     -33.036  27.636   5.388  0.00  0.00    -0.264 OA
ATOM     25  C   UNL     1     -32.066  28.074   6.328  0.00  0.00    +0.202 C 
ENDBRANCH  23  24
ENDBRANCH  18  23
ENDBRANCH   8  13
BRANCH   3  26
ATOM     26  C   UNL     1     -35.193  20.408   0.135  0.00  0.00    +0.077 C 
ATOM     27  C   UNL     1     -34.508  19.294   0.872  0.00  0.00    +0.022 C 
ATOM     28  C   UNL     1     -34.710  19.199  -0.612  0.00  0.00    +0.022 C 
ENDBRANCH   3  26
BRANCH   7  29
ATOM     29  O   UNL     1     -34.967  22.418   1.930  0.00  0.00    -0.469 OA
ATOM     30  C   UNL     1     -34.286  23.244   0.990  0.00  0.00    +0.253 C 
ENDBRANCH   7  29
BRANCH   9  32
ATOM     31  O   UNL     1     -39.606  17.847  -1.128  0.00  0.00    -0.245 OA
ATOM     32  C   UNL     1     -39.618  19.060  -1.235  0.00  0.00    +0.342 C 
BRANCH  32  33
ATOM     33  O   UNL     1     -40.333  19.767  -2.136  0.00  0.00    -0.477 OA
ATOM     34  H   UNL     1     -40.357  20.702  -2.085  0.00  0.00    +0.295 HD
ENDBRANCH  32  33
ENDBRANCH   9  32
TORSDOF 8
ENDMDL
MODEL 4
REMARK VINA RESULT:      -5.7      2.426      4.317
REMARK  Name = 50898869
REMARK  8 active torsions:
REMARK  status: ('A' for Active; 'I' for Inactive)
REMARK    1  A    between atoms: N_3  and  C_26
REMARK    2  A    between atoms: C_7  and  O_29
REMARK    3  A    between atoms: C_8  and  N_13
REMARK    4  A    between atoms: C_9  and  C_32
REMARK    5  A    between atoms: N_14  and  C_19
REMARK    6  A    between atoms: N_14  and  O_24
REMARK    7  A    between atoms: C_17  and  N_20
REMARK    8  A    between atoms: C_32  and  O_33
REMARK                            x       y       z     vdW  Elec       q    Type
REMARK                         _______ _______ _______ _____ _____    ______ ____
ROOT
ATOM      1  F   UNL     1     -37.570  26.852   0.328  0.00  0.00    -0.203 F 
ATOM      2  O   UNL     1     -34.132  28.126   3.776  0.00  0.00    -0.286 OA
ATOM      3  N   UNL     1     -35.434  24.425   4.884  0.00  0.00    -0.285 N 
ATOM      4  C   UNL     1     -35.997  25.018   3.717  0.00  0.00    +0.090 C 
ATOM      5  C   UNL     1     -34.472  25.109   5.601  0.00  0.00    +0.075 C 
ATOM      6  C   UNL     1     -35.564  26.299   3.311  0.00  0.00    +0.058 C 
ATOM      7  C   UNL     1     -36.977  24.379   2.942  0.00  0.00    +0.168 C 
ATOM      8  C   UNL     1     -37.507  24.994   1.804  0.00  0.00    +0.111 C 
ATOM      9  C   UNL     1     -33.993  26.324   5.303  0.00  0.00    +0.129 C 
ATOM     10  C   UNL     1     -34.528  27.014   4.101  0.00  0.00    +0.204 C 
ATOM     11  C   UNL     1     -36.095  26.914   2.170  0.00  0.00    +0.036 C 
ATOM     12  C   UNL     1     -37.067  26.257   1.419  0.00  0.00    +0.156 C 
ENDROOT
BRANCH   8  13
ATOM     13  N   UNL     1     -38.484  24.352   1.036  0.00  0.00    -0.305 N 
ATOM     14  C   UNL     1     -39.896  24.431   1.438  0.00  0.00    +0.071 C 
ATOM     15  C   UNL     1     -38.230  24.213  -0.406  0.00  0.00    +0.092 C 
ATOM     16  C   UNL     1     -40.692  23.228   0.917  0.00  0.00    -0.027 C 
ATOM     17  C   UNL     1     -38.917  22.967  -0.948  0.00  0.00    +0.039 C 
ATOM     18  C   UNL     1     -40.369  22.969  -0.537  0.00  0.00    +0.087 C 
BRANCH  16  19
ATOM     19  N   UNL     1     -40.377  22.004   1.651  0.00  0.00    +0.384 N 
ATOM     20  H   UNL     1     -40.609  22.128   2.636  0.00  0.00    -0.089 HD
ATOM     21  H   UNL     1     -39.382  21.799   1.560  0.00  0.00    -0.089 HD
ATOM     22  H   UNL     1     -40.919  21.229   1.268  0.00  0.00    -0.089 HD
ENDBRANCH  16  19
BRANCH  18  23
ATOM     23  N   UNL     1     -41.288  22.717  -1.410  0.00  0.00    -0.087 NA
BRANCH  23  24
ATOM     24  O   UNL     1     -42.272  21.933  -0.797  0.00  0.00    -0.264 OA
ATOM     25  C   UNL     1     -42.104  20.594  -1.240  0.00  0.00    +0.202 C 
ENDBRANCH  23  24
ENDBRANCH  18  23
ENDBRANCH   8  13
BRANCH   3  26
ATOM     26  C   UNL     1     -35.818  23.089   5.395  0.00  0.00    +0.077 C 
ATOM     27  C   UNL     1     -34.895  21.912   5.273  0.00  0.00    +0.022 C 
ATOM     28  C   UNL     1     -35.176  22.508   6.621  0.00  0.00    +0.022 C 
ENDBRANCH   3  26
BRANCH   7  29
ATOM     29  O   UNL     1     -37.464  23.140   3.249  0.00  0.00    -0.469 OA
ATOM     30  C   UNL     1     -36.994  22.050   2.461  0.00  0.00    +0.253 C 
ENDBRANCH   7  29
BRANCH   9  32
ATOM     31  O   UNL     1     -33.018  26.899   7.393  0.00  0.00    -0.245 OA
ATOM     32  C   UNL     1     -32.970  26.902   6.177  0.00  0.00    +0.342 C 
BRANCH  32  33
ATOM     33  O   UNL     1     -31.980  27.432   5.427  0.00  0.00    -0.477 OA
ATOM     34  H   UNL     1     -31.337  26.872   5.037  0.00  0.00    +0.295 HD
ENDBRANCH  32  33
ENDBRANCH   9  32
TORSDOF 8
ENDMDL
MODEL 5
REMARK VINA RESULT:      -5.5      2.973      8.294
REMARK  Name = 50898869
REMARK  8 active torsions:
REMARK  status: ('A' for Active; 'I' for Inactive)
REMARK    1  A    between atoms: N_3  and  C_26
REMARK    2  A    between atoms: C_7  and  O_29
REMARK    3  A    between atoms: C_8  and  N_13
REMARK    4  A    between atoms: C_9  and  C_32
REMARK    5  A    between atoms: N_14  and  C_19
REMARK    6  A    between atoms: N_14  and  O_24
REMARK    7  A    between atoms: C_17  and  N_20
REMARK    8  A    between atoms: C_32  and  O_33
REMARK                            x       y       z     vdW  Elec       q    Type
REMARK                         _______ _______ _______ _____ _____    ______ ____
ROOT
ATOM      1  F   UNL     1     -33.284  27.184   7.134  0.00  0.00    -0.203 F 
ATOM      2  O   UNL     1     -35.888  23.184   5.539  0.00  0.00    -0.286 OA
ATOM      3  N   UNL     1     -34.182  24.753   2.185  0.00  0.00    -0.285 N 
ATOM      4  C   UNL     1     -33.934  25.394   3.433  0.00  0.00    +0.090 C 
ATOM      5  C   UNL     1     -34.983  23.628   2.144  0.00  0.00    +0.075 C 
ATOM      6  C   UNL     1     -34.512  24.871   4.610  0.00  0.00    +0.058 C 
ATOM      7  C   UNL     1     -33.130  26.539   3.548  0.00  0.00    +0.168 C 
ATOM      8  C   UNL     1     -32.911  27.142   4.790  0.00  0.00    +0.111 C 
ATOM      9  C   UNL     1     -35.578  23.053   3.197  0.00  0.00    +0.129 C 
ATOM     10  C   UNL     1     -35.371  23.661   4.537  0.00  0.00    +0.204 C 
ATOM     11  C   UNL     1     -34.292  25.476   5.854  0.00  0.00    +0.036 C 
ATOM     12  C   UNL     1     -33.490  26.612   5.940  0.00  0.00    +0.156 C 
ENDROOT
BRANCH   8  13
ATOM     13  N   UNL     1     -32.110  28.284   4.898  0.00  0.00    -0.305 N 
ATOM     14  C   UNL     1     -30.659  28.141   5.087  0.00  0.00    +0.071 C 
ATOM     15  C   UNL     1     -32.553  29.492   4.188  0.00  0.00    +0.092 C 
ATOM     16  C   UNL     1     -30.065  29.365   5.794  0.00  0.00    -0.027 C 
ATOM     17  C   UNL     1     -32.074  30.741   4.916  0.00  0.00    +0.039 C 
ATOM     18  C   UNL     1     -30.591  30.641   5.174  0.00  0.00    +0.087 C 
BRANCH  16  19
ATOM     19  N   UNL     1     -30.417  29.403   7.212  0.00  0.00    +0.384 N 
ATOM     20  H   UNL     1     -29.764  28.824   7.740  0.00  0.00    -0.089 HD
ATOM     21  H   UNL     1     -31.364  29.047   7.338  0.00  0.00    -0.089 HD
ATOM     22  H   UNL     1     -30.368  30.365   7.549  0.00  0.00    -0.089 HD
ENDBRANCH  16  19
BRANCH  18  23
ATOM     23  N   UNL     1     -29.818  31.640   4.901  0.00  0.00    -0.087 NA
BRANCH  23  24
ATOM     24  O   UNL     1     -28.589  31.431   5.536  0.00  0.00    -0.264 OA
ATOM     25  C   UNL     1     -27.753  32.542   5.249  0.00  0.00    +0.202 C 
ENDBRANCH  23  24
ENDBRANCH  18  23
ENDBRANCH   8  13
BRANCH   3  26
ATOM     26  C   UNL     1     -33.624  25.220   0.895  0.00  0.00    +0.077 C 
ATOM     27  C   UNL     1     -32.766  24.326   0.048  0.00  0.00    +0.022 C 
ATOM     28  C   UNL     1     -34.144  24.700  -0.413  0.00  0.00    +0.022 C 
ENDBRANCH   3  26
BRANCH   7  29
ATOM     29  O   UNL     1     -32.526  27.124   2.471  0.00  0.00    -0.469 OA
ATOM     30  C   UNL     1     -31.194  26.709   2.177  0.00  0.00    +0.253 C 
ENDBRANCH   7  29
BRANCH   9  32
ATOM     31  O   UNL     1     -37.407  21.834   2.292  0.00  0.00    -0.245 OA
ATOM     32  C   UNL     1     -36.395  21.860   2.970  0.00  0.00    +0.342 C 
BRANCH  32  33
ATOM     33  O   UNL     1     -35.854  20.809   3.622  0.00  0.00    -0.477 OA
ATOM     34  H   UNL     1     -35.106  20.933   4.172  0.00  0.00    +0.295 HD
ENDBRANCH  32  33
ENDBRANCH   9  32
TORSDOF 8
ENDMDL
MODEL 6
REMARK VINA RESULT:      -5.4      2.835      8.243
REMARK  Name = 50898869
REMARK  8 active torsions:
REMARK  status: ('A' for Active; 'I' for Inactive)
REMARK    1  A    between atoms: N_3  and  C_26
REMARK    2  A    between atoms: C_7  and  O_29
REMARK    3  A    between atoms: C_8  and  N_13
REMARK    4  A    between atoms: C_9  and  C_32
REMARK    5  A    between atoms: N_14  and  C_19
REMARK    6  A    between atoms: N_14  and  O_24
REMARK    7  A    between atoms: C_17  and  N_20
REMARK    8  A    between atoms: C_32  and  O_33
REMARK                            x       y       z     vdW  Elec       q    Type
REMARK                         _______ _______ _______ _____ _____    ______ ____
ROOT
ATOM      1  F   UNL     1     -32.165  27.039   6.957  0.00  0.00    -0.203 F 
ATOM      2  O   UNL     1     -36.114  24.192   5.681  0.00  0.00    -0.286 OA
ATOM      3  N   UNL     1     -35.638  26.806   2.588  0.00  0.00    -0.285 N 
ATOM      4  C   UNL     1     -34.737  26.889   3.688  0.00  0.00    +0.090 C 
ATOM      5  C   UNL     1     -36.638  25.852   2.596  0.00  0.00    +0.075 C 
ATOM      6  C   UNL     1     -34.878  25.996   4.772  0.00  0.00    +0.058 C 
ATOM      7  C   UNL     1     -33.699  27.832   3.745  0.00  0.00    +0.168 C 
ATOM      8  C   UNL     1     -32.834  27.885   4.843  0.00  0.00    +0.111 C 
ATOM      9  C   UNL     1     -36.859  24.961   3.571  0.00  0.00    +0.129 C 
ATOM     10  C   UNL     1     -35.963  24.980   4.756  0.00  0.00    +0.204 C 
ATOM     11  C   UNL     1     -34.012  26.049   5.871  0.00  0.00    +0.036 C 
ATOM     12  C   UNL     1     -32.990  26.995   5.902  0.00  0.00    +0.156 C 
ENDROOT
BRANCH   8  13
ATOM     13  N   UNL     1     -31.802  28.827   4.894  0.00  0.00    -0.305 N 
ATOM     14  C   UNL     1     -31.968  30.047   5.698  0.00  0.00    +0.071 C 
ATOM     15  C   UNL     1     -30.425  28.334   4.746  0.00  0.00    +0.092 C 
ATOM     16  C   UNL     1     -31.097  31.190   5.163  0.00  0.00    -0.027 C 
ATOM     17  C   UNL     1     -29.543  29.404   4.117  0.00  0.00    +0.039 C 
ATOM     18  C   UNL     1     -29.695  30.699   4.878  0.00  0.00    +0.087 C 
BRANCH  16  19
ATOM     19  N   UNL     1     -31.620  31.740   3.913  0.00  0.00    +0.384 N 
ATOM     20  H   UNL     1     -32.639  31.707   3.928  0.00  0.00    -0.089 HD
ATOM     21  H   UNL     1     -31.274  31.189   3.128  0.00  0.00    -0.089 HD
ATOM     22  H   UNL     1     -31.311  32.707   3.812  0.00  0.00    -0.089 HD
ENDBRANCH  16  19
BRANCH  18  23
ATOM     23  N   UNL     1     -28.648  31.368   5.231  0.00  0.00    -0.087 NA
BRANCH  23  24
ATOM     24  O   UNL     1     -27.666  30.460   5.642  0.00  0.00    -0.264 OA
ATOM     25  C   UNL     1     -27.640  30.456   7.062  0.00  0.00    +0.202 C 
ENDBRANCH  23  24
ENDBRANCH  18  23
ENDBRANCH   8  13
BRANCH   3  26
ATOM     26  C   UNL     1     -35.576  27.693   1.404  0.00  0.00    +0.077 C 
ATOM     27  C   UNL     1     -35.284  27.149   0.036  0.00  0.00    +0.022 C 
ATOM     28  C   UNL     1     -36.652  27.675   0.358  0.00  0.00    +0.022 C 
ENDBRANCH   3  26
BRANCH   7  29
ATOM     29  O   UNL     1     -33.476  28.741   2.749  0.00  0.00    -0.469 OA
ATOM     30  C   UNL     1     -32.420  28.451   1.838  0.00  0.00    +0.253 C 
ENDBRANCH   7  29
BRANCH   9  32
ATOM     31  O   UNL     1     -39.138  24.339   3.309  0.00  0.00    -0.245 OA
ATOM     32  C   UNL     1     -37.968  24.018   3.413  0.00  0.00    +0.342 C 
BRANCH  32  33
ATOM     33  O   UNL     1     -37.491  22.755   3.402  0.00  0.00    -0.477 OA
ATOM     34  H   UNL     1     -38.085  22.030   3.387  0.00  0.00    +0.295 HD
ENDBRANCH  32  33
ENDBRANCH   9  32
TORSDOF 8
ENDMDL
MODEL 7
REMARK VINA RESULT:      -5.4      3.330      5.303
REMARK  Name = 50898869
REMARK  8 active torsions:
REMARK  status: ('A' for Active; 'I' for Inactive)
REMARK    1  A    between atoms: N_3  and  C_26
REMARK    2  A    between atoms: C_7  and  O_29
REMARK    3  A    between atoms: C_8  and  N_13
REMARK    4  A    between atoms: C_9  and  C_32
REMARK    5  A    between atoms: N_14  and  C_19
REMARK    6  A    between atoms: N_14  and  O_24
REMARK    7  A    between atoms: C_17  and  N_20
REMARK    8  A    between atoms: C_32  and  O_33
REMARK                            x       y       z     vdW  Elec       q    Type
REMARK                         _______ _______ _______ _____ _____    ______ ____
ROOT
ATOM      1  F   UNL     1     -37.264  27.494   1.200  0.00  0.00    -0.203 F 
ATOM      2  O   UNL     1     -35.855  32.236   0.278  0.00  0.00    -0.286 OA
ATOM      3  N   UNL     1     -33.290  30.901   3.151  0.00  0.00    -0.285 N 
ATOM      4  C   UNL     1     -34.292  30.008   2.673  0.00  0.00    +0.090 C 
ATOM      5  C   UNL     1     -33.212  32.179   2.635  0.00  0.00    +0.075 C 
ATOM      6  C   UNL     1     -35.194  30.445   1.677  0.00  0.00    +0.058 C 
ATOM      7  C   UNL     1     -34.428  28.696   3.152  0.00  0.00    +0.168 C 
ATOM      8  C   UNL     1     -35.426  27.850   2.659  0.00  0.00    +0.111 C 
ATOM      9  C   UNL     1     -34.014  32.692   1.693  0.00  0.00    +0.129 C 
ATOM     10  C   UNL     1     -35.088  31.827   1.140  0.00  0.00    +0.204 C 
ATOM     11  C   UNL     1     -36.193  29.597   1.184  0.00  0.00    +0.036 C 
ATOM     12  C   UNL     1     -36.305  28.300   1.678  0.00  0.00    +0.156 C 
ENDROOT
BRANCH   8  13
ATOM     13  N   UNL     1     -35.557  26.544   3.142  0.00  0.00    -0.305 N 
ATOM     14  C   UNL     1     -36.460  26.269   4.269  0.00  0.00    +0.071 C 
ATOM     15  C   UNL     1     -35.368  25.445   2.183  0.00  0.00    +0.092 C 
ATOM     16  C   UNL     1     -36.024  25.019   5.041  0.00  0.00    -0.027 C 
ATOM     17  C   UNL     1     -34.832  24.209   2.892  0.00  0.00    +0.039 C 
ATOM     18  C   UNL     1     -35.699  23.893   4.086  0.00  0.00    +0.087 C 
BRANCH  16  19
ATOM     19  N   UNL     1     -34.825  25.261   5.842  0.00  0.00    +0.384 N 
ATOM     20  H   UNL     1     -35.059  25.196   6.833  0.00  0.00    -0.089 HD
ATOM     21  H   UNL     1     -34.462  26.192   5.639  0.00  0.00    -0.089 HD
ATOM     22  H   UNL     1     -34.117  24.563   5.613  0.00  0.00    -0.089 HD
ENDBRANCH  16  19
BRANCH  18  23
ATOM     23  N   UNL     1     -36.107  22.683   4.286  0.00  0.00    -0.087 NA
BRANCH  23  24
ATOM     24  O   UNL     1     -36.147  22.457   5.666  0.00  0.00    -0.264 OA
ATOM     25  C   UNL     1     -35.076  21.584   5.997  0.00  0.00    +0.202 C 
ENDBRANCH  23  24
ENDBRANCH  18  23
ENDBRANCH   8  13
BRANCH   3  26
ATOM     26  C   UNL     1     -32.297  30.542   4.191  0.00  0.00    +0.077 C 
ATOM     27  C   UNL     1     -30.842  30.389   3.860  0.00  0.00    +0.022 C 
ATOM     28  C   UNL     1     -31.303  31.544   4.699  0.00  0.00    +0.022 C 
ENDBRANCH   3  26
BRANCH   7  29
ATOM     29  O   UNL     1     -33.608  28.177   4.114  0.00  0.00    -0.469 OA
ATOM     30  C   UNL     1     -32.606  27.262   3.680  0.00  0.00    +0.253 C 
ENDBRANCH   7  29
BRANCH   9  32
ATOM     31  O   UNL     1     -33.723  35.029   2.011  0.00  0.00    -0.245 OA
ATOM     32  C   UNL     1     -33.787  34.072   1.261  0.00  0.00    +0.342 C 
BRANCH  32  33
ATOM     33  O   UNL     1     -33.663  34.112  -0.083  0.00  0.00    -0.477 OA
ATOM     34  H   UNL     1     -34.351  34.473  -0.607  0.00  0.00    +0.295 HD
ENDBRANCH  32  33
ENDBRANCH   9  32
TORSDOF 8
ENDMDL
MODEL 8
REMARK VINA RESULT:      -5.4      3.009      4.853
REMARK  Name = 50898869
REMARK  8 active torsions:
REMARK  status: ('A' for Active; 'I' for Inactive)
REMARK    1  A    between atoms: N_3  and  C_26
REMARK    2  A    between atoms: C_7  and  O_29
REMARK    3  A    between atoms: C_8  and  N_13
REMARK    4  A    between atoms: C_9  and  C_32
REMARK    5  A    between atoms: N_14  and  C_19
REMARK    6  A    between atoms: N_14  and  O_24
REMARK    7  A    between atoms: C_17  and  N_20
REMARK    8  A    between atoms: C_32  and  O_33
REMARK                            x       y       z     vdW  Elec       q    Type
REMARK                         _______ _______ _______ _____ _____    ______ ____
ROOT
ATOM      1  F   UNL     1     -35.882  28.195   2.041  0.00  0.00    -0.203 F 
ATOM      2  O   UNL     1     -32.946  32.281   2.158  0.00  0.00    -0.286 OA
ATOM      3  N   UNL     1     -31.196  29.635   4.719  0.00  0.00    -0.285 N 
ATOM      4  C   UNL     1     -32.390  29.239   4.050  0.00  0.00    +0.090 C 
ATOM      5  C   UNL     1     -30.667  30.890   4.485  0.00  0.00    +0.075 C 
ATOM      6  C   UNL     1     -33.016  30.136   3.157  0.00  0.00    +0.058 C 
ATOM      7  C   UNL     1     -32.982  27.981   4.241  0.00  0.00    +0.168 C 
ATOM      8  C   UNL     1     -34.155  27.629   3.567  0.00  0.00    +0.111 C 
ATOM      9  C   UNL     1     -31.180  31.813   3.661  0.00  0.00    +0.129 C 
ATOM     10  C   UNL     1     -32.426  31.480   2.925  0.00  0.00    +0.204 C 
ATOM     11  C   UNL     1     -34.192  29.782   2.483  0.00  0.00    +0.036 C 
ATOM     12  C   UNL     1     -34.758  28.527   2.690  0.00  0.00    +0.156 C 
ENDROOT
BRANCH   8  13
ATOM     13  N   UNL     1     -34.740  26.373   3.761  0.00  0.00    -0.305 N 
ATOM     14  C   UNL     1     -33.994  25.158   3.405  0.00  0.00    +0.071 C 
ATOM     15  C   UNL     1     -35.705  26.238   4.862  0.00  0.00    +0.092 C 
ATOM     16  C   UNL     1     -34.942  23.996   3.081  0.00  0.00    -0.027 C 
ATOM     17  C   UNL     1     -36.735  25.165   4.537  0.00  0.00    +0.039 C 
ATOM     18  C   UNL     1     -36.030  23.895   4.126  0.00  0.00    +0.087 C 
BRANCH  16  19
ATOM     19  N   UNL     1     -35.604  24.173   1.789  0.00  0.00    +0.384 N 
ATOM     20  H   UNL     1     -36.277  23.421   1.646  0.00  0.00    -0.089 HD
ATOM     21  H   UNL     1     -34.907  24.152   1.044  0.00  0.00    -0.089 HD
ATOM     22  H   UNL     1     -36.088  25.071   1.775  0.00  0.00    -0.089 HD
ENDBRANCH  16  19
BRANCH  18  23
ATOM     23  N   UNL     1     -36.389  22.763   4.636  0.00  0.00    -0.087 NA
BRANCH  23  24
ATOM     24  O   UNL     1     -36.026  22.757   5.987  0.00  0.00    -0.264 OA
ATOM     25  C   UNL     1     -34.979  21.812   6.155  0.00  0.00    +0.202 C 
ENDBRANCH  23  24
ENDBRANCH  18  23
ENDBRANCH   8  13
BRANCH   3  26
ATOM     26  C   UNL     1     -30.462  28.772   5.673  0.00  0.00    +0.077 C 
ATOM     27  C   UNL     1     -29.098  28.236   5.349  0.00  0.00    +0.022 C 
ATOM     28  C   UNL     1     -29.262  29.277   6.418  0.00  0.00    +0.022 C 
ENDBRANCH   3  26
BRANCH   7  29
ATOM     29  O   UNL     1     -32.455  27.042   5.082  0.00  0.00    -0.469 OA
ATOM     30  C   UNL     1     -32.865  27.098   6.446  0.00  0.00    +0.253 C 
ENDBRANCH   7  29
BRANCH   9  32
ATOM     31  O   UNL     1     -29.274  33.227   3.528  0.00  0.00    -0.245 OA
ATOM     32  C   UNL     1     -30.485  33.095   3.533  0.00  0.00    +0.342 C 
BRANCH  32  33
ATOM     33  O   UNL     1     -31.389  34.092   3.422  0.00  0.00    -0.477 OA
ATOM     34  H   UNL     1     -32.262  33.970   3.740  0.00  0.00    +0.295 HD
ENDBRANCH  32  33
ENDBRANCH   9  32
TORSDOF 8
ENDMDL
MODEL 9
REMARK VINA RESULT:      -5.4      4.167      6.177
REMARK  Name = 50898869
REMARK  8 active torsions:
REMARK  status: ('A' for Active; 'I' for Inactive)
REMARK    1  A    between atoms: N_3  and  C_26
REMARK    2  A    between atoms: C_7  and  O_29
REMARK    3  A    between atoms: C_8  and  N_13
REMARK    4  A    between atoms: C_9  and  C_32
REMARK    5  A    between atoms: N_14  and  C_19
REMARK    6  A    between atoms: N_14  and  O_24
REMARK    7  A    between atoms: C_17  and  N_20
REMARK    8  A    between atoms: C_32  and  O_33
REMARK                            x       y       z     vdW  Elec       q    Type
REMARK                         _______ _______ _______ _____ _____    ______ ____
ROOT
ATOM      1  F   UNL     1     -34.005  22.232  -1.512  0.00  0.00    -0.203 F 
ATOM      2  O   UNL     1     -33.849  26.350   1.377  0.00  0.00    -0.286 OA
ATOM      3  N   UNL     1     -35.183  23.377   3.828  0.00  0.00    -0.285 N 
ATOM      4  C   UNL     1     -34.890  23.054   2.471  0.00  0.00    +0.090 C 
ATOM      5  C   UNL     1     -35.008  24.673   4.274  0.00  0.00    +0.075 C 
ATOM      6  C   UNL     1     -34.426  24.065   1.601  0.00  0.00    +0.058 C 
ATOM      7  C   UNL     1     -35.044  21.760   1.952  0.00  0.00    +0.168 C 
ATOM      8  C   UNL     1     -34.748  21.481   0.614  0.00  0.00    +0.111 C 
ATOM      9  C   UNL     1     -34.575  25.702   3.534  0.00  0.00    +0.129 C 
ATOM     10  C   UNL     1     -34.248  25.451   2.107  0.00  0.00    +0.204 C 
ATOM     11  C   UNL     1     -34.129  23.785   0.261  0.00  0.00    +0.036 C 
ATOM     12  C   UNL     1     -34.291  22.491  -0.228  0.00  0.00    +0.156 C 
ENDROOT
BRANCH   8  13
ATOM     13  N   UNL     1     -34.904  20.189   0.102  0.00  0.00    -0.305 N 
ATOM     14  C   UNL     1     -35.986  19.909  -0.853  0.00  0.00    +0.071 C 
ATOM     15  C   UNL     1     -33.696  19.361  -0.029  0.00  0.00    +0.092 C 
ATOM     16  C   UNL     1     -36.400  18.433  -0.809  0.00  0.00    -0.027 C 
ATOM     17  C   UNL     1     -34.045  17.886   0.115  0.00  0.00    +0.039 C 
ATOM     18  C   UNL     1     -35.179  17.540  -0.818  0.00  0.00    +0.087 C 
BRANCH  16  19
ATOM     19  N   UNL     1     -37.156  18.112   0.400  0.00  0.00    +0.384 N 
ATOM     20  H   UNL     1     -36.950  17.155   0.686  0.00  0.00    -0.089 HD
ATOM     21  H   UNL     1     -38.154  18.203   0.212  0.00  0.00    -0.089 HD
ATOM     22  H   UNL     1     -36.892  18.755   1.147  0.00  0.00    -0.089 HD
ENDBRANCH  16  19
BRANCH  18  23
ATOM     23  N   UNL     1     -35.104  16.487  -1.564  0.00  0.00    -0.087 NA
BRANCH  23  24
ATOM     24  O   UNL     1     -35.808  15.454  -0.937  0.00  0.00    -0.264 OA
ATOM     25  C   UNL     1     -35.133  14.235  -1.211  0.00  0.00    +0.202 C 
ENDBRANCH  23  24
ENDBRANCH  18  23
ENDBRANCH   8  13
BRANCH   3  26
ATOM     26  C   UNL     1     -35.673  22.393   4.820  0.00  0.00    +0.077 C 
ATOM     27  C   UNL     1     -34.722  21.604   5.672  0.00  0.00    +0.022 C 
ATOM     28  C   UNL     1     -35.585  22.662   6.294  0.00  0.00    +0.022 C 
ENDBRANCH   3  26
BRANCH   7  29
ATOM     29  O   UNL     1     -35.486  20.712   2.710  0.00  0.00    -0.469 OA
ATOM     30  C   UNL     1     -36.873  20.397   2.626  0.00  0.00    +0.253 C 
ENDBRANCH   7  29
BRANCH   9  32
ATOM     31  O   UNL     1     -33.735  27.250   5.130  0.00  0.00    -0.245 OA
ATOM     32  C   UNL     1     -34.448  27.013   4.172  0.00  0.00    +0.342 C 
BRANCH  32  33
ATOM     33  O   UNL     1     -35.238  27.905   3.536  0.00  0.00    -0.477 OA
ATOM     34  H   UNL     1     -35.722  28.538   4.029  0.00  0.00    +0.295 HD
ENDBRANCH  32  33
ENDBRANCH   9  32
TORSDOF 8
ENDMDL
