MODEL 1
REMARK VINA RESULT:      -6.6      0.000      0.000
REMARK  Name = 190896
REMARK  8 active torsions:
REMARK  status: ('A' for Active; 'I' for Inactive)
REMARK    1  A    between atoms: C_2  and  O_25
REMARK    2  A    between atoms: C_3  and  O_23
REMARK    3  A    between atoms: C_6  and  N_10
REMARK    4  A    between atoms: C_17  and  C_19
REMARK    5  A    between atoms: O_25  and  C_30
REMARK    6  A    between atoms: C_27  and  N_33
REMARK    7  A    between atoms: C_28  and  O_37
REMARK    8  A    between atoms: C_29  and  O_39
REMARK                            x       y       z     vdW  Elec       q    Type
REMARK                         _______ _______ _______ _____ _____    ______ ____
ROOT
ATOM      1  O   UNL     1     -34.919  22.581   2.454  0.00  0.00    -0.337 OA
ATOM      2  C   UNL     1     -37.242  22.852   3.133  0.00  0.00    +0.172 C 
ATOM      3  C   UNL     1     -37.685  21.948   1.982  0.00  0.00    +0.144 C 
ATOM      4  C   UNL     1     -35.914  23.548   2.805  0.00  0.00    +0.147 C 
ATOM      5  C   UNL     1     -36.545  21.029   1.551  0.00  0.00    +0.084 C 
ATOM      6  C   UNL     1     -35.275  21.831   1.293  0.00  0.00    +0.209 C 
ATOM      7  C   UNL     1     -35.386  24.342   3.995  0.00  0.00    +0.035 C 
ENDROOT
BRANCH   6  10
ATOM      8  O   UNL     1     -33.310  22.447  -0.582  0.00  0.00    -0.193 OA
ATOM      9  O   UNL     1     -32.201  16.528   0.523  0.00  0.00    -0.270 OA
ATOM     10  N   UNL     1     -34.173  20.966   0.970  0.00  0.00    -0.180 N 
ATOM     11  N   UNL     1     -32.166  20.505  -0.291  0.00  0.00    -0.305 NA
ATOM     12  N   UNL     1     -31.066  18.508   0.068  0.00  0.00    -0.255 N 
ATOM     13  C   UNL     1     -34.037  19.739   1.606  0.00  0.00    +0.083 C 
ATOM     14  C   UNL     1     -33.216  21.364  -0.003  0.00  0.00    +0.275 C 
ATOM     15  C   UNL     1     -33.038  18.895   1.349  0.00  0.00    +0.066 C 
ATOM     16  C   UNL     1     -32.091  19.376   0.333  0.00  0.00    +0.202 C 
ATOM     17  C   UNL     1     -31.191  17.133   0.182  0.00  0.00    +0.251 C 
ATOM     18  H   UNL     1     -30.199  18.878  -0.215  0.00  0.00    +0.158 HD
BRANCH  17  19
ATOM     19  C   UNL     1     -29.924  16.445  -0.200  0.00  0.00    +0.050 C 
ATOM     20  C   UNL     1     -28.745  16.577   0.435  0.00  0.00    -0.039 C 
ATOM     21  C   UNL     1     -28.644  17.463   1.650  0.00  0.00    +0.027 C 
ATOM     22  C   UNL     1     -27.458  15.894   0.067  0.00  0.00    +0.027 C 
ENDBRANCH  17  19
ENDBRANCH   6  10
BRANCH   3  23
ATOM     23  O   UNL     1     -38.792  21.159   2.412  0.00  0.00    -0.382 OA
ATOM     24  H   UNL     1     -39.581  21.720   2.480  0.00  0.00    +0.210 HD
ENDBRANCH   3  23
BRANCH   2  25
ATOM     25  O   UNL     1     -38.253  23.823   3.390  0.00  0.00    -0.326 OA
BRANCH  25  30
ATOM     26  O   UNL     1     -40.236  23.873   2.143  0.00  0.00    -0.333 OA
ATOM     27  C   UNL     1     -40.874  25.773   0.702  0.00  0.00    -0.000 C 
ATOM     28  C   UNL     1     -39.449  26.338   0.861  0.00  0.00    +0.126 C 
ATOM     29  C   UNL     1     -38.737  25.790   2.101  0.00  0.00    +0.192 C 
ATOM     30  C   UNL     1     -38.865  24.267   2.180  0.00  0.00    +0.265 C 
ATOM     31  C   UNL     1     -40.943  24.251   0.955  0.00  0.00    +0.102 C 
ATOM     32  C   UNL     1     -40.489  23.413  -0.241  0.00  0.00    +0.030 C 
BRANCH  27  33
ATOM     33  N   UNL     1     -41.771  26.446   1.651  0.00  0.00    +0.389 N 
ATOM     34  C   UNL     1     -43.077  25.792   1.667  0.00  0.00    -0.100 C 
ATOM     35  C   UNL     1     -41.909  27.859   1.305  0.00  0.00    -0.100 C 
ATOM     36  H   UNL     1     -41.366  26.380   2.585  0.00  0.00    -0.080 HD
ENDBRANCH  27  33
BRANCH  28  37
ATOM     37  O   UNL     1     -38.667  26.006  -0.287  0.00  0.00    -0.384 OA
ATOM     38  H   UNL     1     -37.795  25.691  -0.003  0.00  0.00    +0.210 HD
ENDBRANCH  28  37
BRANCH  29  39
ATOM     39  O   UNL     1     -39.309  26.359   3.279  0.00  0.00    -0.378 OA
ATOM     40  H   UNL     1     -38.602  26.691   3.854  0.00  0.00    +0.211 HD
ENDBRANCH  29  39
ENDBRANCH  25  30
ENDBRANCH   2  25
TORSDOF 8
ENDMDL
MODEL 2
REMARK VINA RESULT:      -6.5      5.417      8.827
REMARK  Name = 190896
REMARK  8 active torsions:
REMARK  status: ('A' for Active; 'I' for Inactive)
REMARK    1  A    between atoms: C_2  and  O_25
REMARK    2  A    between atoms: C_3  and  O_23
REMARK    3  A    between atoms: C_6  and  N_10
REMARK    4  A    between atoms: C_17  and  C_19
REMARK    5  A    between atoms: O_25  and  C_30
REMARK    6  A    between atoms: C_27  and  N_33
REMARK    7  A    between atoms: C_28  and  O_37
REMARK    8  A    between atoms: C_29  and  O_39
REMARK                            x       y       z     vdW  Elec       q    Type
REMARK                         _______ _______ _______ _____ _____    ______ ____
ROOT
ATOM      1  O   UNL     1     -34.218  25.177   2.973  0.00  0.00    -0.337 OA
ATOM      2  C   UNL     1     -36.327  23.966   3.107  0.00  0.00    +0.172 C 
ATOM      3  C   UNL     1     -36.678  24.717   4.392  0.00  0.00    +0.144 C 
ATOM      4  C   UNL     1     -34.807  23.873   2.923  0.00  0.00    +0.147 C 
ATOM      5  C   UNL     1     -35.920  26.040   4.466  0.00  0.00    +0.084 C 
ATOM      6  C   UNL     1     -34.431  25.821   4.229  0.00  0.00    +0.209 C 
ATOM      7  C   UNL     1     -34.440  23.254   1.578  0.00  0.00    +0.035 C 
ENDROOT
BRANCH   6  10
ATOM      8  O   UNL     1     -32.870  26.757   6.338  0.00  0.00    -0.193 OA
ATOM      9  O   UNL     1     -33.220  31.691   2.730  0.00  0.00    -0.270 OA
ATOM     10  N   UNL     1     -33.720  27.071   4.211  0.00  0.00    -0.180 N 
ATOM     11  N   UNL     1     -32.274  28.680   5.284  0.00  0.00    -0.305 NA
ATOM     12  N   UNL     1     -31.720  30.608   4.141  0.00  0.00    -0.255 N 
ATOM     13  C   UNL     1     -33.785  27.896   3.095  0.00  0.00    +0.083 C 
ATOM     14  C   UNL     1     -32.947  27.468   5.336  0.00  0.00    +0.275 C 
ATOM     15  C   UNL     1     -33.149  29.065   3.019  0.00  0.00    +0.066 C 
ATOM     16  C   UNL     1     -32.372  29.406   4.220  0.00  0.00    +0.202 C 
ATOM     17  C   UNL     1     -32.192  31.676   3.396  0.00  0.00    +0.251 C 
ATOM     18  H   UNL     1     -30.877  30.717   4.636  0.00  0.00    +0.158 HD
BRANCH  17  19
ATOM     19  C   UNL     1     -31.292  32.859   3.526  0.00  0.00    +0.050 C 
ATOM     20  C   UNL     1     -30.286  33.167   2.687  0.00  0.00    -0.039 C 
ATOM     21  C   UNL     1     -30.015  32.292   1.489  0.00  0.00    +0.027 C 
ATOM     22  C   UNL     1     -29.369  34.353   2.799  0.00  0.00    +0.027 C 
ENDBRANCH  17  19
ENDBRANCH   6  10
BRANCH   3  23
ATOM     23  O   UNL     1     -38.080  24.973   4.413  0.00  0.00    -0.382 OA
ATOM     24  H   UNL     1     -38.504  24.505   3.677  0.00  0.00    +0.210 HD
ENDBRANCH   3  23
BRANCH   2  25
ATOM     25  O   UNL     1     -36.896  22.660   3.151  0.00  0.00    -0.326 OA
BRANCH  25  30
ATOM     26  O   UNL     1     -38.205  23.694   1.506  0.00  0.00    -0.333 OA
ATOM     27  C   UNL     1     -39.647  22.438  -0.055  0.00  0.00    -0.000 C 
ATOM     28  C   UNL     1     -39.436  21.178   0.807  0.00  0.00    +0.126 C 
ATOM     29  C   UNL     1     -38.179  21.267   1.677  0.00  0.00    +0.192 C 
ATOM     30  C   UNL     1     -38.120  22.603   2.421  0.00  0.00    +0.265 C 
ATOM     31  C   UNL     1     -39.410  23.745   0.733  0.00  0.00    +0.102 C 
ATOM     32  C   UNL     1     -40.600  24.155   1.603  0.00  0.00    +0.030 C 
BRANCH  27  33
ATOM     33  N   UNL     1     -38.720  22.405  -1.195  0.00  0.00    +0.389 N 
ATOM     34  C   UNL     1     -38.800  23.653  -1.951  0.00  0.00    -0.100 C 
ATOM     35  C   UNL     1     -39.015  21.263  -2.057  0.00  0.00    -0.100 C 
ATOM     36  H   UNL     1     -37.770  22.305  -0.840  0.00  0.00    -0.080 HD
ENDBRANCH  27  33
BRANCH  28  37
ATOM     37  O   UNL     1     -40.561  20.986   1.664  0.00  0.00    -0.384 OA
ATOM     38  H   UNL     1     -41.338  21.421   1.280  0.00  0.00    +0.210 HD
ENDBRANCH  28  37
BRANCH  29  39
ATOM     39  O   UNL     1     -37.015  21.145   0.860  0.00  0.00    -0.378 OA
ATOM     40  H   UNL     1     -37.115  20.384   0.266  0.00  0.00    +0.211 HD
ENDBRANCH  29  39
ENDBRANCH  25  30
ENDBRANCH   2  25
TORSDOF 8
ENDMDL
MODEL 3
REMARK VINA RESULT:      -6.5      5.185      7.589
REMARK  Name = 190896
REMARK  8 active torsions:
REMARK  status: ('A' for Active; 'I' for Inactive)
REMARK    1  A    between atoms: C_2  and  O_25
REMARK    2  A    between atoms: C_3  and  O_23
REMARK    3  A    between atoms: C_6  and  N_10
REMARK    4  A    between atoms: C_17  and  C_19
REMARK    5  A    between atoms: O_25  and  C_30
REMARK    6  A    between atoms: C_27  and  N_33
REMARK    7  A    between atoms: C_28  and  O_37
REMARK    8  A    between atoms: C_29  and  O_39
REMARK                            x       y       z     vdW  Elec       q    Type
REMARK                         _______ _______ _______ _____ _____    ______ ____
ROOT
ATOM      1  O   UNL     1     -36.676  23.474   2.772  0.00  0.00    -0.337 OA
ATOM      2  C   UNL     1     -39.000  23.333   2.055  0.00  0.00    +0.172 C 
ATOM      3  C   UNL     1     -39.359  24.490   2.988  0.00  0.00    +0.144 C 
ATOM      4  C   UNL     1     -37.770  22.573   2.570  0.00  0.00    +0.147 C 
ATOM      5  C   UNL     1     -38.129  25.345   3.284  0.00  0.00    +0.084 C 
ATOM      6  C   UNL     1     -36.968  24.474   3.748  0.00  0.00    +0.209 C 
ATOM      7  C   UNL     1     -37.312  21.507   1.581  0.00  0.00    +0.035 C 
ENDROOT
BRANCH   6  10
ATOM      8  O   UNL     1     -34.948  23.814   5.549  0.00  0.00    -0.193 OA
ATOM      9  O   UNL     1     -33.419  29.526   3.965  0.00  0.00    -0.270 OA
ATOM     10  N   UNL     1     -35.779  25.258   3.947  0.00  0.00    -0.180 N 
ATOM     11  N   UNL     1     -33.666  25.624   5.056  0.00  0.00    -0.305 NA
ATOM     12  N   UNL     1     -32.427  27.489   4.495  0.00  0.00    -0.255 N 
ATOM     13  C   UNL     1     -35.581  26.424   3.218  0.00  0.00    +0.083 C 
ATOM     14  C   UNL     1     -34.800  24.843   4.890  0.00  0.00    +0.275 C 
ATOM     15  C   UNL     1     -34.501  27.192   3.358  0.00  0.00    +0.066 C 
ATOM     16  C   UNL     1     -33.536  26.698   4.351  0.00  0.00    +0.202 C 
ATOM     17  C   UNL     1     -32.444  28.859   4.291  0.00  0.00    +0.251 C 
ATOM     18  H   UNL     1     -31.579  27.064   4.755  0.00  0.00    +0.158 HD
BRANCH  17  19
ATOM     19  C   UNL     1     -31.103  29.457   4.551  0.00  0.00    +0.050 C 
ATOM     20  C   UNL     1     -30.647  29.852   5.754  0.00  0.00    -0.039 C 
ATOM     21  C   UNL     1     -31.513  29.681   6.976  0.00  0.00    +0.027 C 
ATOM     22  C   UNL     1     -29.301  30.457   6.038  0.00  0.00    +0.027 C 
ENDBRANCH  17  19
ENDBRANCH   6  10
BRANCH   3  23
ATOM     23  O   UNL     1     -40.356  25.296   2.366  0.00  0.00    -0.382 OA
ATOM     24  H   UNL     1     -40.016  25.640   1.525  0.00  0.00    +0.210 HD
ENDBRANCH   3  23
BRANCH   2  25
ATOM     25  O   UNL     1     -40.111  22.449   1.946  0.00  0.00    -0.326 OA
BRANCH  25  30
ATOM     26  O   UNL     1     -41.225  20.966   0.515  0.00  0.00    -0.333 OA
ATOM     27  C   UNL     1     -42.170  21.648  -1.662  0.00  0.00    -0.000 C 
ATOM     28  C   UNL     1     -41.408  22.983  -1.544  0.00  0.00    +0.126 C 
ATOM     29  C   UNL     1     -41.026  23.312  -0.098  0.00  0.00    +0.192 C 
ATOM     30  C   UNL     1     -40.374  22.109   0.586  0.00  0.00    +0.265 C 
ATOM     31  C   UNL     1     -41.537  20.524  -0.812  0.00  0.00    +0.102 C 
ATOM     32  C   UNL     1     -40.319  19.874  -1.472  0.00  0.00    +0.030 C 
BRANCH  27  33
ATOM     33  N   UNL     1     -43.558  21.841  -1.221  0.00  0.00    +0.389 N 
ATOM     34  C   UNL     1     -44.261  20.561  -1.181  0.00  0.00    -0.100 C 
ATOM     35  C   UNL     1     -44.247  22.778  -2.106  0.00  0.00    -0.100 C 
ATOM     36  H   UNL     1     -43.550  22.233  -0.280  0.00  0.00    -0.080 HD
ENDBRANCH  27  33
BRANCH  28  37
ATOM     37  O   UNL     1     -40.213  22.927  -2.321  0.00  0.00    -0.384 OA
ATOM     38  H   UNL     1     -39.719  23.755  -2.215  0.00  0.00    +0.210 HD
ENDBRANCH  28  37
BRANCH  29  39
ATOM     39  O   UNL     1     -42.191  23.683   0.639  0.00  0.00    -0.378 OA
ATOM     40  H   UNL     1     -42.949  23.745   0.036  0.00  0.00    +0.211 HD
ENDBRANCH  29  39
ENDBRANCH  25  30
ENDBRANCH   2  25
TORSDOF 8
ENDMDL
MODEL 4
REMARK VINA RESULT:      -6.4      6.110      9.508
REMARK  Name = 190896
REMARK  8 active torsions:
REMARK  status: ('A' for Active; 'I' for Inactive)
REMARK    1  A    between atoms: C_2  and  O_25
REMARK    2  A    between atoms: C_3  and  O_23
REMARK    3  A    between atoms: C_6  and  N_10
REMARK    4  A    between atoms: C_17  and  C_19
REMARK    5  A    between atoms: O_25  and  C_30
REMARK    6  A    between atoms: C_27  and  N_33
REMARK    7  A    between atoms: C_28  and  O_37
REMARK    8  A    between atoms: C_29  and  O_39
REMARK                            x       y       z     vdW  Elec       q    Type
REMARK                         _______ _______ _______ _____ _____    ______ ____
ROOT
ATOM      1  O   UNL     1     -33.941  26.744   3.307  0.00  0.00    -0.337 OA
ATOM      2  C   UNL     1     -32.515  27.816   4.965  0.00  0.00    +0.172 C 
ATOM      3  C   UNL     1     -33.235  27.053   6.078  0.00  0.00    +0.144 C 
ATOM      4  C   UNL     1     -33.432  28.006   3.749  0.00  0.00    +0.147 C 
ATOM      5  C   UNL     1     -33.879  25.782   5.530  0.00  0.00    +0.084 C 
ATOM      6  C   UNL     1     -34.729  26.096   4.305  0.00  0.00    +0.209 C 
ATOM      7  C   UNL     1     -32.688  28.639   2.577  0.00  0.00    +0.035 C 
ENDROOT
BRANCH   6  10
ATOM      8  O   UNL     1     -37.226  25.046   4.955  0.00  0.00    -0.193 OA
ATOM      9  O   UNL     1     -34.724  20.475   1.741  0.00  0.00    -0.270 OA
ATOM     10  N   UNL     1     -35.271  24.894   3.729  0.00  0.00    -0.180 N 
ATOM     11  N   UNL     1     -37.049  23.270   3.548  0.00  0.00    -0.305 NA
ATOM     12  N   UNL     1     -36.785  21.496   2.094  0.00  0.00    -0.255 N 
ATOM     13  C   UNL     1     -34.542  24.180   2.787  0.00  0.00    +0.083 C 
ATOM     14  C   UNL     1     -36.557  24.433   4.122  0.00  0.00    +0.275 C 
ATOM     15  C   UNL     1     -34.991  23.061   2.220  0.00  0.00    +0.066 C 
ATOM     16  C   UNL     1     -36.325  22.648   2.677  0.00  0.00    +0.202 C 
ATOM     17  C   UNL     1     -35.947  20.482   1.662  0.00  0.00    +0.251 C 
ATOM     18  H   UNL     1     -37.755  21.386   1.975  0.00  0.00    +0.158 HD
BRANCH  17  19
ATOM     19  C   UNL     1     -36.729  19.343   1.100  0.00  0.00    +0.050 C 
ATOM     20  C   UNL     1     -37.047  19.183  -0.198  0.00  0.00    -0.039 C 
ATOM     21  C   UNL     1     -36.583  20.196  -1.213  0.00  0.00    +0.027 C 
ATOM     22  C   UNL     1     -37.834  18.044  -0.785  0.00  0.00    +0.027 C 
ENDBRANCH  17  19
ENDBRANCH   6  10
BRANCH   3  23
ATOM     23  O   UNL     1     -32.291  26.707   7.088  0.00  0.00    -0.382 OA
ATOM     24  H   UNL     1     -32.524  27.157   7.916  0.00  0.00    +0.210 HD
ENDBRANCH   3  23
BRANCH   2  25
ATOM     25  O   UNL     1     -32.088  29.083   5.458  0.00  0.00    -0.326 OA
BRANCH  25  30
ATOM     26  O   UNL     1     -30.041  28.003   5.095  0.00  0.00    -0.333 OA
ATOM     27  C   UNL     1     -27.880  29.197   5.035  0.00  0.00    -0.000 C 
ATOM     28  C   UNL     1     -28.585  30.446   5.599  0.00  0.00    +0.126 C 
ATOM     29  C   UNL     1     -30.098  30.421   5.362  0.00  0.00    +0.192 C 
ATOM     30  C   UNL     1     -30.696  29.075   5.772  0.00  0.00    +0.265 C 
ATOM     31  C   UNL     1     -28.637  27.890   5.358  0.00  0.00    +0.102 C 
ATOM     32  C   UNL     1     -28.386  27.376   6.777  0.00  0.00    +0.030 C 
BRANCH  27  33
ATOM     33  N   UNL     1     -27.766  29.322   3.575  0.00  0.00    +0.389 N 
ATOM     34  C   UNL     1     -27.210  28.099   3.002  0.00  0.00    -0.100 C 
ATOM     35  C   UNL     1     -26.938  30.475   3.227  0.00  0.00    -0.100 C 
ATOM     36  H   UNL     1     -28.698  29.466   3.187  0.00  0.00    -0.080 HD
ENDBRANCH  27  33
BRANCH  28  37
ATOM     37  O   UNL     1     -28.353  30.537   7.004  0.00  0.00    -0.384 OA
ATOM     38  H   UNL     1     -28.745  29.768   7.447  0.00  0.00    +0.210 HD
ENDBRANCH  28  37
BRANCH  29  39
ATOM     39  O   UNL     1     -30.375  30.645   3.979  0.00  0.00    -0.378 OA
ATOM     40  H   UNL     1     -30.055  31.524   3.723  0.00  0.00    +0.211 HD
ENDBRANCH  29  39
ENDBRANCH  25  30
ENDBRANCH   2  25
TORSDOF 8
ENDMDL
MODEL 5
REMARK VINA RESULT:      -6.3      4.803      8.216
REMARK  Name = 190896
REMARK  8 active torsions:
REMARK  status: ('A' for Active; 'I' for Inactive)
REMARK    1  A    between atoms: C_2  and  O_25
REMARK    2  A    between atoms: C_3  and  O_23
REMARK    3  A    between atoms: C_6  and  N_10
REMARK    4  A    between atoms: C_17  and  C_19
REMARK    5  A    between atoms: O_25  and  C_30
REMARK    6  A    between atoms: C_27  and  N_33
REMARK    7  A    between atoms: C_28  and  O_37
REMARK    8  A    between atoms: C_29  and  O_39
REMARK                            x       y       z     vdW  Elec       q    Type
REMARK                         _______ _______ _______ _____ _____    ______ ____
ROOT
ATOM      1  O   UNL     1     -36.380  25.306   2.796  0.00  0.00    -0.337 OA
ATOM      2  C   UNL     1     -37.250  23.062   3.174  0.00  0.00    +0.172 C 
ATOM      3  C   UNL     1     -35.822  22.532   3.316  0.00  0.00    +0.144 C 
ATOM      4  C   UNL     1     -37.284  24.318   2.291  0.00  0.00    +0.147 C 
ATOM      5  C   UNL     1     -34.870  23.654   3.723  0.00  0.00    +0.084 C 
ATOM      6  C   UNL     1     -35.026  24.855   2.798  0.00  0.00    +0.209 C 
ATOM      7  C   UNL     1     -38.675  24.941   2.254  0.00  0.00    +0.035 C 
ENDROOT
BRANCH   6  10
ATOM      8  O   UNL     1     -34.033  26.816   1.087  0.00  0.00    -0.193 OA
ATOM      9  O   UNL     1     -30.865  27.882   6.217  0.00  0.00    -0.270 OA
ATOM     10  N   UNL     1     -34.196  25.949   3.224  0.00  0.00    -0.180 N 
ATOM     11  N   UNL     1     -32.934  27.946   2.725  0.00  0.00    -0.305 NA
ATOM     12  N   UNL     1     -31.848  29.031   4.448  0.00  0.00    -0.255 N 
ATOM     13  C   UNL     1     -33.842  26.077   4.561  0.00  0.00    +0.083 C 
ATOM     14  C   UNL     1     -33.734  26.904   2.278  0.00  0.00    +0.275 C 
ATOM     15  C   UNL     1     -33.075  27.068   5.016  0.00  0.00    +0.066 C 
ATOM     16  C   UNL     1     -32.637  28.014   3.980  0.00  0.00    +0.202 C 
ATOM     17  C   UNL     1     -31.011  28.895   5.543  0.00  0.00    +0.251 C 
ATOM     18  H   UNL     1     -31.879  29.900   3.986  0.00  0.00    +0.158 HD
BRANCH  17  19
ATOM     19  C   UNL     1     -30.254  30.155   5.799  0.00  0.00    +0.050 C 
ATOM     20  C   UNL     1     -29.020  30.429   5.340  0.00  0.00    -0.039 C 
ATOM     21  C   UNL     1     -28.304  29.425   4.472  0.00  0.00    +0.027 C 
ATOM     22  C   UNL     1     -28.241  31.690   5.586  0.00  0.00    +0.027 C 
ENDBRANCH  17  19
ENDBRANCH   6  10
BRANCH   3  23
ATOM     23  O   UNL     1     -35.803  21.511   4.310  0.00  0.00    -0.382 OA
ATOM     24  H   UNL     1     -35.269  20.765   3.995  0.00  0.00    +0.210 HD
ENDBRANCH   3  23
BRANCH   2  25
ATOM     25  O   UNL     1     -38.079  22.048   2.614  0.00  0.00    -0.326 OA
BRANCH  25  30
ATOM     26  O   UNL     1     -36.925  20.266   1.622  0.00  0.00    -0.333 OA
ATOM     27  C   UNL     1     -37.320  19.532  -0.701  0.00  0.00    -0.000 C 
ATOM     28  C   UNL     1     -38.140  20.816  -0.939  0.00  0.00    +0.126 C 
ATOM     29  C   UNL     1     -38.651  21.433   0.365  0.00  0.00    +0.192 C 
ATOM     30  C   UNL     1     -37.529  21.540   1.399  0.00  0.00    +0.265 C 
ATOM     31  C   UNL     1     -36.320  19.672   0.467  0.00  0.00    +0.102 C 
ATOM     32  C   UNL     1     -35.035  20.408   0.084  0.00  0.00    +0.030 C 
BRANCH  27  33
ATOM     33  N   UNL     1     -38.235  18.421  -0.403  0.00  0.00    +0.389 N 
ATOM     34  C   UNL     1     -37.480  17.199  -0.135  0.00  0.00    -0.100 C 
ATOM     35  C   UNL     1     -39.165  18.217  -1.511  0.00  0.00    -0.100 C 
ATOM     36  H   UNL     1     -38.773  18.657   0.431  0.00  0.00    -0.080 HD
ENDBRANCH  27  33
BRANCH  28  37
ATOM     37  O   UNL     1     -37.334  21.785  -1.609  0.00  0.00    -0.384 OA
ATOM     38  H   UNL     1     -37.878  22.556  -1.835  0.00  0.00    +0.210 HD
ENDBRANCH  28  37
BRANCH  29  39
ATOM     39  O   UNL     1     -39.698  20.627   0.905  0.00  0.00    -0.378 OA
ATOM     40  H   UNL     1     -40.151  20.161   0.186  0.00  0.00    +0.211 HD
ENDBRANCH  29  39
ENDBRANCH  25  30
ENDBRANCH   2  25
TORSDOF 8
ENDMDL
MODEL 6
REMARK VINA RESULT:      -6.3      5.772     11.098
REMARK  Name = 190896
REMARK  8 active torsions:
REMARK  status: ('A' for Active; 'I' for Inactive)
REMARK    1  A    between atoms: C_2  and  O_25
REMARK    2  A    between atoms: C_3  and  O_23
REMARK    3  A    between atoms: C_6  and  N_10
REMARK    4  A    between atoms: C_17  and  C_19
REMARK    5  A    between atoms: O_25  and  C_30
REMARK    6  A    between atoms: C_27  and  N_33
REMARK    7  A    between atoms: C_28  and  O_37
REMARK    8  A    between atoms: C_29  and  O_39
REMARK                            x       y       z     vdW  Elec       q    Type
REMARK                         _______ _______ _______ _____ _____    ______ ____
ROOT
ATOM      1  O   UNL     1     -35.374  25.814   4.287  0.00  0.00    -0.337 OA
ATOM      2  C   UNL     1     -33.285  26.903   3.670  0.00  0.00    +0.172 C 
ATOM      3  C   UNL     1     -33.541  26.564   2.201  0.00  0.00    +0.144 C 
ATOM      4  C   UNL     1     -33.979  25.894   4.595  0.00  0.00    +0.147 C 
ATOM      5  C   UNL     1     -35.032  26.352   1.950  0.00  0.00    +0.084 C 
ATOM      6  C   UNL     1     -35.611  25.363   2.954  0.00  0.00    +0.209 C 
ATOM      7  C   UNL     1     -33.853  26.297   6.061  0.00  0.00    +0.035 C 
ENDROOT
BRANCH   6  10
ATOM      8  O   UNL     1     -37.058  23.113   3.730  0.00  0.00    -0.193 OA
ATOM      9  O   UNL     1     -41.169  26.174   0.381  0.00  0.00    -0.270 OA
ATOM     10  N   UNL     1     -37.032  25.221   2.781  0.00  0.00    -0.180 N 
ATOM     11  N   UNL     1     -39.058  23.931   3.026  0.00  0.00    -0.305 NA
ATOM     12  N   UNL     1     -41.046  24.839   2.283  0.00  0.00    -0.255 N 
ATOM     13  C   UNL     1     -37.770  26.243   2.197  0.00  0.00    +0.083 C 
ATOM     14  C   UNL     1     -37.687  24.034   3.208  0.00  0.00    +0.275 C 
ATOM     15  C   UNL     1     -39.088  26.169   2.010  0.00  0.00    +0.066 C 
ATOM     16  C   UNL     1     -39.692  24.913   2.477  0.00  0.00    +0.202 C 
ATOM     17  C   UNL     1     -41.697  25.479   1.241  0.00  0.00    +0.251 C 
ATOM     18  H   UNL     1     -41.582  24.307   2.914  0.00  0.00    +0.158 HD
BRANCH  17  19
ATOM     19  C   UNL     1     -43.161  25.192   1.265  0.00  0.00    +0.050 C 
ATOM     20  C   UNL     1     -44.057  25.785   2.075  0.00  0.00    -0.039 C 
ATOM     21  C   UNL     1     -43.604  26.850   3.041  0.00  0.00    +0.027 C 
ATOM     22  C   UNL     1     -45.534  25.510   2.115  0.00  0.00    +0.027 C 
ENDBRANCH  17  19
ENDBRANCH   6  10
BRANCH   3  23
ATOM     23  O   UNL     1     -33.073  27.637   1.388  0.00  0.00    -0.382 OA
ATOM     24  H   UNL     1     -33.818  28.023   0.901  0.00  0.00    +0.210 HD
ENDBRANCH   3  23
BRANCH   2  25
ATOM     25  O   UNL     1     -31.882  26.910   3.917  0.00  0.00    -0.326 OA
BRANCH  25  30
ATOM     26  O   UNL     1     -31.227  28.226   5.742  0.00  0.00    -0.333 OA
ATOM     27  C   UNL     1     -29.502  29.985   5.584  0.00  0.00    -0.000 C 
ATOM     28  C   UNL     1     -29.558  29.864   4.048  0.00  0.00    +0.126 C 
ATOM     29  C   UNL     1     -30.136  28.523   3.587  0.00  0.00    +0.192 C 
ATOM     30  C   UNL     1     -31.433  28.200   4.330  0.00  0.00    +0.265 C 
ATOM     31  C   UNL     1     -30.794  29.486   6.268  0.00  0.00    +0.102 C 
ATOM     32  C   UNL     1     -31.931  30.509   6.241  0.00  0.00    +0.030 C 
BRANCH  27  33
ATOM     33  N   UNL     1     -28.370  29.196   6.091  0.00  0.00    +0.389 N 
ATOM     34  C   UNL     1     -28.381  29.173   7.551  0.00  0.00    -0.100 C 
ATOM     35  C   UNL     1     -27.108  29.741   5.595  0.00  0.00    -0.100 C 
ATOM     36  H   UNL     1     -28.463  28.238   5.753  0.00  0.00    -0.080 HD
ENDBRANCH  27  33
BRANCH  28  37
ATOM     37  O   UNL     1     -30.369  30.910   3.512  0.00  0.00    -0.384 OA
ATOM     38  H   UNL     1     -30.089  31.101   2.603  0.00  0.00    +0.210 HD
ENDBRANCH  28  37
BRANCH  29  39
ATOM     39  O   UNL     1     -29.193  27.480   3.833  0.00  0.00    -0.378 OA
ATOM     40  H   UNL     1     -28.691  27.681   4.638  0.00  0.00    +0.211 HD
ENDBRANCH  29  39
ENDBRANCH  25  30
ENDBRANCH   2  25
TORSDOF 8
ENDMDL
MODEL 7
REMARK VINA RESULT:      -6.3      5.059     10.640
REMARK  Name = 190896
REMARK  8 active torsions:
REMARK  status: ('A' for Active; 'I' for Inactive)
REMARK    1  A    between atoms: C_2  and  O_25
REMARK    2  A    between atoms: C_3  and  O_23
REMARK    3  A    between atoms: C_6  and  N_10
REMARK    4  A    between atoms: C_17  and  C_19
REMARK    5  A    between atoms: O_25  and  C_30
REMARK    6  A    between atoms: C_27  and  N_33
REMARK    7  A    between atoms: C_28  and  O_37
REMARK    8  A    between atoms: C_29  and  O_39
REMARK                            x       y       z     vdW  Elec       q    Type
REMARK                         _______ _______ _______ _____ _____    ______ ____
ROOT
ATOM      1  O   UNL     1     -34.322  26.644   1.838  0.00  0.00    -0.337 OA
ATOM      2  C   UNL     1     -35.246  24.546   2.659  0.00  0.00    +0.172 C 
ATOM      3  C   UNL     1     -35.849  25.280   3.858  0.00  0.00    +0.144 C 
ATOM      4  C   UNL     1     -34.005  25.280   2.134  0.00  0.00    +0.147 C 
ATOM      5  C   UNL     1     -36.041  26.761   3.540  0.00  0.00    +0.084 C 
ATOM      6  C   UNL     1     -34.754  27.365   2.991  0.00  0.00    +0.209 C 
ATOM      7  C   UNL     1     -33.475  24.642   0.854  0.00  0.00    +0.035 C 
ENDROOT
BRANCH   6  10
ATOM      8  O   UNL     1     -33.324  29.499   4.067  0.00  0.00    -0.193 OA
ATOM      9  O   UNL     1     -37.765  32.372   0.984  0.00  0.00    -0.270 OA
ATOM     10  N   UNL     1     -34.948  28.738   2.608  0.00  0.00    -0.180 N 
ATOM     11  N   UNL     1     -34.384  31.076   2.820  0.00  0.00    -0.305 NA
ATOM     12  N   UNL     1     -35.512  32.610   1.516  0.00  0.00    -0.255 N 
ATOM     13  C   UNL     1     -35.895  29.068   1.647  0.00  0.00    +0.083 C 
ATOM     14  C   UNL     1     -34.171  29.763   3.213  0.00  0.00    +0.275 C 
ATOM     15  C   UNL     1     -36.120  30.321   1.252  0.00  0.00    +0.066 C 
ATOM     16  C   UNL     1     -35.279  31.323   1.922  0.00  0.00    +0.202 C 
ATOM     17  C   UNL     1     -36.748  33.050   1.071  0.00  0.00    +0.251 C 
ATOM     18  H   UNL     1     -34.767  33.252   1.540  0.00  0.00    +0.158 HD
BRANCH  17  19
ATOM     19  C   UNL     1     -36.709  34.501   0.728  0.00  0.00    +0.050 C 
ATOM     20  C   UNL     1     -37.480  35.453   1.284  0.00  0.00    -0.039 C 
ATOM     21  C   UNL     1     -38.465  35.083   2.364  0.00  0.00    +0.027 C 
ATOM     22  C   UNL     1     -37.456  36.919   0.953  0.00  0.00    +0.027 C 
ENDBRANCH  17  19
ENDBRANCH   6  10
BRANCH   3  23
ATOM     23  O   UNL     1     -37.111  24.696   4.173  0.00  0.00    -0.382 OA
ATOM     24  H   UNL     1     -37.135  23.784   3.843  0.00  0.00    +0.210 HD
ENDBRANCH   3  23
BRANCH   2  25
ATOM     25  O   UNL     1     -34.903  23.217   3.041  0.00  0.00    -0.326 OA
BRANCH  25  30
ATOM     26  O   UNL     1     -36.675  22.857   1.551  0.00  0.00    -0.333 OA
ATOM     27  C   UNL     1     -37.126  20.671   0.497  0.00  0.00    -0.000 C 
ATOM     28  C   UNL     1     -36.124  20.024   1.473  0.00  0.00    +0.126 C 
ATOM     29  C   UNL     1     -35.140  21.039   2.060  0.00  0.00    +0.192 C 
ATOM     30  C   UNL     1     -35.873  22.278   2.579  0.00  0.00    +0.265 C 
ATOM     31  C   UNL     1     -37.700  22.003   1.029  0.00  0.00    +0.102 C 
ATOM     32  C   UNL     1     -38.828  21.817   2.045  0.00  0.00    +0.030 C 
BRANCH  27  33
ATOM     33  N   UNL     1     -36.456  20.930  -0.785  0.00  0.00    +0.389 N 
ATOM     34  C   UNL     1     -37.343  21.666  -1.683  0.00  0.00    -0.100 C 
ATOM     35  C   UNL     1     -36.030  19.674  -1.399  0.00  0.00    -0.100 C 
ATOM     36  H   UNL     1     -35.628  21.501  -0.611  0.00  0.00    -0.080 HD
ENDBRANCH  27  33
BRANCH  28  37
ATOM     37  O   UNL     1     -36.829  19.409   2.550  0.00  0.00    -0.384 OA
ATOM     38  H   UNL     1     -37.763  19.669   2.516  0.00  0.00    +0.210 HD
ENDBRANCH  28  37
BRANCH  29  39
ATOM     39  O   UNL     1     -34.207  21.444   1.058  0.00  0.00    -0.378 OA
ATOM     40  H   UNL     1     -33.883  22.336   1.260  0.00  0.00    +0.211 HD
ENDBRANCH  29  39
ENDBRANCH  25  30
ENDBRANCH   2  25
TORSDOF 8
ENDMDL
MODEL 8
REMARK VINA RESULT:      -6.2      7.760     12.604
REMARK  Name = 190896
REMARK  8 active torsions:
REMARK  status: ('A' for Active; 'I' for Inactive)
REMARK    1  A    between atoms: C_2  and  O_25
REMARK    2  A    between atoms: C_3  and  O_23
REMARK    3  A    between atoms: C_6  and  N_10
REMARK    4  A    between atoms: C_17  and  C_19
REMARK    5  A    between atoms: O_25  and  C_30
REMARK    6  A    between atoms: C_27  and  N_33
REMARK    7  A    between atoms: C_28  and  O_37
REMARK    8  A    between atoms: C_29  and  O_39
REMARK                            x       y       z     vdW  Elec       q    Type
REMARK                         _______ _______ _______ _____ _____    ______ ____
ROOT
ATOM      1  O   UNL     1     -33.589  30.729   2.976  0.00  0.00    -0.337 OA
ATOM      2  C   UNL     1     -33.262  28.406   2.319  0.00  0.00    +0.172 C 
ATOM      3  C   UNL     1     -34.413  28.527   1.318  0.00  0.00    +0.144 C 
ATOM      4  C   UNL     1     -33.437  29.398   3.478  0.00  0.00    +0.147 C 
ATOM      5  C   UNL     1     -34.626  29.984   0.917  0.00  0.00    +0.084 C 
ATOM      6  C   UNL     1     -34.745  30.870   2.150  0.00  0.00    +0.209 C 
ATOM      7  C   UNL     1     -32.230  29.391   4.410  0.00  0.00    +0.035 C 
ENDROOT
BRANCH   6  10
ATOM      8  O   UNL     1     -37.167  32.161   1.676  0.00  0.00    -0.193 OA
ATOM      9  O   UNL     1     -33.116  36.277  -0.356  0.00  0.00    -0.270 OA
ATOM     10  N   UNL     1     -34.859  32.256   1.784  0.00  0.00    -0.180 N 
ATOM     11  N   UNL     1     -36.214  34.170   1.207  0.00  0.00    -0.305 NA
ATOM     12  N   UNL     1     -35.163  36.173   0.745  0.00  0.00    -0.255 N 
ATOM     13  C   UNL     1     -33.721  33.039   1.646  0.00  0.00    +0.083 C 
ATOM     14  C   UNL     1     -36.140  32.831   1.560  0.00  0.00    +0.275 C 
ATOM     15  C   UNL     1     -33.763  34.328   1.308  0.00  0.00    +0.066 C 
ATOM     16  C   UNL     1     -35.121  34.849   1.094  0.00  0.00    +0.202 C 
ATOM     17  C   UNL     1     -34.151  36.801   0.040  0.00  0.00    +0.251 C 
ATOM     18  H   UNL     1     -35.949  36.702   1.010  0.00  0.00    +0.158 HD
BRANCH  17  19
ATOM     19  C   UNL     1     -34.487  38.231  -0.222  0.00  0.00    +0.050 C 
ATOM     20  C   UNL     1     -33.978  39.284   0.442  0.00  0.00    -0.039 C 
ATOM     21  C   UNL     1     -32.965  39.061   1.536  0.00  0.00    +0.027 C 
ATOM     22  C   UNL     1     -34.303  40.731   0.194  0.00  0.00    +0.027 C 
ENDBRANCH  17  19
ENDBRANCH   6  10
BRANCH   3  23
ATOM     23  O   UNL     1     -34.102  27.757   0.160  0.00  0.00    -0.382 OA
ATOM     24  H   UNL     1     -34.913  27.599  -0.349  0.00  0.00    +0.210 HD
ENDBRANCH   3  23
BRANCH   2  25
ATOM     25  O   UNL     1     -33.207  27.074   2.820  0.00  0.00    -0.326 OA
BRANCH  25  30
ATOM     26  O   UNL     1     -34.998  25.615   2.429  0.00  0.00    -0.333 OA
ATOM     27  C   UNL     1     -36.326  24.597   4.244  0.00  0.00    -0.000 C 
ATOM     28  C   UNL     1     -35.660  25.566   5.239  0.00  0.00    +0.126 C 
ATOM     29  C   UNL     1     -34.335  26.125   4.714  0.00  0.00    +0.192 C 
ATOM     30  C   UNL     1     -34.485  26.639   3.281  0.00  0.00    +0.265 C 
ATOM     31  C   UNL     1     -36.293  25.120   2.791  0.00  0.00    +0.102 C 
ATOM     32  C   UNL     1     -37.378  26.155   2.491  0.00  0.00    +0.030 C 
BRANCH  27  33
ATOM     33  N   UNL     1     -35.633  23.302   4.290  0.00  0.00    +0.389 N 
ATOM     34  C   UNL     1     -36.247  22.363   3.353  0.00  0.00    -0.100 C 
ATOM     35  C   UNL     1     -35.657  22.761   5.648  0.00  0.00    -0.100 C 
ATOM     36  H   UNL     1     -34.661  23.442   4.016  0.00  0.00    -0.080 HD
ENDBRANCH  27  33
BRANCH  28  37
ATOM     37  O   UNL     1     -36.535  26.662   5.504  0.00  0.00    -0.384 OA
ATOM     38  H   UNL     1     -36.202  27.165   6.264  0.00  0.00    +0.210 HD
ENDBRANCH  28  37
BRANCH  29  39
ATOM     39  O   UNL     1     -33.337  25.104   4.734  0.00  0.00    -0.378 OA
ATOM     40  H   UNL     1     -33.742  24.251   4.513  0.00  0.00    +0.211 HD
ENDBRANCH  29  39
ENDBRANCH  25  30
ENDBRANCH   2  25
TORSDOF 8
ENDMDL
MODEL 9
REMARK VINA RESULT:      -6.2      4.000      5.432
REMARK  Name = 190896
REMARK  8 active torsions:
REMARK  status: ('A' for Active; 'I' for Inactive)
REMARK    1  A    between atoms: C_2  and  O_25
REMARK    2  A    between atoms: C_3  and  O_23
REMARK    3  A    between atoms: C_6  and  N_10
REMARK    4  A    between atoms: C_17  and  C_19
REMARK    5  A    between atoms: O_25  and  C_30
REMARK    6  A    between atoms: C_27  and  N_33
REMARK    7  A    between atoms: C_28  and  O_37
REMARK    8  A    between atoms: C_29  and  O_39
REMARK                            x       y       z     vdW  Elec       q    Type
REMARK                         _______ _______ _______ _____ _____    ______ ____
ROOT
ATOM      1  O   UNL     1     -35.540  20.769   3.087  0.00  0.00    -0.337 OA
ATOM      2  C   UNL     1     -36.777  22.769   3.719  0.00  0.00    +0.172 C 
ATOM      3  C   UNL     1     -37.068  23.056   2.245  0.00  0.00    +0.144 C 
ATOM      4  C   UNL     1     -35.481  21.961   3.876  0.00  0.00    +0.147 C 
ATOM      5  C   UNL     1     -36.983  21.774   1.421  0.00  0.00    +0.084 C 
ATOM      6  C   UNL     1     -35.674  21.045   1.693  0.00  0.00    +0.209 C 
ATOM      7  C   UNL     1     -35.251  21.545   5.324  0.00  0.00    +0.035 C 
ENDROOT
BRANCH   6  10
ATOM      8  O   UNL     1     -33.347  19.557   1.328  0.00  0.00    -0.193 OA
ATOM      9  O   UNL     1     -37.258  16.745  -2.450  0.00  0.00    -0.270 OA
ATOM     10  N   UNL     1     -35.622  19.792   0.987  0.00  0.00    -0.180 N 
ATOM     11  N   UNL     1     -34.373  17.897   0.163  0.00  0.00    -0.305 NA
ATOM     12  N   UNL     1     -35.495  16.258  -1.013  0.00  0.00    -0.255 N 
ATOM     13  C   UNL     1     -36.777  19.252   0.437  0.00  0.00    +0.083 C 
ATOM     14  C   UNL     1     -34.387  19.102   0.850  0.00  0.00    +0.275 C 
ATOM     15  C   UNL     1     -36.792  18.097  -0.228  0.00  0.00    +0.066 C 
ATOM     16  C   UNL     1     -35.479  17.444  -0.328  0.00  0.00    +0.202 C 
ATOM     17  C   UNL     1     -36.390  15.987  -2.034  0.00  0.00    +0.251 C 
ATOM     18  H   UNL     1     -34.841  15.565  -0.766  0.00  0.00    +0.158 HD
BRANCH  17  19
ATOM     19  C   UNL     1     -36.150  14.633  -2.613  0.00  0.00    +0.050 C 
ATOM     20  C   UNL     1     -37.000  13.593  -2.538  0.00  0.00    -0.039 C 
ATOM     21  C   UNL     1     -38.327  13.759  -1.842  0.00  0.00    +0.027 C 
ATOM     22  C   UNL     1     -36.778  12.222  -3.113  0.00  0.00    +0.027 C 
ENDBRANCH  17  19
ENDBRANCH   6  10
BRANCH   3  23
ATOM     23  O   UNL     1     -38.376  23.608   2.129  0.00  0.00    -0.382 OA
ATOM     24  H   UNL     1     -38.312  24.533   1.842  0.00  0.00    +0.210 HD
ENDBRANCH   3  23
BRANCH   2  25
ATOM     25  O   UNL     1     -36.675  24.000   4.430  0.00  0.00    -0.326 OA
BRANCH  25  30
ATOM     26  O   UNL     1     -35.861  25.327   2.680  0.00  0.00    -0.333 OA
ATOM     27  C   UNL     1     -34.379  27.269   3.038  0.00  0.00    -0.000 C 
ATOM     28  C   UNL     1     -34.181  26.814   4.497  0.00  0.00    +0.126 C 
ATOM     29  C   UNL     1     -35.303  25.891   4.980  0.00  0.00    +0.192 C 
ATOM     30  C   UNL     1     -35.574  24.778   3.965  0.00  0.00    +0.265 C 
ATOM     31  C   UNL     1     -34.809  26.113   2.108  0.00  0.00    +0.102 C 
ATOM     32  C   UNL     1     -33.645  25.226   1.661  0.00  0.00    +0.030 C 
BRANCH  27  33
ATOM     33  N   UNL     1     -35.411  28.314   2.992  0.00  0.00    +0.389 N 
ATOM     34  C   UNL     1     -36.195  28.200   1.764  0.00  0.00    -0.100 C 
ATOM     35  C   UNL     1     -34.799  29.637   3.089  0.00  0.00    -0.100 C 
ATOM     36  H   UNL     1     -36.037  28.189   3.787  0.00  0.00    -0.080 HD
ENDBRANCH  27  33
BRANCH  28  37
ATOM     37  O   UNL     1     -32.942  26.116   4.621  0.00  0.00    -0.384 OA
ATOM     38  H   UNL     1     -32.825  25.826   5.539  0.00  0.00    +0.210 HD
ENDBRANCH  28  37
BRANCH  29  39
ATOM     39  O   UNL     1     -36.502  26.643   5.168  0.00  0.00    -0.378 OA
ATOM     40  H   UNL     1     -36.347  27.566   4.917  0.00  0.00    +0.211 HD
ENDBRANCH  29  39
ENDBRANCH  25  30
ENDBRANCH   2  25
TORSDOF 8
ENDMDL
