MODEL 1
REMARK VINA RESULT:      -6.4      0.000      0.000
REMARK  Name = 21592283
REMARK  7 active torsions:
REMARK  status: ('A' for Active; 'I' for Inactive)
REMARK    1  A    between atoms: C_7  and  C_29
REMARK    2  A    between atoms: C_13  and  O_25
REMARK    3  A    between atoms: C_17  and  O_27
REMARK    4  A    between atoms: C_29  and  C_31
REMARK    5  A    between atoms: C_31  and  C_32
REMARK    6  A    between atoms: C_32  and  C_34
REMARK    7  A    between atoms: C_34  and  O_35
REMARK                            x       y       z     vdW  Elec       q    Type
REMARK                         _______ _______ _______ _____ _____    ______ ____
ROOT
ATOM      1  O   UNL     1     -33.688  24.262   5.152  0.00  0.00    -0.296 OA
ATOM      2  O   UNL     1     -37.400  27.745   1.153  0.00  0.00    -0.292 OA
ATOM      3  C   UNL     1     -36.054  24.668   2.575  0.00  0.00    +0.017 C 
ATOM      4  C   UNL     1     -35.378  25.401   3.775  0.00  0.00    +0.069 C 
ATOM      5  C   UNL     1     -34.762  28.851   1.950  0.00  0.00    +0.021 C 
ATOM      6  C   UNL     1     -33.723  29.321   3.047  0.00  0.00    +0.009 C 
ATOM      7  C   UNL     1     -36.541  23.339   3.209  0.00  0.00    +0.008 C 
ATOM      8  C   UNL     1     -34.684  26.640   3.240  0.00  0.00    -0.013 C 
ATOM      9  C   UNL     1     -35.344  27.474   2.388  0.00  0.00    +0.007 C 
ATOM     10  C   UNL     1     -33.138  30.776   2.919  0.00  0.00    +0.025 C 
ATOM     11  C   UNL     1     -37.163  25.567   2.042  0.00  0.00    +0.069 C 
ATOM     12  C   UNL     1     -32.662  28.236   3.250  0.00  0.00    +0.034 C 
ATOM     13  C   UNL     1     -33.291  26.935   3.749  0.00  0.00    +0.129 C 
ATOM     14  C   UNL     1     -35.839  29.967   1.840  0.00  0.00    +0.007 C 
ATOM     15  C   UNL     1     -35.335  22.886   4.053  0.00  0.00    +0.065 C 
ATOM     16  C   UNL     1     -34.650  24.199   4.398  0.00  0.00    +0.153 C 
ATOM     17  C   UNL     1     -34.316  31.771   2.747  0.00  0.00    +0.110 C 
ATOM     18  C   UNL     1     -36.680  26.999   1.816  0.00  0.00    +0.169 C 
ATOM     19  C   UNL     1     -35.276  31.371   1.638  0.00  0.00    +0.030 C 
ATOM     20  C   UNL     1     -35.063  24.364   1.402  0.00  0.00    +0.001 C 
ATOM     21  C   UNL     1     -36.325  25.874   4.915  0.00  0.00    +0.012 C 
ATOM     22  C   UNL     1     -34.156  28.600   0.550  0.00  0.00    +0.004 C 
ATOM     23  C   UNL     1     -32.091  30.941   1.798  0.00  0.00    +0.002 C 
ATOM     24  C   UNL     1     -32.409  31.161   4.238  0.00  0.00    +0.002 C 
ENDROOT
BRANCH  13  25
ATOM     25  O   UNL     1     -32.414  25.876   3.358  0.00  0.00    -0.380 OA
ATOM     26  H   UNL     1     -32.415  25.797   2.391  0.00  0.00    +0.211 HD
ENDBRANCH  13  25
BRANCH  17  27
ATOM     27  O   UNL     1     -33.829  33.087   2.483  0.00  0.00    -0.384 OA
ATOM     28  H   UNL     1     -32.905  33.152   2.768  0.00  0.00    +0.210 HD
ENDBRANCH  17  27
BRANCH   7  29
ATOM     29  C   UNL     1     -37.011  22.255   2.247  0.00  0.00    +0.001 C 
ATOM     30  C   UNL     1     -38.540  22.163   2.271  0.00  0.00    +0.000 C 
BRANCH  29  31
ATOM     31  C   UNL     1     -36.344  20.910   2.597  0.00  0.00    +0.012 C 
BRANCH  31  32
ATOM     32  C   UNL     1     -35.395  20.394   1.514  0.00  0.00    +0.109 C 
BRANCH  32  34
ATOM     33  O   UNL     1     -35.877  19.455  -0.680  0.00  0.00    -0.250 OA
ATOM     34  C   UNL     1     -36.106  19.504   0.521  0.00  0.00    +0.314 C 
BRANCH  34  35
ATOM     35  O   UNL     1     -37.060  18.748   1.125  0.00  0.00    -0.480 OA
ATOM     36  H   UNL     1     -37.671  18.263   0.606  0.00  0.00    +0.295 HD
ENDBRANCH  34  35
ENDBRANCH  32  34
ENDBRANCH  31  32
ENDBRANCH  29  31
ENDBRANCH   7  29
TORSDOF 7
ENDMDL
MODEL 2
REMARK VINA RESULT:      -6.3      3.044      6.414
REMARK  Name = 21592283
REMARK  7 active torsions:
REMARK  status: ('A' for Active; 'I' for Inactive)
REMARK    1  A    between atoms: C_7  and  C_29
REMARK    2  A    between atoms: C_13  and  O_25
REMARK    3  A    between atoms: C_17  and  O_27
REMARK    4  A    between atoms: C_29  and  C_31
REMARK    5  A    between atoms: C_31  and  C_32
REMARK    6  A    between atoms: C_32  and  C_34
REMARK    7  A    between atoms: C_34  and  O_35
REMARK                            x       y       z     vdW  Elec       q    Type
REMARK                         _______ _______ _______ _____ _____    ______ ____
ROOT
ATOM      1  O   UNL     1     -34.586  21.687  -2.556  0.00  0.00    -0.296 OA
ATOM      2  O   UNL     1     -35.060  20.579   3.805  0.00  0.00    -0.292 OA
ATOM      3  C   UNL     1     -35.015  19.642   0.280  0.00  0.00    +0.017 C 
ATOM      4  C   UNL     1     -34.489  21.035  -0.186  0.00  0.00    +0.069 C 
ATOM      5  C   UNL     1     -36.080  23.158   2.743  0.00  0.00    +0.021 C 
ATOM      6  C   UNL     1     -35.880  24.516   1.955  0.00  0.00    +0.009 C 
ATOM      7  C   UNL     1     -34.294  18.660  -0.679  0.00  0.00    +0.008 C 
ATOM      8  C   UNL     1     -35.271  22.106   0.553  0.00  0.00    -0.013 C 
ATOM      9  C   UNL     1     -35.451  22.009   1.899  0.00  0.00    +0.007 C 
ATOM     10  C   UNL     1     -36.270  25.850   2.694  0.00  0.00    +0.025 C 
ATOM     11  C   UNL     1     -34.658  19.476   1.752  0.00  0.00    +0.069 C 
ATOM     12  C   UNL     1     -36.469  24.386   0.547  0.00  0.00    +0.034 C 
ATOM     13  C   UNL     1     -35.759  23.291  -0.249  0.00  0.00    +0.129 C 
ATOM     14  C   UNL     1     -35.408  23.340   4.133  0.00  0.00    +0.007 C 
ATOM     15  C   UNL     1     -34.449  19.332  -2.056  0.00  0.00    +0.065 C 
ATOM     16  C   UNL     1     -34.549  20.807  -1.704  0.00  0.00    +0.153 C 
ATOM     17  C   UNL     1     -35.588  25.862   4.088  0.00  0.00    +0.110 C 
ATOM     18  C   UNL     1     -35.059  20.697   2.580  0.00  0.00    +0.169 C 
ATOM     19  C   UNL     1     -35.843  24.593   4.886  0.00  0.00    +0.030 C 
ATOM     20  C   UNL     1     -36.565  19.489   0.131  0.00  0.00    +0.001 C 
ATOM     21  C   UNL     1     -32.982  21.324   0.072  0.00  0.00    +0.012 C 
ATOM     22  C   UNL     1     -37.553  22.740   2.950  0.00  0.00    +0.004 C 
ATOM     23  C   UNL     1     -37.790  26.090   2.807  0.00  0.00    +0.002 C 
ATOM     24  C   UNL     1     -35.707  27.065   1.904  0.00  0.00    +0.002 C 
ENDROOT
BRANCH  13  25
ATOM     25  O   UNL     1     -36.682  22.839  -1.242  0.00  0.00    -0.380 OA
ATOM     26  H   UNL     1     -37.235  22.134  -0.871  0.00  0.00    +0.211 HD
ENDBRANCH  13  25
BRANCH  17  27
ATOM     27  O   UNL     1     -36.026  26.984   4.853  0.00  0.00    -0.384 OA
ATOM     28  H   UNL     1     -36.976  27.120   4.712  0.00  0.00    +0.210 HD
ENDBRANCH  17  27
BRANCH   7  29
ATOM     29  C   UNL     1     -34.790  17.220  -0.682  0.00  0.00    +0.001 C 
ATOM     30  C   UNL     1     -33.664  16.278  -0.244  0.00  0.00    +0.000 C 
BRANCH  29  31
ATOM     31  C   UNL     1     -35.346  16.853  -2.072  0.00  0.00    +0.012 C 
BRANCH  31  32
ATOM     32  C   UNL     1     -36.823  16.458  -2.059  0.00  0.00    +0.109 C 
BRANCH  32  34
ATOM     33  O   UNL     1     -37.795  15.628   0.014  0.00  0.00    -0.250 OA
ATOM     34  C   UNL     1     -37.122  15.432  -0.989  0.00  0.00    +0.314 C 
BRANCH  34  35
ATOM     35  O   UNL     1     -36.539  14.238  -1.269  0.00  0.00    -0.480 OA
ATOM     36  H   UNL     1     -37.004  13.440  -1.107  0.00  0.00    +0.295 HD
ENDBRANCH  34  35
ENDBRANCH  32  34
ENDBRANCH  31  32
ENDBRANCH  29  31
ENDBRANCH   7  29
TORSDOF 7
ENDMDL
MODEL 3
REMARK VINA RESULT:      -6.3      4.013      6.585
REMARK  Name = 21592283
REMARK  7 active torsions:
REMARK  status: ('A' for Active; 'I' for Inactive)
REMARK    1  A    between atoms: C_7  and  C_29
REMARK    2  A    between atoms: C_13  and  O_25
REMARK    3  A    between atoms: C_17  and  O_27
REMARK    4  A    between atoms: C_29  and  C_31
REMARK    5  A    between atoms: C_31  and  C_32
REMARK    6  A    between atoms: C_32  and  C_34
REMARK    7  A    between atoms: C_34  and  O_35
REMARK                            x       y       z     vdW  Elec       q    Type
REMARK                         _______ _______ _______ _____ _____    ______ ____
ROOT
ATOM      1  O   UNL     1     -37.511  18.997   0.210  0.00  0.00    -0.296 OA
ATOM      2  O   UNL     1     -34.639  24.768   0.801  0.00  0.00    -0.292 OA
ATOM      3  C   UNL     1     -34.774  21.124   0.839  0.00  0.00    +0.017 C 
ATOM      4  C   UNL     1     -36.188  21.071   0.180  0.00  0.00    +0.069 C 
ATOM      5  C   UNL     1     -37.499  24.531   1.566  0.00  0.00    +0.021 C 
ATOM      6  C   UNL     1     -39.003  24.169   1.235  0.00  0.00    +0.009 C 
ATOM      7  C   UNL     1     -34.054  19.901   0.215  0.00  0.00    +0.008 C 
ATOM      8  C   UNL     1     -37.063  22.109   0.858  0.00  0.00    -0.013 C 
ATOM      9  C   UNL     1     -36.593  23.373   1.049  0.00  0.00    +0.007 C 
ATOM     10  C   UNL     1     -40.092  25.274   1.496  0.00  0.00    +0.025 C 
ATOM     11  C   UNL     1     -34.153  22.474   0.504  0.00  0.00    +0.069 C 
ATOM     12  C   UNL     1     -39.346  22.800   1.831  0.00  0.00    +0.034 C 
ATOM     13  C   UNL     1     -38.471  21.701   1.228  0.00  0.00    +0.129 C 
ATOM     14  C   UNL     1     -37.202  25.896   0.883  0.00  0.00    +0.007 C 
ATOM     15  C   UNL     1     -35.110  18.785   0.301  0.00  0.00    +0.065 C 
ATOM     16  C   UNL     1     -36.421  19.554   0.259  0.00  0.00    +0.153 C 
ATOM     17  C   UNL     1     -39.633  26.593   0.818  0.00  0.00    +0.110 C 
ATOM     18  C   UNL     1     -35.109  23.631   0.786  0.00  0.00    +0.169 C 
ATOM     19  C   UNL     1     -38.215  26.993   1.197  0.00  0.00    +0.030 C 
ATOM     20  C   UNL     1     -34.816  20.977   2.397  0.00  0.00    +0.001 C 
ATOM     21  C   UNL     1     -36.248  21.362  -1.347  0.00  0.00    +0.012 C 
ATOM     22  C   UNL     1     -37.177  24.646   3.073  0.00  0.00    +0.004 C 
ATOM     23  C   UNL     1     -40.429  25.492   2.986  0.00  0.00    +0.002 C 
ATOM     24  C   UNL     1     -41.428  24.858   0.816  0.00  0.00    +0.002 C 
ENDROOT
BRANCH  13  25
ATOM     25  O   UNL     1     -38.417  20.644   2.188  0.00  0.00    -0.380 OA
ATOM     26  H   UNL     1     -39.101  19.986   1.982  0.00  0.00    +0.211 HD
ENDBRANCH  13  25
BRANCH  17  27
ATOM     27  O   UNL     1     -40.518  27.663   1.148  0.00  0.00    -0.384 OA
ATOM     28  H   UNL     1     -41.022  27.432   1.944  0.00  0.00    +0.210 HD
ENDBRANCH  17  27
BRANCH   7  29
ATOM     29  C   UNL     1     -32.730  19.492   0.847  0.00  0.00    +0.001 C 
ATOM     30  C   UNL     1     -31.574  19.811  -0.106  0.00  0.00    +0.000 C 
BRANCH  29  31
ATOM     31  C   UNL     1     -32.766  18.001   1.236  0.00  0.00    +0.012 C 
BRANCH  31  32
ATOM     32  C   UNL     1     -31.859  17.119   0.375  0.00  0.00    +0.109 C 
BRANCH  32  34
ATOM     33  O   UNL     1     -33.612  15.713  -0.564  0.00  0.00    -0.250 OA
ATOM     34  C   UNL     1     -32.532  15.818  -0.000  0.00  0.00    +0.314 C 
BRANCH  34  35
ATOM     35  O   UNL     1     -31.785  14.746   0.375  0.00  0.00    -0.480 OA
ATOM     36  H   UNL     1     -30.914  14.644   0.044  0.00  0.00    +0.295 HD
ENDBRANCH  34  35
ENDBRANCH  32  34
ENDBRANCH  31  32
ENDBRANCH  29  31
ENDBRANCH   7  29
TORSDOF 7
ENDMDL
MODEL 4
REMARK VINA RESULT:      -6.2      4.116      8.226
REMARK  Name = 21592283
REMARK  7 active torsions:
REMARK  status: ('A' for Active; 'I' for Inactive)
REMARK    1  A    between atoms: C_7  and  C_29
REMARK    2  A    between atoms: C_13  and  O_25
REMARK    3  A    between atoms: C_17  and  O_27
REMARK    4  A    between atoms: C_29  and  C_31
REMARK    5  A    between atoms: C_31  and  C_32
REMARK    6  A    between atoms: C_32  and  C_34
REMARK    7  A    between atoms: C_34  and  O_35
REMARK                            x       y       z     vdW  Elec       q    Type
REMARK                         _______ _______ _______ _____ _____    ______ ____
ROOT
ATOM      1  O   UNL     1     -36.274  22.520   4.559  0.00  0.00    -0.296 OA
ATOM      2  O   UNL     1     -34.818  23.415  -1.685  0.00  0.00    -0.292 OA
ATOM      3  C   UNL     1     -36.796  23.867   1.347  0.00  0.00    +0.017 C 
ATOM      4  C   UNL     1     -35.717  23.215   2.266  0.00  0.00    +0.069 C 
ATOM      5  C   UNL     1     -34.167  20.796  -0.446  0.00  0.00    +0.021 C 
ATOM      6  C   UNL     1     -33.445  19.917   0.655  0.00  0.00    +0.009 C 
ATOM      7  C   UNL     1     -37.368  25.003   2.234  0.00  0.00    +0.008 C 
ATOM      8  C   UNL     1     -35.212  21.958   1.583  0.00  0.00    -0.013 C 
ATOM      9  C   UNL     1     -34.863  21.994   0.266  0.00  0.00    +0.007 C 
ATOM     10  C   UNL     1     -32.515  18.749   0.158  0.00  0.00    +0.025 C 
ATOM     11  C   UNL     1     -36.102  24.337   0.074  0.00  0.00    +0.069 C 
ATOM     12  C   UNL     1     -34.457  19.499   1.725  0.00  0.00    +0.034 C 
ATOM     13  C   UNL     1     -35.047  20.719   2.433  0.00  0.00    +0.129 C 
ATOM     14  C   UNL     1     -33.074  21.234  -1.462  0.00  0.00    +0.007 C 
ATOM     15  C   UNL     1     -37.559  24.322   3.602  0.00  0.00    +0.065 C 
ATOM     16  C   UNL     1     -36.502  23.229   3.587  0.00  0.00    +0.153 C 
ATOM     17  C   UNL     1     -31.527  19.315  -0.896  0.00  0.00    +0.110 C 
ATOM     18  C   UNL     1     -35.220  23.247  -0.533  0.00  0.00    +0.169 C 
ATOM     19  C   UNL     1     -32.220  20.092  -2.004  0.00  0.00    +0.030 C 
ATOM     20  C   UNL     1     -37.941  22.879   0.945  0.00  0.00    +0.001 C 
ATOM     21  C   UNL     1     -34.467  24.084   2.586  0.00  0.00    +0.012 C 
ATOM     22  C   UNL     1     -35.299  20.074  -1.210  0.00  0.00    +0.004 C 
ATOM     23  C   UNL     1     -33.276  17.520  -0.383  0.00  0.00    +0.002 C 
ATOM     24  C   UNL     1     -31.658  18.226   1.347  0.00  0.00    +0.002 C 
ENDROOT
BRANCH  13  25
ATOM     25  O   UNL     1     -36.324  20.324   2.940  0.00  0.00    -0.380 OA
ATOM     26  H   UNL     1     -36.865  19.975   2.215  0.00  0.00    +0.211 HD
ENDBRANCH  13  25
BRANCH  17  27
ATOM     27  O   UNL     1     -30.758  18.264  -1.481  0.00  0.00    -0.384 OA
ATOM     28  H   UNL     1     -30.903  18.253  -2.439  0.00  0.00    +0.210 HD
ENDBRANCH  17  27
BRANCH   7  29
ATOM     29  C   UNL     1     -38.643  25.677   1.743  0.00  0.00    +0.001 C 
ATOM     30  C   UNL     1     -38.309  27.039   1.126  0.00  0.00    +0.000 C 
BRANCH  29  31
ATOM     31  C   UNL     1     -39.658  25.797   2.897  0.00  0.00    +0.012 C 
BRANCH  31  32
ATOM     32  C   UNL     1     -41.115  25.811   2.434  0.00  0.00    +0.109 C 
BRANCH  32  34
ATOM     33  O   UNL     1     -43.124  27.058   3.020  0.00  0.00    -0.250 OA
ATOM     34  C   UNL     1     -41.947  26.794   3.227  0.00  0.00    +0.314 C 
BRANCH  34  35
ATOM     35  O   UNL     1     -41.220  27.376   4.217  0.00  0.00    -0.480 OA
ATOM     36  H   UNL     1     -41.524  28.166   4.619  0.00  0.00    +0.295 HD
ENDBRANCH  34  35
ENDBRANCH  32  34
ENDBRANCH  31  32
ENDBRANCH  29  31
ENDBRANCH   7  29
TORSDOF 7
ENDMDL
MODEL 5
REMARK VINA RESULT:      -6.0      3.450      7.072
REMARK  Name = 21592283
REMARK  7 active torsions:
REMARK  status: ('A' for Active; 'I' for Inactive)
REMARK    1  A    between atoms: C_7  and  C_29
REMARK    2  A    between atoms: C_13  and  O_25
REMARK    3  A    between atoms: C_17  and  O_27
REMARK    4  A    between atoms: C_29  and  C_31
REMARK    5  A    between atoms: C_31  and  C_32
REMARK    6  A    between atoms: C_32  and  C_34
REMARK    7  A    between atoms: C_34  and  O_35
REMARK                            x       y       z     vdW  Elec       q    Type
REMARK                         _______ _______ _______ _____ _____    ______ ____
ROOT
ATOM      1  O   UNL     1     -37.277  18.205   0.297  0.00  0.00    -0.296 OA
ATOM      2  O   UNL     1     -33.032  23.082  -0.015  0.00  0.00    -0.292 OA
ATOM      3  C   UNL     1     -34.043  19.579   0.045  0.00  0.00    +0.017 C 
ATOM      4  C   UNL     1     -35.557  19.910  -0.136  0.00  0.00    +0.069 C 
ATOM      5  C   UNL     1     -35.490  23.454   1.610  0.00  0.00    +0.021 C 
ATOM      6  C   UNL     1     -37.064  23.479   1.767  0.00  0.00    +0.009 C 
ATOM      7  C   UNL     1     -33.871  18.278  -0.781  0.00  0.00    +0.008 C 
ATOM      8  C   UNL     1     -35.901  21.064   0.788  0.00  0.00    -0.013 C 
ATOM      9  C   UNL     1     -35.099  22.164   0.828  0.00  0.00    +0.007 C 
ATOM     10  C   UNL     1     -37.715  24.782   2.363  0.00  0.00    +0.025 C 
ATOM     11  C   UNL     1     -33.241  20.770  -0.462  0.00  0.00    +0.069 C 
ATOM     12  C   UNL     1     -37.537  22.184   2.433  0.00  0.00    +0.034 C 
ATOM     13  C   UNL     1     -37.186  20.965   1.580  0.00  0.00    +0.129 C 
ATOM     14  C   UNL     1     -35.088  24.764   0.876  0.00  0.00    +0.007 C 
ATOM     15  C   UNL     1     -35.093  17.434  -0.373  0.00  0.00    +0.065 C 
ATOM     16  C   UNL     1     -36.122  18.487   0.004  0.00  0.00    +0.153 C 
ATOM     17  C   UNL     1     -37.173  26.009   1.583  0.00  0.00    +0.110 C 
ATOM     18  C   UNL     1     -33.750  22.091   0.113  0.00  0.00    +0.169 C 
ATOM     19  C   UNL     1     -35.655  26.037   1.498  0.00  0.00    +0.030 C 
ATOM     20  C   UNL     1     -33.645  19.318   1.535  0.00  0.00    +0.001 C 
ATOM     21  C   UNL     1     -36.005  20.332  -1.565  0.00  0.00    +0.012 C 
ATOM     22  C   UNL     1     -34.708  23.366   2.940  0.00  0.00    +0.004 C 
ATOM     23  C   UNL     1     -37.519  24.949   3.885  0.00  0.00    +0.002 C 
ATOM     24  C   UNL     1     -39.254  24.745   2.136  0.00  0.00    +0.002 C 
ENDROOT
BRANCH  13  25
ATOM     25  O   UNL     1     -37.105  19.848   2.468  0.00  0.00    -0.380 OA
ATOM     26  H   UNL     1     -37.988  19.649   2.817  0.00  0.00    +0.211 HD
ENDBRANCH  13  25
BRANCH  17  27
ATOM     27  O   UNL     1     -37.624  27.225   2.180  0.00  0.00    -0.384 OA
ATOM     28  H   UNL     1     -38.538  27.116   2.484  0.00  0.00    +0.210 HD
ENDBRANCH  17  27
BRANCH   7  29
ATOM     29  C   UNL     1     -32.561  17.521  -0.600  0.00  0.00    +0.001 C 
ATOM     30  C   UNL     1     -31.718  17.622  -1.875  0.00  0.00    +0.000 C 
BRANCH  29  31
ATOM     31  C   UNL     1     -32.844  16.058  -0.206  0.00  0.00    +0.012 C 
BRANCH  31  32
ATOM     32  C   UNL     1     -31.895  15.051  -0.858  0.00  0.00    +0.109 C 
BRANCH  32  34
ATOM     33  O   UNL     1     -29.790  15.209   0.358  0.00  0.00    -0.250 OA
ATOM     34  C   UNL     1     -30.816  14.595   0.098  0.00  0.00    +0.314 C 
BRANCH  34  35
ATOM     35  O   UNL     1     -31.117  13.389   0.648  0.00  0.00    -0.480 OA
ATOM     36  H   UNL     1     -30.624  12.629   0.409  0.00  0.00    +0.295 HD
ENDBRANCH  34  35
ENDBRANCH  32  34
ENDBRANCH  31  32
ENDBRANCH  29  31
ENDBRANCH   7  29
TORSDOF 7
ENDMDL
MODEL 6
REMARK VINA RESULT:      -5.9      2.912      5.848
REMARK  Name = 21592283
REMARK  7 active torsions:
REMARK  status: ('A' for Active; 'I' for Inactive)
REMARK    1  A    between atoms: C_7  and  C_29
REMARK    2  A    between atoms: C_13  and  O_25
REMARK    3  A    between atoms: C_17  and  O_27
REMARK    4  A    between atoms: C_29  and  C_31
REMARK    5  A    between atoms: C_31  and  C_32
REMARK    6  A    between atoms: C_32  and  C_34
REMARK    7  A    between atoms: C_34  and  O_35
REMARK                            x       y       z     vdW  Elec       q    Type
REMARK                         _______ _______ _______ _____ _____    ______ ____
ROOT
ATOM      1  O   UNL     1     -34.177  22.356  -2.241  0.00  0.00    -0.296 OA
ATOM      2  O   UNL     1     -35.534  20.714   3.872  0.00  0.00    -0.292 OA
ATOM      3  C   UNL     1     -35.608  20.314   0.248  0.00  0.00    +0.017 C 
ATOM      4  C   UNL     1     -34.530  21.416   0.005  0.00  0.00    +0.069 C 
ATOM      5  C   UNL     1     -35.341  23.599   3.197  0.00  0.00    +0.021 C 
ATOM      6  C   UNL     1     -34.550  24.846   2.626  0.00  0.00    +0.009 C 
ATOM      7  C   UNL     1     -35.276  19.258  -0.838  0.00  0.00    +0.008 C 
ATOM      8  C   UNL     1     -34.865  22.606   0.885  0.00  0.00    -0.013 C 
ATOM      9  C   UNL     1     -35.169  22.415   2.199  0.00  0.00    +0.007 C 
ATOM     10  C   UNL     1     -34.421  26.111   3.552  0.00  0.00    +0.025 C 
ATOM     11  C   UNL     1     -35.460  19.824   1.683  0.00  0.00    +0.069 C 
ATOM     12  C   UNL     1     -35.034  25.156   1.206  0.00  0.00    +0.034 C 
ATOM     13  C   UNL     1     -34.770  23.981   0.264  0.00  0.00    +0.129 C 
ATOM     14  C   UNL     1     -34.759  23.304   4.608  0.00  0.00    +0.007 C 
ATOM     15  C   UNL     1     -35.042  20.109  -2.100  0.00  0.00    +0.065 C 
ATOM     16  C   UNL     1     -34.563  21.435  -1.532  0.00  0.00    +0.153 C 
ATOM     17  C   UNL     1     -33.899  25.659   4.941  0.00  0.00    +0.110 C 
ATOM     18  C   UNL     1     -35.393  20.981   2.679  0.00  0.00    +0.169 C 
ATOM     19  C   UNL     1     -34.705  24.514   5.535  0.00  0.00    +0.030 C 
ATOM     20  C   UNL     1     -37.071  20.833   0.055  0.00  0.00    +0.001 C 
ATOM     21  C   UNL     1     -33.058  21.023   0.325  0.00  0.00    +0.012 C 
ATOM     22  C   UNL     1     -36.868  23.801   3.317  0.00  0.00    +0.004 C 
ATOM     23  C   UNL     1     -35.718  26.939   3.678  0.00  0.00    +0.002 C 
ATOM     24  C   UNL     1     -33.357  27.080   2.962  0.00  0.00    +0.002 C 
ENDROOT
BRANCH  13  25
ATOM     25  O   UNL     1     -35.720  24.084  -0.799  0.00  0.00    -0.380 OA
ATOM     26  H   UNL     1     -35.250  24.193  -1.641  0.00  0.00    +0.211 HD
ENDBRANCH  13  25
BRANCH  17  27
ATOM     27  O   UNL     1     -33.902  26.750   5.860  0.00  0.00    -0.384 OA
ATOM     28  H   UNL     1     -33.319  26.545   6.608  0.00  0.00    +0.210 HD
ENDBRANCH  17  27
BRANCH   7  29
ATOM     29  C   UNL     1     -36.311  18.164  -1.065  0.00  0.00    +0.001 C 
ATOM     30  C   UNL     1     -35.644  16.787  -0.973  0.00  0.00    +0.000 C 
BRANCH  29  31
ATOM     31  C   UNL     1     -37.019  18.375  -2.418  0.00  0.00    +0.012 C 
BRANCH  31  32
ATOM     32  C   UNL     1     -38.293  17.546  -2.582  0.00  0.00    +0.109 C 
BRANCH  32  34
ATOM     33  O   UNL     1     -39.784  18.829  -1.146  0.00  0.00    -0.250 OA
ATOM     34  C   UNL     1     -39.258  17.764  -1.438  0.00  0.00    +0.314 C 
BRANCH  34  35
ATOM     35  O   UNL     1     -39.475  16.615  -0.745  0.00  0.00    -0.480 OA
ATOM     36  H   UNL     1     -40.194  16.059  -0.974  0.00  0.00    +0.295 HD
ENDBRANCH  34  35
ENDBRANCH  32  34
ENDBRANCH  31  32
ENDBRANCH  29  31
ENDBRANCH   7  29
TORSDOF 7
ENDMDL
MODEL 7
REMARK VINA RESULT:      -5.9      4.280      7.024
REMARK  Name = 21592283
REMARK  7 active torsions:
REMARK  status: ('A' for Active; 'I' for Inactive)
REMARK    1  A    between atoms: C_7  and  C_29
REMARK    2  A    between atoms: C_13  and  O_25
REMARK    3  A    between atoms: C_17  and  O_27
REMARK    4  A    between atoms: C_29  and  C_31
REMARK    5  A    between atoms: C_31  and  C_32
REMARK    6  A    between atoms: C_32  and  C_34
REMARK    7  A    between atoms: C_34  and  O_35
REMARK                            x       y       z     vdW  Elec       q    Type
REMARK                         _______ _______ _______ _____ _____    ______ ____
ROOT
ATOM      1  O   UNL     1     -34.407  21.176  -2.821  0.00  0.00    -0.296 OA
ATOM      2  O   UNL     1     -35.385  20.854   3.570  0.00  0.00    -0.292 OA
ATOM      3  C   UNL     1     -34.496  19.528   0.290  0.00  0.00    +0.017 C 
ATOM      4  C   UNL     1     -34.434  20.939  -0.373  0.00  0.00    +0.069 C 
ATOM      5  C   UNL     1     -37.085  22.694   1.974  0.00  0.00    +0.021 C 
ATOM      6  C   UNL     1     -37.265  23.906   0.974  0.00  0.00    +0.009 C 
ATOM      7  C   UNL     1     -33.342  18.764  -0.410  0.00  0.00    +0.008 C 
ATOM      8  C   UNL     1     -35.644  21.730   0.089  0.00  0.00    -0.013 C 
ATOM      9  C   UNL     1     -35.973  21.759   1.410  0.00  0.00    +0.007 C 
ATOM     10  C   UNL     1     -38.205  25.086   1.422  0.00  0.00    +0.025 C 
ATOM     11  C   UNL     1     -34.323  19.711   1.793  0.00  0.00    +0.069 C 
ATOM     12  C   UNL     1     -37.557  23.375  -0.433  0.00  0.00    +0.034 C 
ATOM     13  C   UNL     1     -36.397  22.526  -0.953  0.00  0.00    +0.129 C 
ATOM     14  C   UNL     1     -36.732  23.301   3.361  0.00  0.00    +0.007 C 
ATOM     15  C   UNL     1     -33.521  19.135  -1.893  0.00  0.00    +0.065 C 
ATOM     16  C   UNL     1     -34.186  20.499  -1.825  0.00  0.00    +0.153 C 
ATOM     17  C   UNL     1     -37.784  25.543   2.844  0.00  0.00    +0.110 C 
ATOM     18  C   UNL     1     -35.247  20.794   2.348  0.00  0.00    +0.169 C 
ATOM     19  C   UNL     1     -37.688  24.393   3.834  0.00  0.00    +0.030 C 
ATOM     20  C   UNL     1     -35.851  18.788   0.039  0.00  0.00    +0.001 C 
ATOM     21  C   UNL     1     -33.182  21.802  -0.044  0.00  0.00    +0.012 C 
ATOM     22  C   UNL     1     -38.328  21.789   2.126  0.00  0.00    +0.004 C 
ATOM     23  C   UNL     1     -39.711  24.755   1.359  0.00  0.00    +0.002 C 
ATOM     24  C   UNL     1     -37.999  26.303   0.476  0.00  0.00    +0.002 C 
ENDROOT
BRANCH  13  25
ATOM     25  O   UNL     1     -36.944  21.631  -1.924  0.00  0.00    -0.380 OA
ATOM     26  H   UNL     1     -36.433  21.695  -2.746  0.00  0.00    +0.211 HD
ENDBRANCH  13  25
BRANCH  17  27
ATOM     27  O   UNL     1     -38.698  26.514   3.353  0.00  0.00    -0.384 OA
ATOM     28  H   UNL     1     -39.607  26.208   3.209  0.00  0.00    +0.210 HD
ENDBRANCH  17  27
BRANCH   7  29
ATOM     29  C   UNL     1     -33.290  17.257  -0.194  0.00  0.00    +0.001 C 
ATOM     30  C   UNL     1     -31.916  16.854   0.350  0.00  0.00    +0.000 C 
BRANCH  29  31
ATOM     31  C   UNL     1     -33.633  16.522  -1.505  0.00  0.00    +0.012 C 
BRANCH  31  32
ATOM     32  C   UNL     1     -34.273  15.150  -1.290  0.00  0.00    +0.109 C 
BRANCH  32  34
ATOM     33  O   UNL     1     -36.680  15.476  -1.480  0.00  0.00    -0.250 OA
ATOM     34  C   UNL     1     -35.694  15.264  -0.786  0.00  0.00    +0.314 C 
BRANCH  34  35
ATOM     35  O   UNL     1     -35.757  15.110   0.562  0.00  0.00    -0.480 OA
ATOM     36  H   UNL     1     -36.022  14.289   0.928  0.00  0.00    +0.295 HD
ENDBRANCH  34  35
ENDBRANCH  32  34
ENDBRANCH  31  32
ENDBRANCH  29  31
ENDBRANCH   7  29
TORSDOF 7
ENDMDL
MODEL 8
REMARK VINA RESULT:      -5.9      1.942      3.693
REMARK  Name = 21592283
REMARK  7 active torsions:
REMARK  status: ('A' for Active; 'I' for Inactive)
REMARK    1  A    between atoms: C_7  and  C_29
REMARK    2  A    between atoms: C_13  and  O_25
REMARK    3  A    between atoms: C_17  and  O_27
REMARK    4  A    between atoms: C_29  and  C_31
REMARK    5  A    between atoms: C_31  and  C_32
REMARK    6  A    between atoms: C_32  and  C_34
REMARK    7  A    between atoms: C_34  and  O_35
REMARK                            x       y       z     vdW  Elec       q    Type
REMARK                         _______ _______ _______ _____ _____    ______ ____
ROOT
ATOM      1  O   UNL     1     -34.245  25.811   0.020  0.00  0.00    -0.296 OA
ATOM      2  O   UNL     1     -32.538  28.575   5.620  0.00  0.00    -0.292 OA
ATOM      3  C   UNL     1     -34.292  26.159   3.525  0.00  0.00    +0.017 C 
ATOM      4  C   UNL     1     -33.481  26.530   2.245  0.00  0.00    +0.069 C 
ATOM      5  C   UNL     1     -32.756  30.293   3.207  0.00  0.00    +0.021 C 
ATOM      6  C   UNL     1     -32.356  30.665   1.722  0.00  0.00    +0.009 C 
ATOM      7  C   UNL     1     -34.483  24.626   3.383  0.00  0.00    +0.008 C 
ATOM      8  C   UNL     1     -33.394  28.043   2.165  0.00  0.00    -0.013 C 
ATOM      9  C   UNL     1     -33.042  28.763   3.266  0.00  0.00    +0.007 C 
ATOM     10  C   UNL     1     -31.839  32.126   1.451  0.00  0.00    +0.025 C 
ATOM     11  C   UNL     1     -33.477  26.593   4.737  0.00  0.00    +0.069 C 
ATOM     12  C   UNL     1     -33.456  30.203   0.761  0.00  0.00    +0.034 C 
ATOM     13  C   UNL     1     -33.635  28.686   0.817  0.00  0.00    +0.129 C 
ATOM     14  C   UNL     1     -31.573  30.733   4.116  0.00  0.00    +0.007 C 
ATOM     15  C   UNL     1     -34.888  24.455   1.908  0.00  0.00    +0.065 C 
ATOM     16  C   UNL     1     -34.231  25.648   1.234  0.00  0.00    +0.153 C 
ATOM     17  C   UNL     1     -30.715  32.452   2.471  0.00  0.00    +0.110 C 
ATOM     18  C   UNL     1     -32.980  28.032   4.607  0.00  0.00    +0.169 C 
ATOM     19  C   UNL     1     -31.121  32.176   3.910  0.00  0.00    +0.030 C 
ATOM     20  C   UNL     1     -35.688  26.862   3.595  0.00  0.00    +0.001 C 
ATOM     21  C   UNL     1     -32.023  25.994   2.173  0.00  0.00    +0.012 C 
ATOM     22  C   UNL     1     -34.053  30.962   3.715  0.00  0.00    +0.004 C 
ATOM     23  C   UNL     1     -32.945  33.202   1.466  0.00  0.00    +0.002 C 
ATOM     24  C   UNL     1     -31.199  32.197   0.035  0.00  0.00    +0.002 C 
ENDROOT
BRANCH  13  25
ATOM     25  O   UNL     1     -34.974  28.413   0.399  0.00  0.00    -0.380 OA
ATOM     26  H   UNL     1     -35.072  28.640  -0.539  0.00  0.00    +0.211 HD
ENDBRANCH  13  25
BRANCH  17  27
ATOM     27  O   UNL     1     -30.314  33.817   2.358  0.00  0.00    -0.384 OA
ATOM     28  H   UNL     1     -29.497  33.956   2.862  0.00  0.00    +0.210 HD
ENDBRANCH  17  27
BRANCH   7  29
ATOM     29  C   UNL     1     -35.476  23.970   4.334  0.00  0.00    +0.001 C 
ATOM     30  C   UNL     1     -34.754  23.500   5.600  0.00  0.00    +0.000 C 
BRANCH  29  31
ATOM     31  C   UNL     1     -36.208  22.815   3.621  0.00  0.00    +0.012 C 
BRANCH  31  32
ATOM     32  C   UNL     1     -35.548  21.450   3.826  0.00  0.00    +0.109 C 
BRANCH  32  34
ATOM     33  O   UNL     1     -34.798  20.639   1.656  0.00  0.00    -0.250 OA
ATOM     34  C   UNL     1     -35.606  20.605   2.574  0.00  0.00    +0.314 C 
BRANCH  34  35
ATOM     35  O   UNL     1     -36.689  19.784   2.578  0.00  0.00    -0.480 OA
ATOM     36  H   UNL     1     -36.572  18.855   2.612  0.00  0.00    +0.295 HD
ENDBRANCH  34  35
ENDBRANCH  32  34
ENDBRANCH  31  32
ENDBRANCH  29  31
ENDBRANCH   7  29
TORSDOF 7
ENDMDL
MODEL 9
REMARK VINA RESULT:      -5.8      3.418      8.846
REMARK  Name = 21592283
REMARK  7 active torsions:
REMARK  status: ('A' for Active; 'I' for Inactive)
REMARK    1  A    between atoms: C_7  and  C_29
REMARK    2  A    between atoms: C_13  and  O_25
REMARK    3  A    between atoms: C_17  and  O_27
REMARK    4  A    between atoms: C_29  and  C_31
REMARK    5  A    between atoms: C_31  and  C_32
REMARK    6  A    between atoms: C_32  and  C_34
REMARK    7  A    between atoms: C_34  and  O_35
REMARK                            x       y       z     vdW  Elec       q    Type
REMARK                         _______ _______ _______ _____ _____    ______ ____
ROOT
ATOM      1  O   UNL     1     -38.540  24.087   0.957  0.00  0.00    -0.296 OA
ATOM      2  O   UNL     1     -34.176  19.346   1.575  0.00  0.00    -0.292 OA
ATOM      3  C   UNL     1     -35.859  22.436   2.536  0.00  0.00    +0.017 C 
ATOM      4  C   UNL     1     -37.027  22.232   1.522  0.00  0.00    +0.069 C 
ATOM      5  C   UNL     1     -34.983  20.172  -1.161  0.00  0.00    +0.021 C 
ATOM      6  C   UNL     1     -36.080  20.411  -2.276  0.00  0.00    +0.009 C 
ATOM      7  C   UNL     1     -36.569  23.071   3.759  0.00  0.00    +0.008 C 
ATOM      8  C   UNL     1     -36.429  21.791   0.198  0.00  0.00    -0.013 C 
ATOM      9  C   UNL     1     -35.498  20.797   0.170  0.00  0.00    +0.007 C 
ATOM     10  C   UNL     1     -35.869  19.705  -3.667  0.00  0.00    +0.025 C 
ATOM     11  C   UNL     1     -35.226  21.075   2.799  0.00  0.00    +0.069 C 
ATOM     12  C   UNL     1     -36.396  21.906  -2.376  0.00  0.00    +0.034 C 
ATOM     13  C   UNL     1     -36.964  22.438  -1.060  0.00  0.00    +0.129 C 
ATOM     14  C   UNL     1     -34.757  18.636  -1.072  0.00  0.00    +0.007 C 
ATOM     15  C   UNL     1     -37.484  24.134   3.125  0.00  0.00    +0.065 C 
ATOM     16  C   UNL     1     -37.758  23.565   1.743  0.00  0.00    +0.153 C 
ATOM     17  C   UNL     1     -35.586  18.199  -3.421  0.00  0.00    +0.110 C 
ATOM     18  C   UNL     1     -34.915  20.328   1.503  0.00  0.00    +0.169 C 
ATOM     19  C   UNL     1     -34.475  17.960  -2.410  0.00  0.00    +0.030 C 
ATOM     20  C   UNL     1     -34.746  23.400   2.008  0.00  0.00    +0.001 C 
ATOM     21  C   UNL     1     -38.097  21.170   1.906  0.00  0.00    +0.012 C 
ATOM     22  C   UNL     1     -33.627  20.863  -1.428  0.00  0.00    +0.004 C 
ATOM     23  C   UNL     1     -34.776  20.350  -4.545  0.00  0.00    +0.002 C 
ATOM     24  C   UNL     1     -37.182  19.789  -4.496  0.00  0.00    +0.002 C 
ENDROOT
BRANCH  13  25
ATOM     25  O   UNL     1     -36.680  23.838  -1.024  0.00  0.00    -0.380 OA
ATOM     26  H   UNL     1     -37.102  24.272  -1.782  0.00  0.00    +0.211 HD
ENDBRANCH  13  25
BRANCH  17  27
ATOM     27  O   UNL     1     -35.246  17.545  -4.643  0.00  0.00    -0.384 OA
ATOM     28  H   UNL     1     -35.853  16.803  -4.793  0.00  0.00    +0.210 HD
ENDBRANCH  17  27
BRANCH   7  29
ATOM     29  C   UNL     1     -35.671  23.656   4.843  0.00  0.00    +0.001 C 
ATOM     30  C   UNL     1     -35.583  22.689   6.027  0.00  0.00    +0.000 C 
BRANCH  29  31
ATOM     31  C   UNL     1     -36.187  25.045   5.266  0.00  0.00    +0.012 C 
BRANCH  31  32
ATOM     32  C   UNL     1     -35.364  26.205   4.703  0.00  0.00    +0.109 C 
BRANCH  32  34
ATOM     33  O   UNL     1     -33.693  26.551   6.441  0.00  0.00    -0.250 OA
ATOM     34  C   UNL     1     -33.971  26.244   5.290  0.00  0.00    +0.314 C 
BRANCH  34  35
ATOM     35  O   UNL     1     -33.035  25.897   4.369  0.00  0.00    -0.480 OA
ATOM     36  H   UNL     1     -32.371  26.510   4.121  0.00  0.00    +0.295 HD
ENDBRANCH  34  35
ENDBRANCH  32  34
ENDBRANCH  31  32
ENDBRANCH  29  31
ENDBRANCH   7  29
TORSDOF 7
ENDMDL
