MODEL 1
REMARK VINA RESULT:      -7.1      0.000      0.000
REMARK  Name = 5330286
REMARK  3 active torsions:
REMARK  status: ('A' for Active; 'I' for Inactive)
REMARK    1  A    between atoms: N_2  and  C_29
REMARK    2  A    between atoms: C_10  and  C_35
REMARK    3  A    between atoms: C_15  and  N_21
REMARK                            x       y       z     vdW  Elec       q    Type
REMARK                         _______ _______ _______ _____ _____    ______ ____
ROOT
ATOM      1  O   UNL     1     -30.789  32.442   4.234  0.00  0.00    -0.267 OA
ATOM      2  N   UNL     1     -32.580  31.249   3.390  0.00  0.00    -0.272 N 
ATOM      3  N   UNL     1     -34.467  30.066   2.516  0.00  0.00    -0.319 NA
ATOM      4  N   UNL     1     -36.014  31.115   1.021  0.00  0.00    -0.170 NA
ATOM      5  N   UNL     1     -36.317  28.890   1.684  0.00  0.00    -0.232 N 
ATOM      6  N   UNL     1     -35.097  27.426   3.114  0.00  0.00    -0.227 NA
ATOM      7  C   UNL     1     -33.742  31.214   2.572  0.00  0.00    +0.211 A 
ATOM      8  C   UNL     1     -31.793  32.385   3.521  0.00  0.00    +0.265 A 
ATOM      9  C   UNL     1     -34.097  32.356   1.864  0.00  0.00    +0.064 A 
ATOM     10  C   UNL     1     -32.202  33.605   2.743  0.00  0.00    +0.087 A 
ATOM     11  C   UNL     1     -33.284  33.591   1.937  0.00  0.00    -0.009 A 
ATOM     12  C   UNL     1     -35.260  32.232   1.106  0.00  0.00    +0.115 C 
ATOM     13  C   UNL     1     -33.746  34.741   1.072  0.00  0.00    +0.031 C 
ATOM     14  C   UNL     1     -35.564  30.082   1.742  0.00  0.00    +0.151 C 
ATOM     15  C   UNL     1     -35.885  25.167   3.455  0.00  0.00    +0.067 C 
ATOM     16  C   UNL     1     -36.156  27.631   2.293  0.00  0.00    +0.141 C 
ATOM     17  C   UNL     1     -36.962  25.407   2.607  0.00  0.00    +0.019 C 
ATOM     18  C   UNL     1     -34.990  26.201   3.674  0.00  0.00    +0.115 C 
ATOM     19  C   UNL     1     -37.106  26.655   2.013  0.00  0.00    +0.036 C 
ATOM     20  H   UNL     1     -37.111  28.951   1.104  0.00  0.00    +0.166 HD
ENDROOT
BRANCH  15  21
ATOM     21  N   UNL     1     -35.714  23.920   4.068  0.00  0.00    -0.311 N 
ATOM     22  N   UNL     1     -35.600  21.407   5.417  0.00  0.00    +0.386 N 
ATOM     23  C   UNL     1     -36.236  22.713   3.418  0.00  0.00    +0.067 C 
ATOM     24  C   UNL     1     -35.645  23.875   5.535  0.00  0.00    +0.067 C 
ATOM     25  C   UNL     1     -35.533  21.467   3.958  0.00  0.00    -0.060 C 
ATOM     26  C   UNL     1     -34.963  22.588   5.999  0.00  0.00    -0.060 C 
ATOM     27  H   UNL     1     -35.117  20.570   5.744  0.00  0.00    -0.084 HD
ATOM     28  H   UNL     1     -36.577  21.379   5.706  0.00  0.00    -0.084 HD
ENDBRANCH  15  21
BRANCH   2  29
ATOM     29  C   UNL     1     -32.242  30.051   4.105  0.00  0.00    +0.091 C 
ATOM     30  C   UNL     1     -32.125  30.270   5.606  0.00  0.00    +0.023 C 
ATOM     31  C   UNL     1     -30.873  29.497   3.720  0.00  0.00    +0.023 C 
ATOM     32  C   UNL     1     -31.373  29.034   6.070  0.00  0.00    +0.002 C 
ATOM     33  C   UNL     1     -30.381  28.732   4.949  0.00  0.00    +0.002 C 
ENDBRANCH   2  29
BRANCH  10  35
ATOM     34  O   UNL     1     -31.699  35.687   3.701  0.00  0.00    -0.291 OA
ATOM     35  C   UNL     1     -31.381  34.824   2.889  0.00  0.00    +0.178 C 
ATOM     36  C   UNL     1     -30.160  34.950   2.024  0.00  0.00    +0.077 C 
ENDBRANCH  10  35
TORSDOF 3
ENDMDL
MODEL 2
REMARK VINA RESULT:      -6.9      2.187      4.348
REMARK  Name = 5330286
REMARK  3 active torsions:
REMARK  status: ('A' for Active; 'I' for Inactive)
REMARK    1  A    between atoms: N_2  and  C_29
REMARK    2  A    between atoms: C_10  and  C_35
REMARK    3  A    between atoms: C_15  and  N_21
REMARK                            x       y       z     vdW  Elec       q    Type
REMARK                         _______ _______ _______ _____ _____    ______ ____
ROOT
ATOM      1  O   UNL     1     -33.059  32.588   1.872  0.00  0.00    -0.267 OA
ATOM      2  N   UNL     1     -33.257  30.559   2.962  0.00  0.00    -0.272 N 
ATOM      3  N   UNL     1     -33.400  28.455   4.093  0.00  0.00    -0.319 NA
ATOM      4  N   UNL     1     -31.763  27.794   5.709  0.00  0.00    -0.170 NA
ATOM      5  N   UNL     1     -33.554  26.381   5.178  0.00  0.00    -0.232 N 
ATOM      6  N   UNL     1     -35.398  26.568   3.680  0.00  0.00    -0.227 NA
ATOM      7  C   UNL     1     -32.742  29.630   3.908  0.00  0.00    +0.211 A 
ATOM      8  C   UNL     1     -32.638  31.773   2.696  0.00  0.00    +0.265 A 
ATOM      9  C   UNL     1     -31.584  29.954   4.603  0.00  0.00    +0.064 A 
ATOM     10  C   UNL     1     -31.387  32.097   3.465  0.00  0.00    +0.087 A 
ATOM     11  C   UNL     1     -30.893  31.246   4.387  0.00  0.00    -0.009 A 
ATOM     12  C   UNL     1     -31.146  28.975   5.493  0.00  0.00    +0.115 C 
ATOM     13  C   UNL     1     -29.678  31.500   5.251  0.00  0.00    +0.031 C 
ATOM     14  C   UNL     1     -32.872  27.602   4.985  0.00  0.00    +0.151 C 
ATOM     15  C   UNL     1     -36.990  24.757   3.525  0.00  0.00    +0.067 C 
ATOM     16  C   UNL     1     -34.723  25.844   4.607  0.00  0.00    +0.141 C 
ATOM     17  C   UNL     1     -36.277  24.038   4.478  0.00  0.00    +0.019 C 
ATOM     18  C   UNL     1     -36.512  26.006   3.163  0.00  0.00    +0.115 C 
ATOM     19  C   UNL     1     -35.125  24.583   5.032  0.00  0.00    +0.036 C 
ATOM     20  H   UNL     1     -33.128  25.791   5.840  0.00  0.00    +0.166 HD
ENDROOT
BRANCH  15  21
ATOM     21  N   UNL     1     -38.154  24.233   2.948  0.00  0.00    -0.311 N 
ATOM     22  N   UNL     1     -40.438  23.250   1.547  0.00  0.00    +0.386 N 
ATOM     23  C   UNL     1     -38.131  22.891   2.355  0.00  0.00    +0.067 C 
ATOM     24  C   UNL     1     -39.117  25.173   2.359  0.00  0.00    +0.067 C 
ATOM     25  C   UNL     1     -39.548  22.328   2.250  0.00  0.00    -0.060 C 
ATOM     26  C   UNL     1     -40.499  24.528   2.255  0.00  0.00    -0.060 C 
ATOM     27  H   UNL     1     -41.374  22.847   1.501  0.00  0.00    -0.084 HD
ATOM     28  H   UNL     1     -40.081  23.406   0.605  0.00  0.00    -0.084 HD
ENDBRANCH  15  21
BRANCH   2  29
ATOM     29  C   UNL     1     -34.455  30.192   2.265  0.00  0.00    +0.091 C 
ATOM     30  C   UNL     1     -34.323  30.316   0.754  0.00  0.00    +0.023 C 
ATOM     31  C   UNL     1     -35.635  31.103   2.592  0.00  0.00    +0.023 C 
ATOM     32  C   UNL     1     -35.769  30.298   0.285  0.00  0.00    +0.002 C 
ATOM     33  C   UNL     1     -36.540  31.060   1.360  0.00  0.00    +0.002 C 
ENDBRANCH   2  29
BRANCH  10  35
ATOM     34  O   UNL     1     -31.064  34.404   3.750  0.00  0.00    -0.291 OA
ATOM     35  C   UNL     1     -30.712  33.378   3.176  0.00  0.00    +0.178 C 
ATOM     36  C   UNL     1     -29.592  33.365   2.175  0.00  0.00    +0.077 C 
ENDBRANCH  10  35
TORSDOF 3
ENDMDL
MODEL 3
REMARK VINA RESULT:      -6.7      7.253     12.937
REMARK  Name = 5330286
REMARK  3 active torsions:
REMARK  status: ('A' for Active; 'I' for Inactive)
REMARK    1  A    between atoms: N_2  and  C_29
REMARK    2  A    between atoms: C_10  and  C_35
REMARK    3  A    between atoms: C_15  and  N_21
REMARK                            x       y       z     vdW  Elec       q    Type
REMARK                         _______ _______ _______ _____ _____    ______ ____
ROOT
ATOM      1  O   UNL     1     -33.140  16.111  -1.155  0.00  0.00    -0.267 OA
ATOM      2  N   UNL     1     -34.887  17.496  -0.545  0.00  0.00    -0.272 N 
ATOM      3  N   UNL     1     -36.721  18.920   0.032  0.00  0.00    -0.319 NA
ATOM      4  N   UNL     1     -38.939  18.474  -0.750  0.00  0.00    -0.170 NA
ATOM      5  N   UNL     1     -38.501  20.338   0.600  0.00  0.00    -0.232 N 
ATOM      6  N   UNL     1     -36.522  21.199   1.609  0.00  0.00    -0.227 NA
ATOM      7  C   UNL     1     -36.271  17.813  -0.615  0.00  0.00    +0.211 A 
ATOM      8  C   UNL     1     -34.339  16.397  -1.191  0.00  0.00    +0.265 A 
ATOM      9  C   UNL     1     -37.111  16.983  -1.346  0.00  0.00    +0.064 A 
ATOM     10  C   UNL     1     -35.273  15.517  -1.974  0.00  0.00    +0.087 A 
ATOM     11  C   UNL     1     -36.595  15.778  -2.035  0.00  0.00    -0.009 A 
ATOM     12  C   UNL     1     -38.446  17.383  -1.373  0.00  0.00    +0.115 C 
ATOM     13  C   UNL     1     -37.623  14.928  -2.745  0.00  0.00    +0.031 C 
ATOM     14  C   UNL     1     -38.033  19.188  -0.072  0.00  0.00    +0.151 C 
ATOM     15  C   UNL     1     -36.646  23.216   2.935  0.00  0.00    +0.067 C 
ATOM     16  C   UNL     1     -37.856  21.307   1.391  0.00  0.00    +0.141 C 
ATOM     17  C   UNL     1     -38.013  23.300   2.694  0.00  0.00    +0.019 C 
ATOM     18  C   UNL     1     -35.952  22.157   2.374  0.00  0.00    +0.115 C 
ATOM     19  C   UNL     1     -38.635  22.334   1.911  0.00  0.00    +0.036 C 
ATOM     20  H   UNL     1     -39.468  20.492   0.493  0.00  0.00    +0.166 HD
ENDROOT
BRANCH  15  21
ATOM     21  N   UNL     1     -35.992  24.174   3.719  0.00  0.00    -0.311 N 
ATOM     22  N   UNL     1     -34.684  26.289   5.120  0.00  0.00    +0.386 N 
ATOM     23  C   UNL     1     -36.780  25.139   4.496  0.00  0.00    +0.067 C 
ATOM     24  C   UNL     1     -34.668  24.638   3.283  0.00  0.00    +0.067 C 
ATOM     25  C   UNL     1     -35.937  25.732   5.625  0.00  0.00    -0.060 C 
ATOM     26  C   UNL     1     -33.902  25.248   4.456  0.00  0.00    -0.060 C 
ATOM     27  H   UNL     1     -34.145  26.669   5.899  0.00  0.00    -0.084 HD
ATOM     28  H   UNL     1     -34.893  27.028   4.449  0.00  0.00    -0.084 HD
ENDBRANCH  15  21
BRANCH   2  29
ATOM     29  C   UNL     1     -34.050  18.374   0.221  0.00  0.00    +0.091 C 
ATOM     30  C   UNL     1     -33.290  19.371  -0.641  0.00  0.00    +0.023 C 
ATOM     31  C   UNL     1     -32.941  17.636   0.967  0.00  0.00    +0.023 C 
ATOM     32  C   UNL     1     -32.202  19.870   0.296  0.00  0.00    +0.002 C 
ATOM     33  C   UNL     1     -31.808  18.650   1.125  0.00  0.00    +0.002 C 
ENDBRANCH   2  29
BRANCH  10  35
ATOM     34  O   UNL     1     -34.285  14.474  -3.830  0.00  0.00    -0.291 OA
ATOM     35  C   UNL     1     -34.696  14.354  -2.681  0.00  0.00    +0.178 C 
ATOM     36  C   UNL     1     -34.629  13.051  -1.938  0.00  0.00    +0.077 C 
ENDBRANCH  10  35
TORSDOF 3
ENDMDL
MODEL 4
REMARK VINA RESULT:      -6.6      2.677      4.826
REMARK  Name = 5330286
REMARK  3 active torsions:
REMARK  status: ('A' for Active; 'I' for Inactive)
REMARK    1  A    between atoms: N_2  and  C_29
REMARK    2  A    between atoms: C_10  and  C_35
REMARK    3  A    between atoms: C_15  and  N_21
REMARK                            x       y       z     vdW  Elec       q    Type
REMARK                         _______ _______ _______ _____ _____    ______ ____
ROOT
ATOM      1  O   UNL     1     -31.489  30.014   1.235  0.00  0.00    -0.267 OA
ATOM      2  N   UNL     1     -32.361  28.433   2.679  0.00  0.00    -0.272 N 
ATOM      3  N   UNL     1     -33.216  26.806   4.211  0.00  0.00    -0.319 NA
ATOM      4  N   UNL     1     -32.892  27.026   6.573  0.00  0.00    -0.170 NA
ATOM      5  N   UNL     1     -34.050  25.190   5.693  0.00  0.00    -0.232 N 
ATOM      6  N   UNL     1     -34.624  24.526   3.477  0.00  0.00    -0.227 NA
ATOM      7  C   UNL     1     -32.543  27.970   4.011  0.00  0.00    +0.211 A 
ATOM      8  C   UNL     1     -31.670  29.600   2.382  0.00  0.00    +0.265 A 
ATOM      9  C   UNL     1     -32.023  28.720   5.058  0.00  0.00    +0.064 A 
ATOM     10  C   UNL     1     -31.119  30.392   3.536  0.00  0.00    +0.087 A 
ATOM     11  C   UNL     1     -31.301  29.990   4.811  0.00  0.00    -0.009 A 
ATOM     12  C   UNL     1     -32.234  28.178   6.324  0.00  0.00    +0.115 C 
ATOM     13  C   UNL     1     -30.838  30.739   6.039  0.00  0.00    +0.031 C 
ATOM     14  C   UNL     1     -33.352  26.399   5.484  0.00  0.00    +0.151 C 
ATOM     15  C   UNL     1     -35.860  22.477   3.135  0.00  0.00    +0.067 C 
ATOM     16  C   UNL     1     -34.660  24.279   4.810  0.00  0.00    +0.141 C 
ATOM     17  C   UNL     1     -35.882  22.252   4.506  0.00  0.00    +0.019 C 
ATOM     18  C   UNL     1     -35.224  23.619   2.675  0.00  0.00    +0.115 C 
ATOM     19  C   UNL     1     -35.275  23.162   5.364  0.00  0.00    +0.036 C 
ATOM     20  H   UNL     1     -34.124  24.935   6.640  0.00  0.00    +0.166 HD
ENDROOT
BRANCH  15  21
ATOM     21  N   UNL     1     -36.462  21.578   2.246  0.00  0.00    -0.311 N 
ATOM     22  N   UNL     1     -37.753  19.603   0.639  0.00  0.00    +0.386 N 
ATOM     23  C   UNL     1     -37.901  21.675   1.978  0.00  0.00    +0.067 C 
ATOM     24  C   UNL     1     -35.880  20.235   2.121  0.00  0.00    +0.067 C 
ATOM     25  C   UNL     1     -38.249  20.978   0.662  0.00  0.00    -0.060 C 
ATOM     26  C   UNL     1     -36.299  19.590   0.800  0.00  0.00    -0.060 C 
ATOM     27  H   UNL     1     -37.995  19.171  -0.253  0.00  0.00    -0.084 HD
ATOM     28  H   UNL     1     -38.178  19.081   1.405  0.00  0.00    -0.084 HD
ENDBRANCH  15  21
BRANCH   2  29
ATOM     29  C   UNL     1     -32.914  27.634   1.624  0.00  0.00    +0.091 C 
ATOM     30  C   UNL     1     -31.859  27.117   0.657  0.00  0.00    +0.023 C 
ATOM     31  C   UNL     1     -33.865  28.416   0.723  0.00  0.00    +0.023 C 
ATOM     32  C   UNL     1     -32.682  26.692  -0.547  0.00  0.00    +0.002 C 
ATOM     33  C   UNL     1     -33.807  27.720  -0.638  0.00  0.00    +0.002 C 
ENDBRANCH   2  29
BRANCH  10  35
ATOM     34  O   UNL     1     -29.157  31.577   3.030  0.00  0.00    -0.291 OA
ATOM     35  C   UNL     1     -30.367  31.626   3.229  0.00  0.00    +0.178 C 
ATOM     36  C   UNL     1     -31.138  32.913   3.165  0.00  0.00    +0.077 C 
ENDBRANCH  10  35
TORSDOF 3
ENDMDL
MODEL 5
REMARK VINA RESULT:      -6.6      3.355      9.469
REMARK  Name = 5330286
REMARK  3 active torsions:
REMARK  status: ('A' for Active; 'I' for Inactive)
REMARK    1  A    between atoms: N_2  and  C_29
REMARK    2  A    between atoms: C_10  and  C_35
REMARK    3  A    between atoms: C_15  and  N_21
REMARK                            x       y       z     vdW  Elec       q    Type
REMARK                         _______ _______ _______ _____ _____    ______ ____
ROOT
ATOM      1  O   UNL     1     -36.612  25.319   1.294  0.00  0.00    -0.267 OA
ATOM      2  N   UNL     1     -35.159  26.507   2.643  0.00  0.00    -0.272 N 
ATOM      3  N   UNL     1     -33.686  27.717   4.088  0.00  0.00    -0.319 NA
ATOM      4  N   UNL     1     -33.105  26.885   6.256  0.00  0.00    -0.170 NA
ATOM      5  N   UNL     1     -32.250  28.928   5.494  0.00  0.00    -0.232 N 
ATOM      6  N   UNL     1     -32.516  30.161   3.472  0.00  0.00    -0.227 NA
ATOM      7  C   UNL     1     -34.457  26.619   3.874  0.00  0.00    +0.211 A 
ATOM      8  C   UNL     1     -35.984  25.430   2.349  0.00  0.00    +0.265 A 
ATOM      9  C   UNL     1     -34.590  25.605   4.815  0.00  0.00    +0.064 A 
ATOM     10  C   UNL     1     -36.108  24.348   3.386  0.00  0.00    +0.087 A 
ATOM     11  C   UNL     1     -35.431  24.416   4.551  0.00  0.00    -0.009 A 
ATOM     12  C   UNL     1     -33.881  25.812   5.997  0.00  0.00    +0.115 C 
ATOM     13  C   UNL     1     -35.442  23.359   5.632  0.00  0.00    +0.031 C 
ATOM     14  C   UNL     1     -33.051  27.788   5.270  0.00  0.00    +0.151 C 
ATOM     15  C   UNL     1     -31.372  32.274   3.211  0.00  0.00    +0.067 C 
ATOM     16  C   UNL     1     -31.962  30.058   4.706  0.00  0.00    +0.141 C 
ATOM     17  C   UNL     1     -30.819  32.141   4.479  0.00  0.00    +0.019 C 
ATOM     18  C   UNL     1     -32.208  31.266   2.758  0.00  0.00    +0.115 C 
ATOM     19  C   UNL     1     -31.113  31.018   5.244  0.00  0.00    +0.036 C 
ATOM     20  H   UNL     1     -31.807  28.934   6.372  0.00  0.00    +0.166 HD
ENDROOT
BRANCH  15  21
ATOM     21  N   UNL     1     -31.095  33.394   2.417  0.00  0.00    -0.311 N 
ATOM     22  N   UNL     1     -30.777  35.680   0.738  0.00  0.00    +0.386 N 
ATOM     23  C   UNL     1     -31.303  34.740   2.962  0.00  0.00    +0.067 C 
ATOM     24  C   UNL     1     -31.247  33.265   0.962  0.00  0.00    +0.067 C 
ATOM     25  C   UNL     1     -30.497  35.769   2.169  0.00  0.00    -0.060 C 
ATOM     26  C   UNL     1     -30.442  34.347   0.241  0.00  0.00    -0.060 C 
ATOM     27  H   UNL     1     -30.220  36.374   0.240  0.00  0.00    -0.084 HD
ATOM     28  H   UNL     1     -31.770  35.855   0.580  0.00  0.00    -0.084 HD
ENDBRANCH  15  21
BRANCH   2  29
ATOM     29  C   UNL     1     -34.997  27.572   1.694  0.00  0.00    +0.091 C 
ATOM     30  C   UNL     1     -36.303  28.283   1.372  0.00  0.00    +0.023 C 
ATOM     31  C   UNL     1     -34.515  27.083   0.331  0.00  0.00    +0.023 C 
ATOM     32  C   UNL     1     -35.972  29.033   0.093  0.00  0.00    +0.002 C 
ATOM     33  C   UNL     1     -35.038  28.104  -0.679  0.00  0.00    +0.002 C 
ENDBRANCH   2  29
BRANCH  10  35
ATOM     34  O   UNL     1     -38.199  23.285   3.327  0.00  0.00    -0.291 OA
ATOM     35  C   UNL     1     -36.998  23.207   3.090  0.00  0.00    +0.178 C 
ATOM     36  C   UNL     1     -36.377  21.978   2.490  0.00  0.00    +0.077 C 
ENDBRANCH  10  35
TORSDOF 3
ENDMDL
MODEL 6
REMARK VINA RESULT:      -6.5      6.983      9.811
REMARK  Name = 5330286
REMARK  3 active torsions:
REMARK  status: ('A' for Active; 'I' for Inactive)
REMARK    1  A    between atoms: N_2  and  C_29
REMARK    2  A    between atoms: C_10  and  C_35
REMARK    3  A    between atoms: C_15  and  N_21
REMARK                            x       y       z     vdW  Elec       q    Type
REMARK                         _______ _______ _______ _____ _____    ______ ____
ROOT
ATOM      1  O   UNL     1     -38.150  25.834   2.650  0.00  0.00    -0.267 OA
ATOM      2  N   UNL     1     -38.243  23.754   1.646  0.00  0.00    -0.272 N 
ATOM      3  N   UNL     1     -38.398  21.595   0.627  0.00  0.00    -0.319 NA
ATOM      4  N   UNL     1     -40.459  20.793  -0.288  0.00  0.00    -0.170 NA
ATOM      5  N   UNL     1     -38.528  19.469  -0.355  0.00  0.00    -0.232 N 
ATOM      6  N   UNL     1     -36.291  19.798   0.397  0.00  0.00    -0.227 NA
ATOM      7  C   UNL     1     -39.007  22.758   0.979  0.00  0.00    +0.211 A 
ATOM      8  C   UNL     1     -38.789  24.962   2.059  0.00  0.00    +0.265 A 
ATOM      9  C   UNL     1     -40.349  23.006   0.718  0.00  0.00    +0.064 A 
ATOM     10  C   UNL     1     -40.243  25.203   1.762  0.00  0.00    +0.087 A 
ATOM     11  C   UNL     1     -40.985  24.286   1.106  0.00  0.00    -0.009 A 
ATOM     12  C   UNL     1     -41.020  21.965   0.079  0.00  0.00    +0.115 C 
ATOM     13  C   UNL     1     -42.434  24.453   0.710  0.00  0.00    +0.031 C 
ATOM     14  C   UNL     1     -39.160  20.677   0.011  0.00  0.00    +0.151 C 
ATOM     15  C   UNL     1     -34.657  18.048   0.064  0.00  0.00    +0.067 C 
ATOM     16  C   UNL     1     -37.209  19.001  -0.205  0.00  0.00    +0.141 C 
ATOM     17  C   UNL     1     -35.620  17.255  -0.550  0.00  0.00    +0.019 C 
ATOM     18  C   UNL     1     -35.040  19.300   0.516  0.00  0.00    +0.115 C 
ATOM     19  C   UNL     1     -36.918  17.732  -0.691  0.00  0.00    +0.036 C 
ATOM     20  H   UNL     1     -39.128  18.829  -0.802  0.00  0.00    +0.166 HD
ENDROOT
BRANCH  15  21
ATOM     21  N   UNL     1     -33.342  17.594   0.220  0.00  0.00    -0.311 N 
ATOM     22  N   UNL     1     -30.728  16.591   0.774  0.00  0.00    +0.386 N 
ATOM     23  C   UNL     1     -33.019  16.191  -0.060  0.00  0.00    +0.067 C 
ATOM     24  C   UNL     1     -32.499  18.253   1.227  0.00  0.00    +0.067 C 
ATOM     25  C   UNL     1     -31.521  16.027  -0.317  0.00  0.00    -0.060 C 
ATOM     26  C   UNL     1     -31.019  18.016   0.924  0.00  0.00    -0.060 C 
ATOM     27  H   UNL     1     -29.736  16.471   0.568  0.00  0.00    -0.084 HD
ATOM     28  H   UNL     1     -30.963  16.109   1.642  0.00  0.00    -0.084 HD
ENDBRANCH  15  21
BRANCH   2  29
ATOM     29  C   UNL     1     -36.860  23.464   1.897  0.00  0.00    +0.091 C 
ATOM     30  C   UNL     1     -36.540  23.343   3.380  0.00  0.00    +0.023 C 
ATOM     31  C   UNL     1     -35.926  24.575   1.424  0.00  0.00    +0.023 C 
ATOM     32  C   UNL     1     -35.026  23.465   3.410  0.00  0.00    +0.002 C 
ATOM     33  C   UNL     1     -34.691  24.481   2.320  0.00  0.00    +0.002 C 
ENDBRANCH   2  29
BRANCH  10  35
ATOM     34  O   UNL     1     -40.838  27.454   1.472  0.00  0.00    -0.291 OA
ATOM     35  C   UNL     1     -40.839  26.477   2.214  0.00  0.00    +0.178 C 
ATOM     36  C   UNL     1     -41.440  26.516   3.589  0.00  0.00    +0.077 C 
ENDBRANCH  10  35
TORSDOF 3
ENDMDL
MODEL 7
REMARK VINA RESULT:      -6.4      3.223      5.249
REMARK  Name = 5330286
REMARK  3 active torsions:
REMARK  status: ('A' for Active; 'I' for Inactive)
REMARK    1  A    between atoms: N_2  and  C_29
REMARK    2  A    between atoms: C_10  and  C_35
REMARK    3  A    between atoms: C_15  and  N_21
REMARK                            x       y       z     vdW  Elec       q    Type
REMARK                         _______ _______ _______ _____ _____    ______ ____
ROOT
ATOM      1  O   UNL     1     -32.643  26.658   6.176  0.00  0.00    -0.267 OA
ATOM      2  N   UNL     1     -33.928  27.209   4.336  0.00  0.00    -0.272 N 
ATOM      3  N   UNL     1     -35.258  27.838   2.449  0.00  0.00    -0.319 NA
ATOM      4  N   UNL     1     -34.964  29.953   1.366  0.00  0.00    -0.170 NA
ATOM      5  N   UNL     1     -36.583  28.439   0.609  0.00  0.00    -0.232 N 
ATOM      6  N   UNL     1     -37.253  26.267   1.322  0.00  0.00    -0.227 NA
ATOM      7  C   UNL     1     -34.265  28.149   3.323  0.00  0.00    +0.211 A 
ATOM      8  C   UNL     1     -32.942  27.452   5.282  0.00  0.00    +0.265 A 
ATOM      9  C   UNL     1     -33.570  29.351   3.268  0.00  0.00    +0.064 A 
ATOM     10  C   UNL     1     -32.207  28.761   5.196  0.00  0.00    +0.087 A 
ATOM     11  C   UNL     1     -32.487  29.659   4.229  0.00  0.00    -0.009 A 
ATOM     12  C   UNL     1     -33.982  30.215   2.255  0.00  0.00    +0.115 C 
ATOM     13  C   UNL     1     -31.771  30.974   4.022  0.00  0.00    +0.031 C 
ATOM     14  C   UNL     1     -35.551  28.760   1.517  0.00  0.00    +0.151 C 
ATOM     15  C   UNL     1     -39.033  25.128   0.148  0.00  0.00    +0.067 C 
ATOM     16  C   UNL     1     -37.407  27.307   0.466  0.00  0.00    +0.141 C 
ATOM     17  C   UNL     1     -39.166  26.209  -0.715  0.00  0.00    +0.019 C 
ATOM     18  C   UNL     1     -38.070  25.205   1.142  0.00  0.00    +0.115 C 
ATOM     19  C   UNL     1     -38.344  27.320  -0.560  0.00  0.00    +0.036 C 
ATOM     20  H   UNL     1     -36.761  29.145  -0.053  0.00  0.00    +0.166 HD
ENDROOT
BRANCH  15  21
ATOM     21  N   UNL     1     -39.847  23.996   0.018  0.00  0.00    -0.311 N 
ATOM     22  N   UNL     1     -41.561  21.714   0.001  0.00  0.00    +0.386 N 
ATOM     23  C   UNL     1     -41.285  24.159  -0.222  0.00  0.00    +0.067 C 
ATOM     24  C   UNL     1     -39.455  22.776   0.736  0.00  0.00    +0.067 C 
ATOM     25  C   UNL     1     -41.877  22.883  -0.818  0.00  0.00    -0.060 C 
ATOM     26  C   UNL     1     -40.112  21.549   0.104  0.00  0.00    -0.060 C 
ATOM     27  H   UNL     1     -41.964  20.881  -0.429  0.00  0.00    -0.084 HD
ATOM     28  H   UNL     1     -41.949  21.845   0.934  0.00  0.00    -0.084 HD
ENDBRANCH  15  21
BRANCH   2  29
ATOM     29  C   UNL     1     -34.665  25.978   4.361  0.00  0.00    +0.091 C 
ATOM     30  C   UNL     1     -35.501  25.814   5.622  0.00  0.00    +0.023 C 
ATOM     31  C   UNL     1     -33.762  24.747   4.374  0.00  0.00    +0.023 C 
ATOM     32  C   UNL     1     -35.824  24.329   5.622  0.00  0.00    +0.002 C 
ATOM     33  C   UNL     1     -34.571  23.653   5.072  0.00  0.00    +0.002 C 
ENDBRANCH   2  29
BRANCH  10  35
ATOM     34  O   UNL     1     -31.459  29.621   7.248  0.00  0.00    -0.291 OA
ATOM     35  C   UNL     1     -31.168  29.037   6.209  0.00  0.00    +0.178 C 
ATOM     36  C   UNL     1     -29.770  28.570   5.918  0.00  0.00    +0.077 C 
ENDBRANCH  10  35
TORSDOF 3
ENDMDL
MODEL 8
REMARK VINA RESULT:      -6.4      3.857      8.061
REMARK  Name = 5330286
REMARK  3 active torsions:
REMARK  status: ('A' for Active; 'I' for Inactive)
REMARK    1  A    between atoms: N_2  and  C_29
REMARK    2  A    between atoms: C_10  and  C_35
REMARK    3  A    between atoms: C_15  and  N_21
REMARK                            x       y       z     vdW  Elec       q    Type
REMARK                         _______ _______ _______ _____ _____    ______ ____
ROOT
ATOM      1  O   UNL     1     -37.812  24.109   3.073  0.00  0.00    -0.267 OA
ATOM      2  N   UNL     1     -36.452  25.970   2.891  0.00  0.00    -0.272 N 
ATOM      3  N   UNL     1     -35.059  27.898   2.642  0.00  0.00    -0.319 NA
ATOM      4  N   UNL     1     -35.589  29.626   1.072  0.00  0.00    -0.170 NA
ATOM      5  N   UNL     1     -33.670  29.774   2.406  0.00  0.00    -0.232 N 
ATOM      6  N   UNL     1     -32.722  28.359   4.074  0.00  0.00    -0.227 NA
ATOM      7  C   UNL     1     -36.175  27.219   2.270  0.00  0.00    +0.211 A 
ATOM      8  C   UNL     1     -37.558  25.200   2.558  0.00  0.00    +0.265 A 
ATOM      9  C   UNL     1     -37.052  27.695   1.304  0.00  0.00    +0.064 A 
ATOM     10  C   UNL     1     -38.490  25.741   1.509  0.00  0.00    +0.087 A 
ATOM     11  C   UNL     1     -38.265  26.936   0.924  0.00  0.00    -0.009 A 
ATOM     12  C   UNL     1     -36.688  28.916   0.738  0.00  0.00    +0.115 C 
ATOM     13  C   UNL     1     -39.166  27.594  -0.097  0.00  0.00    +0.031 C 
ATOM     14  C   UNL     1     -34.829  29.067   2.021  0.00  0.00    +0.151 C 
ATOM     15  C   UNL     1     -30.665  29.017   5.159  0.00  0.00    +0.067 C 
ATOM     16  C   UNL     1     -32.657  29.502   3.345  0.00  0.00    +0.141 C 
ATOM     17  C   UNL     1     -30.626  30.180   4.398  0.00  0.00    +0.019 C 
ATOM     18  C   UNL     1     -31.725  28.147   4.960  0.00  0.00    +0.115 C 
ATOM     19  C   UNL     1     -31.634  30.434   3.475  0.00  0.00    +0.036 C 
ATOM     20  H   UNL     1     -33.545  30.622   1.923  0.00  0.00    +0.166 HD
ENDROOT
BRANCH  15  21
ATOM     21  N   UNL     1     -29.664  28.734   6.096  0.00  0.00    -0.311 N 
ATOM     22  N   UNL     1     -27.452  28.225   7.827  0.00  0.00    +0.386 N 
ATOM     23  C   UNL     1     -29.107  29.816   6.915  0.00  0.00    +0.067 C 
ATOM     24  C   UNL     1     -28.755  27.613   5.819  0.00  0.00    +0.067 C 
ATOM     25  C   UNL     1     -28.436  29.251   8.166  0.00  0.00    -0.060 C 
ATOM     26  C   UNL     1     -28.097  27.126   7.110  0.00  0.00    -0.060 C 
ATOM     27  H   UNL     1     -27.029  27.865   8.683  0.00  0.00    -0.084 HD
ATOM     28  H   UNL     1     -26.733  28.635   7.231  0.00  0.00    -0.084 HD
ENDBRANCH  15  21
BRANCH   2  29
ATOM     29  C   UNL     1     -35.527  25.510   3.886  0.00  0.00    +0.091 C 
ATOM     30  C   UNL     1     -35.017  24.102   3.617  0.00  0.00    +0.023 C 
ATOM     31  C   UNL     1     -36.154  25.399   5.273  0.00  0.00    +0.023 C 
ATOM     32  C   UNL     1     -34.430  23.693   4.957  0.00  0.00    +0.002 C 
ATOM     33  C   UNL     1     -35.354  24.317   5.999  0.00  0.00    +0.002 C 
ENDBRANCH   2  29
BRANCH  10  35
ATOM     34  O   UNL     1     -39.578  24.116   0.213  0.00  0.00    -0.291 OA
ATOM     35  C   UNL     1     -39.660  24.921   1.135  0.00  0.00    +0.178 C 
ATOM     36  C   UNL     1     -40.923  25.109   1.925  0.00  0.00    +0.077 C 
ENDBRANCH  10  35
TORSDOF 3
ENDMDL
MODEL 9
REMARK VINA RESULT:      -6.4      3.672      9.526
REMARK  Name = 5330286
REMARK  3 active torsions:
REMARK  status: ('A' for Active; 'I' for Inactive)
REMARK    1  A    between atoms: N_2  and  C_29
REMARK    2  A    between atoms: C_10  and  C_35
REMARK    3  A    between atoms: C_15  and  N_21
REMARK                            x       y       z     vdW  Elec       q    Type
REMARK                         _______ _______ _______ _____ _____    ______ ____
ROOT
ATOM      1  O   UNL     1     -35.214  24.044   0.866  0.00  0.00    -0.267 OA
ATOM      2  N   UNL     1     -34.314  25.544   2.377  0.00  0.00    -0.272 N 
ATOM      3  N   UNL     1     -33.427  27.080   3.982  0.00  0.00    -0.319 NA
ATOM      4  N   UNL     1     -33.507  26.616   6.329  0.00  0.00    -0.170 NA
ATOM      5  N   UNL     1     -32.563  28.608   5.538  0.00  0.00    -0.232 N 
ATOM      6  N   UNL     1     -32.249  29.518   3.358  0.00  0.00    -0.227 NA
ATOM      7  C   UNL     1     -34.036  25.893   3.728  0.00  0.00    +0.211 A 
ATOM      8  C   UNL     1     -34.952  24.361   2.028  0.00  0.00    +0.265 A 
ATOM      9  C   UNL     1     -34.403  25.010   4.736  0.00  0.00    +0.064 A 
ATOM     10  C   UNL     1     -35.336  23.426   3.141  0.00  0.00    +0.087 A 
ATOM     11  C   UNL     1     -35.060  23.719   4.428  0.00  0.00    -0.009 A 
ATOM     12  C   UNL     1     -34.108  25.446   6.027  0.00  0.00    +0.115 C 
ATOM     13  C   UNL     1     -35.352  22.826   5.612  0.00  0.00    +0.031 C 
ATOM     14  C   UNL     1     -33.196  27.375   5.272  0.00  0.00    +0.151 C 
ATOM     15  C   UNL     1     -31.189  31.677   3.114  0.00  0.00    +0.067 C 
ATOM     16  C   UNL     1     -32.101  29.642   4.701  0.00  0.00    +0.141 C 
ATOM     17  C   UNL     1     -31.051  31.774   4.494  0.00  0.00    +0.019 C 
ATOM     18  C   UNL     1     -31.790  30.539   2.601  0.00  0.00    +0.115 C 
ATOM     19  C   UNL     1     -31.512  30.745   5.307  0.00  0.00    +0.036 C 
ATOM     20  H   UNL     1     -32.416  28.779   6.496  0.00  0.00    +0.166 HD
ENDROOT
BRANCH  15  21
ATOM     21  N   UNL     1     -30.736  32.698   2.270  0.00  0.00    -0.311 N 
ATOM     22  N   UNL     1     -30.054  34.861   0.536  0.00  0.00    +0.386 N 
ATOM     23  C   UNL     1     -30.421  34.017   2.830  0.00  0.00    +0.067 C 
ATOM     24  C   UNL     1     -31.186  32.690   0.872  0.00  0.00    +0.067 C 
ATOM     25  C   UNL     1     -29.500  34.793   1.887  0.00  0.00    -0.060 C 
ATOM     26  C   UNL     1     -30.238  33.513  -0.001  0.00  0.00    -0.060 C 
ATOM     27  H   UNL     1     -29.414  35.378  -0.066  0.00  0.00    -0.084 HD
ATOM     28  H   UNL     1     -30.958  35.333   0.569  0.00  0.00    -0.084 HD
ENDBRANCH  15  21
BRANCH   2  29
ATOM     29  C   UNL     1     -33.919  26.478   1.362  0.00  0.00    +0.091 C 
ATOM     30  C   UNL     1     -35.083  26.946   0.502  0.00  0.00    +0.023 C 
ATOM     31  C   UNL     1     -32.950  25.876   0.348  0.00  0.00    +0.023 C 
ATOM     32  C   UNL     1     -34.389  27.550  -0.707  0.00  0.00    +0.002 C 
ATOM     33  C   UNL     1     -33.169  26.663  -0.945  0.00  0.00    +0.002 C 
ENDBRANCH   2  29
BRANCH  10  35
ATOM     34  O   UNL     1     -37.253  22.153   2.680  0.00  0.00    -0.291 OA
ATOM     35  C   UNL     1     -36.031  22.173   2.780  0.00  0.00    +0.178 C 
ATOM     36  C   UNL     1     -35.188  20.954   2.538  0.00  0.00    +0.077 C 
ENDBRANCH  10  35
TORSDOF 3
ENDMDL
