MODEL 1
REMARK VINA RESULT:      -6.0      0.000      0.000
REMARK  Name = 53174
REMARK  5 active torsions:
REMARK  status: ('A' for Active; 'I' for Inactive)
REMARK    1  A    between atoms: N_4  and  C_11
REMARK    2  A    between atoms: C_5  and  S_16
REMARK    3  A    between atoms: C_12  and  O_22
REMARK    4  A    between atoms: S_16  and  C_19
REMARK    5  A    between atoms: C_19  and  C_20
REMARK                            x       y       z     vdW  Elec       q    Type
REMARK                         _______ _______ _______ _____ _____    ______ ____
ROOT
ATOM      1  N   UNL     1     -34.056  25.788   3.482  0.00  0.00    -0.302 N 
ATOM      2  N   UNL     1     -34.371  25.372   5.642  0.00  0.00    -0.302 N 
ATOM      3  C   UNL     1     -35.443  22.377   2.975  0.00  0.00    +0.107 C 
ATOM      4  C   UNL     1     -34.586  24.524   3.538  0.00  0.00    +0.062 C 
ATOM      5  C   UNL     1     -34.908  23.596   2.547  0.00  0.00    +0.034 C 
ATOM      6  C   UNL     1     -34.774  24.287   4.896  0.00  0.00    +0.060 C 
ATOM      7  C   UNL     1     -35.643  22.111   4.332  0.00  0.00    +0.020 C 
ATOM      8  C   UNL     1     -35.313  23.058   5.310  0.00  0.00    +0.017 C 
ATOM      9  C   UNL     1     -33.947  26.252   4.763  0.00  0.00    +0.229 C 
ATOM     10  H   UNL     1     -33.800  26.273   2.665  0.00  0.00    +0.150 HD
ATOM     11  H   UNL     1     -34.395  25.468   6.621  0.00  0.00    +0.150 HD
ENDROOT
BRANCH   9  13
ATOM     12  O   UNL     1     -31.823  27.100   6.662  0.00  0.00    -0.226 OA
ATOM     13  N   UNL     1     -33.442  27.503   5.007  0.00  0.00    -0.240 N 
ATOM     14  C   UNL     1     -32.439  27.848   5.914  0.00  0.00    +0.404 C 
ATOM     15  H   UNL     1     -33.830  28.240   4.482  0.00  0.00    +0.156 HD
BRANCH  14  16
ATOM     16  O   UNL     1     -32.223  29.200   5.856  0.00  0.00    -0.431 OA
ATOM     17  C   UNL     1     -31.480  29.766   6.942  0.00  0.00    +0.257 C 
ENDBRANCH  14  16
ENDBRANCH   9  13
BRANCH   3  18
ATOM     18  S   UNL     1     -35.869  21.165   1.789  0.00  0.00    +0.009 S 
ATOM     19  O   UNL     1     -36.345  19.991   2.504  0.00  0.00    -0.169 OA
ATOM     20  O   UNL     1     -36.704  21.780   0.768  0.00  0.00    -0.169 OA
BRANCH  18  21
ATOM     21  C   UNL     1     -34.324  20.747   1.015  0.00  0.00    +0.156 C 
BRANCH  21  22
ATOM     22  C   UNL     1     -33.792  19.417   1.523  0.00  0.00    +0.026 C 
ATOM     23  C   UNL     1     -32.458  19.071   0.885  0.00  0.00    +0.002 C 
ENDBRANCH  21  22
ENDBRANCH  18  21
ENDBRANCH   3  18
TORSDOF 5
ENDMDL
MODEL 2
REMARK VINA RESULT:      -5.9      3.549      7.709
REMARK  Name = 53174
REMARK  5 active torsions:
REMARK  status: ('A' for Active; 'I' for Inactive)
REMARK    1  A    between atoms: N_4  and  C_11
REMARK    2  A    between atoms: C_5  and  S_16
REMARK    3  A    between atoms: C_12  and  O_22
REMARK    4  A    between atoms: S_16  and  C_19
REMARK    5  A    between atoms: C_19  and  C_20
REMARK                            x       y       z     vdW  Elec       q    Type
REMARK                         _______ _______ _______ _____ _____    ______ ____
ROOT
ATOM      1  N   UNL     1     -36.914  23.720   2.404  0.00  0.00    -0.302 N 
ATOM      2  N   UNL     1     -36.658  22.256   4.057  0.00  0.00    -0.302 N 
ATOM      3  C   UNL     1     -34.302  25.672   4.187  0.00  0.00    +0.107 C 
ATOM      4  C   UNL     1     -35.953  24.256   3.222  0.00  0.00    +0.062 C 
ATOM      5  C   UNL     1     -35.218  25.441   3.156  0.00  0.00    +0.034 C 
ATOM      6  C   UNL     1     -35.811  23.325   4.246  0.00  0.00    +0.060 C 
ATOM      7  C   UNL     1     -34.137  24.755   5.229  0.00  0.00    +0.020 C 
ATOM      8  C   UNL     1     -34.887  23.572   5.275  0.00  0.00    +0.017 C 
ATOM      9  C   UNL     1     -37.303  22.526   2.944  0.00  0.00    +0.229 C 
ATOM     10  H   UNL     1     -37.261  24.122   1.576  0.00  0.00    +0.150 HD
ATOM     11  H   UNL     1     -36.759  21.463   4.630  0.00  0.00    +0.150 HD
ENDROOT
BRANCH   9  13
ATOM     12  O   UNL     1     -40.123  23.202   2.287  0.00  0.00    -0.226 OA
ATOM     13  N   UNL     1     -38.263  21.766   2.328  0.00  0.00    -0.240 N 
ATOM     14  C   UNL     1     -39.580  22.133   2.042  0.00  0.00    +0.404 C 
ATOM     15  H   UNL     1     -37.994  20.859   2.056  0.00  0.00    +0.156 HD
BRANCH  14  16
ATOM     16  O   UNL     1     -40.215  21.091   1.419  0.00  0.00    -0.431 OA
ATOM     17  C   UNL     1     -40.116  21.057  -0.009  0.00  0.00    +0.257 C 
ENDBRANCH  14  16
ENDBRANCH   9  13
BRANCH   3  18
ATOM     18  S   UNL     1     -33.346  27.136   4.171  0.00  0.00    +0.009 S 
ATOM     19  O   UNL     1     -32.143  26.873   3.397  0.00  0.00    -0.169 OA
ATOM     20  O   UNL     1     -34.206  28.254   3.817  0.00  0.00    -0.169 OA
BRANCH  18  21
ATOM     21  C   UNL     1     -32.868  27.365   5.868  0.00  0.00    +0.156 C 
BRANCH  21  22
ATOM     22  C   UNL     1     -31.564  28.139   5.976  0.00  0.00    +0.026 C 
ATOM     23  C   UNL     1     -31.782  29.516   6.579  0.00  0.00    +0.002 C 
ENDBRANCH  21  22
ENDBRANCH  18  21
ENDBRANCH   3  18
TORSDOF 5
ENDMDL
MODEL 3
REMARK VINA RESULT:      -5.9      2.418      3.449
REMARK  Name = 53174
REMARK  5 active torsions:
REMARK  status: ('A' for Active; 'I' for Inactive)
REMARK    1  A    between atoms: N_4  and  C_11
REMARK    2  A    between atoms: C_5  and  S_16
REMARK    3  A    between atoms: C_12  and  O_22
REMARK    4  A    between atoms: S_16  and  C_19
REMARK    5  A    between atoms: C_19  and  C_20
REMARK                            x       y       z     vdW  Elec       q    Type
REMARK                         _______ _______ _______ _____ _____    ______ ____
ROOT
ATOM      1  N   UNL     1     -32.962  26.989   6.593  0.00  0.00    -0.302 N 
ATOM      2  N   UNL     1     -32.325  27.994   4.716  0.00  0.00    -0.302 N 
ATOM      3  C   UNL     1     -35.220  25.038   4.378  0.00  0.00    +0.107 C 
ATOM      4  C   UNL     1     -33.699  26.402   5.596  0.00  0.00    +0.062 C 
ATOM      5  C   UNL     1     -34.663  25.394   5.611  0.00  0.00    +0.034 C 
ATOM      6  C   UNL     1     -33.283  27.046   4.434  0.00  0.00    +0.060 C 
ATOM      7  C   UNL     1     -34.823  25.666   3.194  0.00  0.00    +0.020 C 
ATOM      8  C   UNL     1     -33.853  26.676   3.204  0.00  0.00    +0.017 C 
ATOM      9  C   UNL     1     -32.157  27.932   6.017  0.00  0.00    +0.229 C 
ATOM     10  H   UNL     1     -33.006  26.770   7.551  0.00  0.00    +0.150 HD
ATOM     11  H   UNL     1     -31.866  28.588   4.080  0.00  0.00    +0.150 HD
ENDROOT
BRANCH   9  13
ATOM     12  O   UNL     1     -29.256  28.474   5.656  0.00  0.00    -0.226 OA
ATOM     13  N   UNL     1     -31.306  28.681   6.788  0.00  0.00    -0.240 N 
ATOM     14  C   UNL     1     -29.944  28.903   6.573  0.00  0.00    +0.404 C 
ATOM     15  H   UNL     1     -31.699  29.109   7.583  0.00  0.00    +0.156 HD
BRANCH  14  16
ATOM     16  O   UNL     1     -29.455  29.707   7.569  0.00  0.00    -0.431 OA
ATOM     17  C   UNL     1     -28.121  29.423   8.007  0.00  0.00    +0.257 C 
ENDBRANCH  14  16
ENDBRANCH   9  13
BRANCH   3  18
ATOM     18  S   UNL     1     -36.435  23.782   4.319  0.00  0.00    +0.009 S 
ATOM     19  O   UNL     1     -36.292  22.967   5.515  0.00  0.00    -0.169 OA
ATOM     20  O   UNL     1     -37.721  24.387   4.004  0.00  0.00    -0.169 OA
BRANCH  18  21
ATOM     21  C   UNL     1     -35.972  22.789   2.919  0.00  0.00    +0.156 C 
BRANCH  21  22
ATOM     22  C   UNL     1     -35.535  21.397   3.347  0.00  0.00    +0.026 C 
ATOM     23  C   UNL     1     -35.162  20.538   2.151  0.00  0.00    +0.002 C 
ENDBRANCH  21  22
ENDBRANCH  18  21
ENDBRANCH   3  18
TORSDOF 5
ENDMDL
MODEL 4
REMARK VINA RESULT:      -5.8      2.811      7.683
REMARK  Name = 53174
REMARK  5 active torsions:
REMARK  status: ('A' for Active; 'I' for Inactive)
REMARK    1  A    between atoms: N_4  and  C_11
REMARK    2  A    between atoms: C_5  and  S_16
REMARK    3  A    between atoms: C_12  and  O_22
REMARK    4  A    between atoms: S_16  and  C_19
REMARK    5  A    between atoms: C_19  and  C_20
REMARK                            x       y       z     vdW  Elec       q    Type
REMARK                         _______ _______ _______ _____ _____    ______ ____
ROOT
ATOM      1  N   UNL     1     -35.197  23.124   2.593  0.00  0.00    -0.302 N 
ATOM      2  N   UNL     1     -36.511  22.793   4.354  0.00  0.00    -0.302 N 
ATOM      3  C   UNL     1     -33.999  26.096   4.476  0.00  0.00    +0.107 C 
ATOM      4  C   UNL     1     -34.913  24.149   3.458  0.00  0.00    +0.062 C 
ATOM      5  C   UNL     1     -34.026  25.224   3.383  0.00  0.00    +0.034 C 
ATOM      6  C   UNL     1     -35.746  23.921   4.550  0.00  0.00    +0.060 C 
ATOM      7  C   UNL     1     -34.823  25.892   5.586  0.00  0.00    +0.020 C 
ATOM      8  C   UNL     1     -35.707  24.806   5.640  0.00  0.00    +0.017 C 
ATOM      9  C   UNL     1     -36.156  22.342   3.172  0.00  0.00    +0.229 C 
ATOM     10  H   UNL     1     -34.783  22.978   1.712  0.00  0.00    +0.150 HD
ATOM     11  H   UNL     1     -37.179  22.409   4.966  0.00  0.00    +0.150 HD
ENDROOT
BRANCH   9  13
ATOM     12  O   UNL     1     -34.670  20.163   1.799  0.00  0.00    -0.226 OA
ATOM     13  N   UNL     1     -36.634  21.234   2.521  0.00  0.00    -0.240 N 
ATOM     14  C   UNL     1     -35.889  20.236   1.889  0.00  0.00    +0.404 C 
ATOM     15  H   UNL     1     -37.613  21.130   2.496  0.00  0.00    +0.156 HD
BRANCH  14  16
ATOM     16  O   UNL     1     -36.740  19.303   1.359  0.00  0.00    -0.431 OA
ATOM     17  C   UNL     1     -36.438  18.858   0.032  0.00  0.00    +0.257 C 
ENDBRANCH  14  16
ENDBRANCH   9  13
BRANCH   3  18
ATOM     18  S   UNL     1     -32.913  27.466   4.451  0.00  0.00    +0.009 S 
ATOM     19  O   UNL     1     -31.729  27.082   3.697  0.00  0.00    -0.169 OA
ATOM     20  O   UNL     1     -33.662  28.653   4.070  0.00  0.00    -0.169 OA
BRANCH  18  21
ATOM     21  C   UNL     1     -32.435  27.676   6.151  0.00  0.00    +0.156 C 
BRANCH  21  22
ATOM     22  C   UNL     1     -31.241  28.608   6.279  0.00  0.00    +0.026 C 
ATOM     23  C   UNL     1     -31.676  30.033   6.576  0.00  0.00    +0.002 C 
ENDBRANCH  21  22
ENDBRANCH  18  21
ENDBRANCH   3  18
TORSDOF 5
ENDMDL
MODEL 5
REMARK VINA RESULT:      -5.8      4.886      9.142
REMARK  Name = 53174
REMARK  5 active torsions:
REMARK  status: ('A' for Active; 'I' for Inactive)
REMARK    1  A    between atoms: N_4  and  C_11
REMARK    2  A    between atoms: C_5  and  S_16
REMARK    3  A    between atoms: C_12  and  O_22
REMARK    4  A    between atoms: S_16  and  C_19
REMARK    5  A    between atoms: C_19  and  C_20
REMARK                            x       y       z     vdW  Elec       q    Type
REMARK                         _______ _______ _______ _____ _____    ______ ____
ROOT
ATOM      1  N   UNL     1     -38.166  19.797   0.374  0.00  0.00    -0.302 N 
ATOM      2  N   UNL     1     -36.324  18.558   0.469  0.00  0.00    -0.302 N 
ATOM      3  C   UNL     1     -36.228  22.225   2.413  0.00  0.00    +0.107 C 
ATOM      4  C   UNL     1     -37.272  20.528   1.113  0.00  0.00    +0.062 C 
ATOM      5  C   UNL     1     -37.361  21.778   1.726  0.00  0.00    +0.034 C 
ATOM      6  C   UNL     1     -36.130  19.734   1.158  0.00  0.00    +0.060 C 
ATOM      7  C   UNL     1     -35.066  21.450   2.476  0.00  0.00    +0.020 C 
ATOM      8  C   UNL     1     -35.000  20.197   1.853  0.00  0.00    +0.017 C 
ATOM      9  C   UNL     1     -37.554  18.630   0.013  0.00  0.00    +0.229 C 
ATOM     10  H   UNL     1     -39.085  20.065   0.145  0.00  0.00    +0.150 HD
ATOM     11  H   UNL     1     -35.681  17.823   0.346  0.00  0.00    +0.150 HD
ENDROOT
BRANCH   9  13
ATOM     12  O   UNL     1     -37.660  15.673   0.311  0.00  0.00    -0.226 OA
ATOM     13  N   UNL     1     -38.224  17.699  -0.739  0.00  0.00    -0.240 N 
ATOM     14  C   UNL     1     -38.240  16.315  -0.555  0.00  0.00    +0.404 C 
ATOM     15  H   UNL     1     -38.753  18.046  -1.494  0.00  0.00    +0.156 HD
BRANCH  14  16
ATOM     16  O   UNL     1     -39.028  15.740  -1.517  0.00  0.00    -0.431 OA
ATOM     17  C   UNL     1     -40.442  15.820  -1.302  0.00  0.00    +0.257 C 
ENDBRANCH  14  16
ENDBRANCH   9  13
BRANCH   3  18
ATOM     18  S   UNL     1     -36.266  23.782   3.207  0.00  0.00    +0.009 S 
ATOM     19  O   UNL     1     -35.915  24.793   2.221  0.00  0.00    -0.169 OA
ATOM     20  O   UNL     1     -37.509  23.898   3.954  0.00  0.00    -0.169 OA
BRANCH  18  21
ATOM     21  C   UNL     1     -34.950  23.698   4.400  0.00  0.00    +0.156 C 
BRANCH  21  22
ATOM     22  C   UNL     1     -35.476  23.342   5.781  0.00  0.00    +0.026 C 
ATOM     23  C   UNL     1     -35.173  21.896   6.136  0.00  0.00    +0.002 C 
ENDBRANCH  21  22
ENDBRANCH  18  21
ENDBRANCH   3  18
TORSDOF 5
ENDMDL
MODEL 6
REMARK VINA RESULT:      -5.7      4.417      7.684
REMARK  Name = 53174
REMARK  5 active torsions:
REMARK  status: ('A' for Active; 'I' for Inactive)
REMARK    1  A    between atoms: N_4  and  C_11
REMARK    2  A    between atoms: C_5  and  S_16
REMARK    3  A    between atoms: C_12  and  O_22
REMARK    4  A    between atoms: S_16  and  C_19
REMARK    5  A    between atoms: C_19  and  C_20
REMARK                            x       y       z     vdW  Elec       q    Type
REMARK                         _______ _______ _______ _____ _____    ______ ____
ROOT
ATOM      1  N   UNL     1     -37.218  26.164   2.944  0.00  0.00    -0.302 N 
ATOM      2  N   UNL     1     -37.382  24.524   4.434  0.00  0.00    -0.302 N 
ATOM      3  C   UNL     1     -33.995  26.916   4.633  0.00  0.00    +0.107 C 
ATOM      4  C   UNL     1     -36.085  26.252   3.711  0.00  0.00    +0.062 C 
ATOM      5  C   UNL     1     -34.994  27.121   3.677  0.00  0.00    +0.034 C 
ATOM      6  C   UNL     1     -36.210  25.218   4.634  0.00  0.00    +0.060 C 
ATOM      7  C   UNL     1     -34.092  25.885   5.573  0.00  0.00    +0.020 C 
ATOM      8  C   UNL     1     -35.198  25.025   5.588  0.00  0.00    +0.017 C 
ATOM      9  C   UNL     1     -37.960  25.117   3.414  0.00  0.00    +0.229 C 
ATOM     10  H   UNL     1     -37.455  26.749   2.189  0.00  0.00    +0.150 HD
ATOM     11  H   UNL     1     -37.714  23.751   4.945  0.00  0.00    +0.150 HD
ENDROOT
BRANCH   9  13
ATOM     12  O   UNL     1     -40.253  26.872   2.704  0.00  0.00    -0.226 OA
ATOM     13  N   UNL     1     -39.158  24.797   2.828  0.00  0.00    -0.240 N 
ATOM     14  C   UNL     1     -40.206  25.664   2.515  0.00  0.00    +0.404 C 
ATOM     15  H   UNL     1     -39.293  23.848   2.603  0.00  0.00    +0.156 HD
BRANCH  14  16
ATOM     16  O   UNL     1     -41.225  24.952   1.939  0.00  0.00    -0.431 OA
ATOM     17  C   UNL     1     -40.849  24.052   0.890  0.00  0.00    +0.257 C 
ENDBRANCH  14  16
ENDBRANCH   9  13
BRANCH   3  18
ATOM     18  S   UNL     1     -32.598  27.966   4.652  0.00  0.00    +0.009 S 
ATOM     19  O   UNL     1     -31.549  27.326   3.873  0.00  0.00    -0.169 OA
ATOM     20  O   UNL     1     -33.022  29.318   4.324  0.00  0.00    -0.169 OA
BRANCH  18  21
ATOM     21  C   UNL     1     -32.084  27.982   6.355  0.00  0.00    +0.156 C 
BRANCH  21  22
ATOM     22  C   UNL     1     -31.613  29.364   6.778  0.00  0.00    +0.026 C 
ATOM     23  C   UNL     1     -30.143  29.574   6.455  0.00  0.00    +0.002 C 
ENDBRANCH  21  22
ENDBRANCH  18  21
ENDBRANCH   3  18
TORSDOF 5
ENDMDL
MODEL 7
REMARK VINA RESULT:      -5.7      1.678      2.413
REMARK  Name = 53174
REMARK  5 active torsions:
REMARK  status: ('A' for Active; 'I' for Inactive)
REMARK    1  A    between atoms: N_4  and  C_11
REMARK    2  A    between atoms: C_5  and  S_16
REMARK    3  A    between atoms: C_12  and  O_22
REMARK    4  A    between atoms: S_16  and  C_19
REMARK    5  A    between atoms: C_19  and  C_20
REMARK                            x       y       z     vdW  Elec       q    Type
REMARK                         _______ _______ _______ _____ _____    ______ ____
ROOT
ATOM      1  N   UNL     1     -33.977  25.971   3.601  0.00  0.00    -0.302 N 
ATOM      2  N   UNL     1     -34.304  25.584   5.764  0.00  0.00    -0.302 N 
ATOM      3  C   UNL     1     -35.351  22.550   3.131  0.00  0.00    +0.107 C 
ATOM      4  C   UNL     1     -34.504  24.707   3.670  0.00  0.00    +0.062 C 
ATOM      5  C   UNL     1     -34.817  23.765   2.689  0.00  0.00    +0.034 C 
ATOM      6  C   UNL     1     -34.699  24.488   5.030  0.00  0.00    +0.060 C 
ATOM      7  C   UNL     1     -35.558  22.301   4.490  0.00  0.00    +0.020 C 
ATOM      8  C   UNL     1     -35.236  23.262   5.457  0.00  0.00    +0.017 C 
ATOM      9  C   UNL     1     -33.877  26.453   4.876  0.00  0.00    +0.229 C 
ATOM     10  H   UNL     1     -33.718  26.447   2.779  0.00  0.00    +0.150 HD
ATOM     11  H   UNL     1     -34.334  25.692   6.742  0.00  0.00    +0.150 HD
ENDROOT
BRANCH   9  13
ATOM     12  O   UNL     1     -31.586  27.298   6.571  0.00  0.00    -0.226 OA
ATOM     13  N   UNL     1     -33.377  27.708   5.106  0.00  0.00    -0.240 N 
ATOM     14  C   UNL     1     -32.293  28.052   5.916  0.00  0.00    +0.404 C 
ATOM     15  H   UNL     1     -33.835  28.451   4.649  0.00  0.00    +0.156 HD
BRANCH  14  16
ATOM     16  O   UNL     1     -32.114  29.410   5.879  0.00  0.00    -0.431 OA
ATOM     17  C   UNL     1     -30.760  29.864   5.767  0.00  0.00    +0.257 C 
ENDBRANCH  14  16
ENDBRANCH   9  13
BRANCH   3  18
ATOM     18  S   UNL     1     -35.766  21.321   1.958  0.00  0.00    +0.009 S 
ATOM     19  O   UNL     1     -34.702  21.274   0.967  0.00  0.00    -0.169 OA
ATOM     20  O   UNL     1     -36.154  20.110   2.665  0.00  0.00    -0.169 OA
BRANCH  18  21
ATOM     21  C   UNL     1     -37.228  21.950   1.164  0.00  0.00    +0.156 C 
BRANCH  21  22
ATOM     22  C   UNL     1     -38.418  21.945   2.111  0.00  0.00    +0.026 C 
ATOM     23  C   UNL     1     -38.901  23.355   2.403  0.00  0.00    +0.002 C 
ENDBRANCH  21  22
ENDBRANCH  18  21
ENDBRANCH   3  18
TORSDOF 5
ENDMDL
MODEL 8
REMARK VINA RESULT:      -5.7      4.418      7.994
REMARK  Name = 53174
REMARK  5 active torsions:
REMARK  status: ('A' for Active; 'I' for Inactive)
REMARK    1  A    between atoms: N_4  and  C_11
REMARK    2  A    between atoms: C_5  and  S_16
REMARK    3  A    between atoms: C_12  and  O_22
REMARK    4  A    between atoms: S_16  and  C_19
REMARK    5  A    between atoms: C_19  and  C_20
REMARK                            x       y       z     vdW  Elec       q    Type
REMARK                         _______ _______ _______ _____ _____    ______ ____
ROOT
ATOM      1  N   UNL     1     -34.253  19.713   1.460  0.00  0.00    -0.302 N 
ATOM      2  N   UNL     1     -36.163  18.944   0.623  0.00  0.00    -0.302 N 
ATOM      3  C   UNL     1     -36.311  22.588   2.607  0.00  0.00    +0.107 C 
ATOM      4  C   UNL     1     -35.197  20.655   1.778  0.00  0.00    +0.062 C 
ATOM      5  C   UNL     1     -35.120  21.867   2.466  0.00  0.00    +0.034 C 
ATOM      6  C   UNL     1     -36.381  20.153   1.245  0.00  0.00    +0.060 C 
ATOM      7  C   UNL     1     -37.514  22.109   2.083  0.00  0.00    +0.020 C 
ATOM      8  C   UNL     1     -37.568  20.889   1.395  0.00  0.00    +0.017 C 
ATOM      9  C   UNL     1     -34.878  18.712   0.771  0.00  0.00    +0.229 C 
ATOM     10  H   UNL     1     -33.297  19.751   1.688  0.00  0.00    +0.150 HD
ATOM     11  H   UNL     1     -36.825  18.378   0.166  0.00  0.00    +0.150 HD
ENDROOT
BRANCH   9  13
ATOM     12  O   UNL     1     -32.172  17.765   1.561  0.00  0.00    -0.226 OA
ATOM     13  N   UNL     1     -34.166  17.628   0.325  0.00  0.00    -0.240 N 
ATOM     14  C   UNL     1     -32.892  17.226   0.731  0.00  0.00    +0.404 C 
ATOM     15  H   UNL     1     -34.604  17.070  -0.359  0.00  0.00    +0.156 HD
BRANCH  14  16
ATOM     16  O   UNL     1     -32.536  16.094   0.046  0.00  0.00    -0.431 OA
ATOM     17  C   UNL     1     -33.367  15.743  -1.066  0.00  0.00    +0.257 C 
ENDBRANCH  14  16
ENDBRANCH   9  13
BRANCH   3  18
ATOM     18  S   UNL     1     -36.291  24.116   3.456  0.00  0.00    +0.009 S 
ATOM     19  O   UNL     1     -35.930  25.152   2.500  0.00  0.00    -0.169 OA
ATOM     20  O   UNL     1     -37.516  24.239   4.231  0.00  0.00    -0.169 OA
BRANCH  18  21
ATOM     21  C   UNL     1     -34.955  23.953   4.620  0.00  0.00    +0.156 C 
BRANCH  21  22
ATOM     22  C   UNL     1     -35.444  23.406   5.951  0.00  0.00    +0.026 C 
ATOM     23  C   UNL     1     -35.088  21.938   6.114  0.00  0.00    +0.002 C 
ENDBRANCH  21  22
ENDBRANCH  18  21
ENDBRANCH   3  18
TORSDOF 5
ENDMDL
MODEL 9
REMARK VINA RESULT:      -5.6      4.322      8.650
REMARK  Name = 53174
REMARK  5 active torsions:
REMARK  status: ('A' for Active; 'I' for Inactive)
REMARK    1  A    between atoms: N_4  and  C_11
REMARK    2  A    between atoms: C_5  and  S_16
REMARK    3  A    between atoms: C_12  and  O_22
REMARK    4  A    between atoms: S_16  and  C_19
REMARK    5  A    between atoms: C_19  and  C_20
REMARK                            x       y       z     vdW  Elec       q    Type
REMARK                         _______ _______ _______ _____ _____    ______ ____
ROOT
ATOM      1  N   UNL     1     -35.537  19.552   1.726  0.00  0.00    -0.302 N 
ATOM      2  N   UNL     1     -37.444  19.837   0.621  0.00  0.00    -0.302 N 
ATOM      3  C   UNL     1     -36.509  22.659   3.519  0.00  0.00    +0.107 C 
ATOM      4  C   UNL     1     -36.093  20.693   2.245  0.00  0.00    +0.062 C 
ATOM      5  C   UNL     1     -35.671  21.573   3.242  0.00  0.00    +0.034 C 
ATOM      6  C   UNL     1     -37.282  20.850   1.539  0.00  0.00    +0.060 C 
ATOM      7  C   UNL     1     -37.709  22.843   2.828  0.00  0.00    +0.020 C 
ATOM      8  C   UNL     1     -38.113  21.946   1.830  0.00  0.00    +0.017 C 
ATOM      9  C   UNL     1     -36.380  19.079   0.760  0.00  0.00    +0.229 C 
ATOM     10  H   UNL     1     -34.683  19.146   2.000  0.00  0.00    +0.150 HD
ATOM     11  H   UNL     1     -38.193  19.711  -0.005  0.00  0.00    +0.150 HD
ENDROOT
BRANCH   9  13
ATOM     12  O   UNL     1     -38.180  16.992  -0.357  0.00  0.00    -0.226 OA
ATOM     13  N   UNL     1     -36.070  17.937   0.068  0.00  0.00    -0.240 N 
ATOM     14  C   UNL     1     -36.959  16.985  -0.437  0.00  0.00    +0.404 C 
ATOM     15  H   UNL     1     -35.113  17.769  -0.091  0.00  0.00    +0.156 HD
BRANCH  14  16
ATOM     16  O   UNL     1     -36.251  15.995  -1.066  0.00  0.00    -0.431 OA
ATOM     17  C   UNL     1     -35.127  15.472  -0.349  0.00  0.00    +0.257 C 
ENDBRANCH  14  16
ENDBRANCH   9  13
BRANCH   3  18
ATOM     18  S   UNL     1     -36.045  23.804   4.755  0.00  0.00    +0.009 S 
ATOM     19  O   UNL     1     -36.983  24.916   4.707  0.00  0.00    -0.169 OA
ATOM     20  O   UNL     1     -35.832  23.088   6.004  0.00  0.00    -0.169 OA
BRANCH  18  21
ATOM     21  C   UNL     1     -34.457  24.404   4.224  0.00  0.00    +0.156 C 
BRANCH  21  22
ATOM     22  C   UNL     1     -34.306  25.891   4.498  0.00  0.00    +0.026 C 
ATOM     23  C   UNL     1     -33.963  26.156   5.954  0.00  0.00    +0.002 C 
ENDBRANCH  21  22
ENDBRANCH  18  21
ENDBRANCH   3  18
TORSDOF 5
ENDMDL
