MODEL 1
REMARK VINA RESULT:      -6.0      0.000      0.000
REMARK  Name = 5091655
REMARK  8 active torsions:
REMARK  status: ('A' for Active; 'I' for Inactive)
REMARK    1  A    between atoms: C_1  and  C_2
REMARK    2  A    between atoms: C_1  and  C_12
REMARK    3  A    between atoms: C_2  and  C_3
REMARK    4  A    between atoms: C_3  and  C_4
REMARK    5  A    between atoms: C_4  and  N_7
REMARK    6  A    between atoms: C_12  and  C_14
REMARK    7  A    between atoms: C_14  and  O_15
REMARK    8  A    between atoms: O_15  and  N_18
REMARK                            x       y       z     vdW  Elec       q    Type
REMARK                         _______ _______ _______ _____ _____    ______ ____
ROOT
ATOM      1  C   UNL     1     -33.588  25.184   2.084  0.00  0.00    +0.012 C 
ENDROOT
BRANCH   1   2
ATOM      2  C   UNL     1     -34.552  24.040   1.746  0.00  0.00    +0.002 C 
BRANCH   2   3
ATOM      3  C   UNL     1     -35.979  24.369   2.194  0.00  0.00    +0.022 C 
BRANCH   3   4
ATOM      4  C   UNL     1     -36.695  23.162   2.794  0.00  0.00    +0.102 C 
BRANCH   4   7
ATOM      5  O   UNL     1     -36.455  24.537   5.430  0.00  0.00    -0.269 OA
ATOM      6  O   UNL     1     -35.326  20.580   3.368  0.00  0.00    -0.269 OA
ATOM      7  N   UNL     1     -36.082  22.705   4.010  0.00  0.00    -0.223 N 
ATOM      8  C   UNL     1     -36.023  23.424   5.182  0.00  0.00    +0.255 C 
ATOM      9  C   UNL     1     -35.469  21.484   4.172  0.00  0.00    +0.255 C 
ATOM     10  C   UNL     1     -35.312  22.583   6.157  0.00  0.00    +0.063 C 
ATOM     11  C   UNL     1     -34.984  21.437   5.560  0.00  0.00    +0.063 C 
ENDBRANCH   4   7
ENDBRANCH   3   4
ENDBRANCH   2   3
ENDBRANCH   1   2
BRANCH   1  12
ATOM     12  C   UNL     1     -33.629  25.564   3.564  0.00  0.00    +0.112 C 
BRANCH  12  14
ATOM     13  O   UNL     1     -34.447  27.835   3.869  0.00  0.00    -0.248 OA
ATOM     14  C   UNL     1     -33.507  27.054   3.800  0.00  0.00    +0.340 C 
BRANCH  14  15
ATOM     15  O   UNL     1     -32.186  27.369   3.953  0.00  0.00    -0.336 OA
BRANCH  15  18
ATOM     16  O   UNL     1     -31.934  30.184   3.436  0.00  0.00    -0.267 OA
ATOM     17  O   UNL     1     -32.176  27.049   6.807  0.00  0.00    -0.267 OA
ATOM     18  N   UNL     1     -32.008  28.390   4.914  0.00  0.00    -0.054 N 
ATOM     19  C   UNL     1     -31.682  30.470   5.826  0.00  0.00    +0.066 C 
ATOM     20  C   UNL     1     -31.762  29.431   6.946  0.00  0.00    +0.066 C 
ATOM     21  C   UNL     1     -31.893  29.695   4.555  0.00  0.00    +0.287 C 
ATOM     22  C   UNL     1     -32.014  28.122   6.246  0.00  0.00    +0.287 C 
ENDBRANCH  15  18
ENDBRANCH  14  15
ENDBRANCH  12  14
ENDBRANCH   1  12
TORSDOF 8
ENDMDL
MODEL 2
REMARK VINA RESULT:      -5.9      0.535      1.684
REMARK  Name = 5091655
REMARK  8 active torsions:
REMARK  status: ('A' for Active; 'I' for Inactive)
REMARK    1  A    between atoms: C_1  and  C_2
REMARK    2  A    between atoms: C_1  and  C_12
REMARK    3  A    between atoms: C_2  and  C_3
REMARK    4  A    between atoms: C_3  and  C_4
REMARK    5  A    between atoms: C_4  and  N_7
REMARK    6  A    between atoms: C_12  and  C_14
REMARK    7  A    between atoms: C_14  and  O_15
REMARK    8  A    between atoms: O_15  and  N_18
REMARK                            x       y       z     vdW  Elec       q    Type
REMARK                         _______ _______ _______ _____ _____    ______ ____
ROOT
ATOM      1  C   UNL     1     -33.720  24.965   2.271  0.00  0.00    +0.012 C 
ENDROOT
BRANCH   1   2
ATOM      2  C   UNL     1     -34.693  24.014   1.564  0.00  0.00    +0.002 C 
BRANCH   2   3
ATOM      3  C   UNL     1     -36.134  24.258   2.020  0.00  0.00    +0.022 C 
BRANCH   3   4
ATOM      4  C   UNL     1     -36.763  23.023   2.657  0.00  0.00    +0.102 C 
BRANCH   4   7
ATOM      5  O   UNL     1     -35.272  20.538   3.361  0.00  0.00    -0.269 OA
ATOM      6  O   UNL     1     -36.578  24.546   5.210  0.00  0.00    -0.269 OA
ATOM      7  N   UNL     1     -36.130  22.657   3.893  0.00  0.00    -0.223 N 
ATOM      8  C   UNL     1     -35.463  21.475   4.118  0.00  0.00    +0.255 C 
ATOM      9  C   UNL     1     -36.102  23.439   5.025  0.00  0.00    +0.255 C 
ATOM     10  C   UNL     1     -34.980  21.521   5.507  0.00  0.00    +0.063 C 
ATOM     11  C   UNL     1     -35.358  22.682   6.043  0.00  0.00    +0.063 C 
ENDBRANCH   4   7
ENDBRANCH   3   4
ENDBRANCH   2   3
ENDBRANCH   1   2
BRANCH   1  12
ATOM     12  C   UNL     1     -34.331  26.343   2.524  0.00  0.00    +0.112 C 
BRANCH  12  14
ATOM     13  O   UNL     1     -34.898  27.151   4.747  0.00  0.00    -0.248 OA
ATOM     14  C   UNL     1     -34.048  26.875   3.912  0.00  0.00    +0.340 C 
BRANCH  14  15
ATOM     15  O   UNL     1     -32.694  26.963   4.082  0.00  0.00    -0.336 OA
BRANCH  15  18
ATOM     16  O   UNL     1     -32.504  29.677   3.159  0.00  0.00    -0.267 OA
ATOM     17  O   UNL     1     -32.203  27.016   6.911  0.00  0.00    -0.267 OA
ATOM     18  N   UNL     1     -32.344  28.093   4.854  0.00  0.00    -0.054 N 
ATOM     19  C   UNL     1     -31.846  30.262   5.413  0.00  0.00    +0.066 C 
ATOM     20  C   UNL     1     -31.745  29.380   6.659  0.00  0.00    +0.066 C 
ATOM     21  C   UNL     1     -32.278  29.335   4.310  0.00  0.00    +0.287 C 
ATOM     22  C   UNL     1     -32.126  28.001   6.192  0.00  0.00    +0.287 C 
ENDBRANCH  15  18
ENDBRANCH  14  15
ENDBRANCH  12  14
ENDBRANCH   1  12
TORSDOF 8
ENDMDL
MODEL 3
REMARK VINA RESULT:      -5.8      1.546      3.429
REMARK  Name = 5091655
REMARK  8 active torsions:
REMARK  status: ('A' for Active; 'I' for Inactive)
REMARK    1  A    between atoms: C_1  and  C_2
REMARK    2  A    between atoms: C_1  and  C_12
REMARK    3  A    between atoms: C_2  and  C_3
REMARK    4  A    between atoms: C_3  and  C_4
REMARK    5  A    between atoms: C_4  and  N_7
REMARK    6  A    between atoms: C_12  and  C_14
REMARK    7  A    between atoms: C_14  and  O_15
REMARK    8  A    between atoms: O_15  and  N_18
REMARK                            x       y       z     vdW  Elec       q    Type
REMARK                         _______ _______ _______ _____ _____    ______ ____
ROOT
ATOM      1  C   UNL     1     -34.414  24.078   5.230  0.00  0.00    +0.012 C 
ENDROOT
BRANCH   1   2
ATOM      2  C   UNL     1     -35.278  22.958   5.822  0.00  0.00    +0.002 C 
BRANCH   2   3
ATOM      3  C   UNL     1     -35.450  21.807   4.826  0.00  0.00    +0.022 C 
BRANCH   3   4
ATOM      4  C   UNL     1     -35.478  22.287   3.378  0.00  0.00    +0.102 C 
BRANCH   4   7
ATOM      5  O   UNL     1     -36.637  20.169   1.626  0.00  0.00    -0.269 OA
ATOM      6  O   UNL     1     -37.776  24.170   3.596  0.00  0.00    -0.269 OA
ATOM      7  N   UNL     1     -36.788  22.200   2.794  0.00  0.00    -0.223 N 
ATOM      8  C   UNL     1     -37.227  21.172   1.992  0.00  0.00    +0.255 C 
ATOM      9  C   UNL     1     -37.786  23.133   2.957  0.00  0.00    +0.255 C 
ATOM     10  C   UNL     1     -38.614  21.490   1.619  0.00  0.00    +0.063 C 
ATOM     11  C   UNL     1     -38.944  22.649   2.190  0.00  0.00    +0.063 C 
ENDBRANCH   4   7
ENDBRANCH   3   4
ENDBRANCH   2   3
ENDBRANCH   1   2
BRANCH   1  12
ATOM     12  C   UNL     1     -34.983  25.467   5.517  0.00  0.00    +0.112 C 
BRANCH  12  14
ATOM     13  O   UNL     1     -35.149  27.317   3.945  0.00  0.00    -0.248 OA
ATOM     14  C   UNL     1     -34.456  26.531   4.579  0.00  0.00    +0.340 C 
BRANCH  14  15
ATOM     15  O   UNL     1     -33.090  26.487   4.584  0.00  0.00    -0.336 OA
BRANCH  15  18
ATOM     16  O   UNL     1     -32.564  27.046   7.353  0.00  0.00    -0.267 OA
ATOM     17  O   UNL     1     -32.120  28.739   3.088  0.00  0.00    -0.267 OA
ATOM     18  N   UNL     1     -32.538  27.675   5.114  0.00  0.00    -0.054 N 
ATOM     19  C   UNL     1     -31.777  29.218   6.633  0.00  0.00    +0.066 C 
ATOM     20  C   UNL     1     -31.629  29.781   5.218  0.00  0.00    +0.066 C 
ATOM     21  C   UNL     1     -32.338  27.834   6.448  0.00  0.00    +0.287 C 
ATOM     22  C   UNL     1     -32.115  28.684   4.309  0.00  0.00    +0.287 C 
ENDBRANCH  15  18
ENDBRANCH  14  15
ENDBRANCH  12  14
ENDBRANCH   1  12
TORSDOF 8
ENDMDL
MODEL 4
REMARK VINA RESULT:      -5.8      0.426      1.670
REMARK  Name = 5091655
REMARK  8 active torsions:
REMARK  status: ('A' for Active; 'I' for Inactive)
REMARK    1  A    between atoms: C_1  and  C_2
REMARK    2  A    between atoms: C_1  and  C_12
REMARK    3  A    between atoms: C_2  and  C_3
REMARK    4  A    between atoms: C_3  and  C_4
REMARK    5  A    between atoms: C_4  and  N_7
REMARK    6  A    between atoms: C_12  and  C_14
REMARK    7  A    between atoms: C_14  and  O_15
REMARK    8  A    between atoms: O_15  and  N_18
REMARK                            x       y       z     vdW  Elec       q    Type
REMARK                         _______ _______ _______ _____ _____    ______ ____
ROOT
ATOM      1  C   UNL     1     -33.598  25.409   2.513  0.00  0.00    +0.012 C 
ENDROOT
BRANCH   1   2
ATOM      2  C   UNL     1     -34.500  24.280   2.001  0.00  0.00    +0.002 C 
BRANCH   2   3
ATOM      3  C   UNL     1     -35.957  24.506   2.413  0.00  0.00    +0.022 C 
BRANCH   3   4
ATOM      4  C   UNL     1     -36.629  23.229   2.908  0.00  0.00    +0.102 C 
BRANCH   4   7
ATOM      5  O   UNL     1     -36.361  24.512   5.588  0.00  0.00    -0.269 OA
ATOM      6  O   UNL     1     -35.318  20.599   3.399  0.00  0.00    -0.269 OA
ATOM      7  N   UNL     1     -36.027  22.719   4.110  0.00  0.00    -0.223 N 
ATOM      8  C   UNL     1     -35.954  23.398   5.304  0.00  0.00    +0.255 C 
ATOM      9  C   UNL     1     -35.442  21.480   4.232  0.00  0.00    +0.255 C 
ATOM     10  C   UNL     1     -35.262  22.511   6.252  0.00  0.00    +0.063 C 
ATOM     11  C   UNL     1     -34.960  21.377   5.618  0.00  0.00    +0.063 C 
ENDBRANCH   4   7
ENDBRANCH   3   4
ENDBRANCH   2   3
ENDBRANCH   1   2
BRANCH   1  12
ATOM     12  C   UNL     1     -34.303  26.300   3.536  0.00  0.00    +0.112 C 
BRANCH  12  14
ATOM     13  O   UNL     1     -34.516  28.718   3.366  0.00  0.00    -0.248 OA
ATOM     14  C   UNL     1     -33.809  27.731   3.520  0.00  0.00    +0.340 C 
BRANCH  14  15
ATOM     15  O   UNL     1     -32.460  27.734   3.736  0.00  0.00    -0.336 OA
BRANCH  15  18
ATOM     16  O   UNL     1     -32.301  27.093   6.532  0.00  0.00    -0.267 OA
ATOM     17  O   UNL     1     -31.599  30.460   3.462  0.00  0.00    -0.267 OA
ATOM     18  N   UNL     1     -32.107  28.614   4.783  0.00  0.00    -0.054 N 
ATOM     19  C   UNL     1     -31.695  29.408   6.897  0.00  0.00    +0.066 C 
ATOM     20  C   UNL     1     -31.462  30.526   5.879  0.00  0.00    +0.066 C 
ATOM     21  C   UNL     1     -32.071  28.203   6.077  0.00  0.00    +0.287 C 
ATOM     22  C   UNL     1     -31.719  29.893   4.538  0.00  0.00    +0.287 C 
ENDBRANCH  15  18
ENDBRANCH  14  15
ENDBRANCH  12  14
ENDBRANCH   1  12
TORSDOF 8
ENDMDL
MODEL 5
REMARK VINA RESULT:      -5.6      0.870      2.372
REMARK  Name = 5091655
REMARK  8 active torsions:
REMARK  status: ('A' for Active; 'I' for Inactive)
REMARK    1  A    between atoms: C_1  and  C_2
REMARK    2  A    between atoms: C_1  and  C_12
REMARK    3  A    between atoms: C_2  and  C_3
REMARK    4  A    between atoms: C_3  and  C_4
REMARK    5  A    between atoms: C_4  and  N_7
REMARK    6  A    between atoms: C_12  and  C_14
REMARK    7  A    between atoms: C_14  and  O_15
REMARK    8  A    between atoms: O_15  and  N_18
REMARK                            x       y       z     vdW  Elec       q    Type
REMARK                         _______ _______ _______ _____ _____    ______ ____
ROOT
ATOM      1  C   UNL     1     -35.093  26.055   2.668  0.00  0.00    +0.012 C 
ENDROOT
BRANCH   1   2
ATOM      2  C   UNL     1     -34.381  24.712   2.464  0.00  0.00    +0.002 C 
BRANCH   2   3
ATOM      3  C   UNL     1     -35.332  23.666   1.875  0.00  0.00    +0.022 C 
BRANCH   3   4
ATOM      4  C   UNL     1     -36.448  23.281   2.841  0.00  0.00    +0.102 C 
BRANCH   4   7
ATOM      5  O   UNL     1     -35.276  20.588   3.361  0.00  0.00    -0.269 OA
ATOM      6  O   UNL     1     -36.294  24.506   5.552  0.00  0.00    -0.269 OA
ATOM      7  N   UNL     1     -35.948  22.723   4.067  0.00  0.00    -0.223 N 
ATOM      8  C   UNL     1     -35.424  21.458   4.202  0.00  0.00    +0.255 C 
ATOM      9  C   UNL     1     -35.923  23.378   5.277  0.00  0.00    +0.255 C 
ATOM     10  C   UNL     1     -35.043  21.309   5.615  0.00  0.00    +0.063 C 
ATOM     11  C   UNL     1     -35.337  22.443   6.250  0.00  0.00    +0.063 C 
ENDBRANCH   4   7
ENDBRANCH   3   4
ENDBRANCH   2   3
ENDBRANCH   1   2
BRANCH   1  12
ATOM     12  C   UNL     1     -34.491  26.866   3.815  0.00  0.00    +0.112 C 
BRANCH  12  14
ATOM     13  O   UNL     1     -33.434  28.698   2.612  0.00  0.00    -0.248 OA
ATOM     14  C   UNL     1     -33.342  27.750   3.380  0.00  0.00    +0.340 C 
BRANCH  14  15
ATOM     15  O   UNL     1     -32.202  27.332   4.008  0.00  0.00    -0.336 OA
BRANCH  15  18
ATOM     16  O   UNL     1     -32.824  27.455   6.810  0.00  0.00    -0.267 OA
ATOM     17  O   UNL     1     -30.326  29.442   3.484  0.00  0.00    -0.267 OA
ATOM     18  N   UNL     1     -31.740  28.296   4.932  0.00  0.00    -0.054 N 
ATOM     19  C   UNL     1     -31.454  29.449   6.896  0.00  0.00    +0.066 C 
ATOM     20  C   UNL     1     -30.626  30.109   5.793  0.00  0.00    +0.066 C 
ATOM     21  C   UNL     1     -32.105  28.261   6.240  0.00  0.00    +0.287 C 
ATOM     22  C   UNL     1     -30.852  29.259   4.572  0.00  0.00    +0.287 C 
ENDBRANCH  15  18
ENDBRANCH  14  15
ENDBRANCH  12  14
ENDBRANCH   1  12
TORSDOF 8
ENDMDL
MODEL 6
REMARK VINA RESULT:      -5.6      2.069      8.029
REMARK  Name = 5091655
REMARK  8 active torsions:
REMARK  status: ('A' for Active; 'I' for Inactive)
REMARK    1  A    between atoms: C_1  and  C_2
REMARK    2  A    between atoms: C_1  and  C_12
REMARK    3  A    between atoms: C_2  and  C_3
REMARK    4  A    between atoms: C_3  and  C_4
REMARK    5  A    between atoms: C_4  and  N_7
REMARK    6  A    between atoms: C_12  and  C_14
REMARK    7  A    between atoms: C_14  and  O_15
REMARK    8  A    between atoms: O_15  and  N_18
REMARK                            x       y       z     vdW  Elec       q    Type
REMARK                         _______ _______ _______ _____ _____    ______ ____
ROOT
ATOM      1  C   UNL     1     -34.449  24.950   5.058  0.00  0.00    +0.012 C 
ENDROOT
BRANCH   1   2
ATOM      2  C   UNL     1     -34.214  26.143   5.993  0.00  0.00    +0.002 C 
BRANCH   2   3
ATOM      3  C   UNL     1     -33.034  26.994   5.515  0.00  0.00    +0.022 C 
BRANCH   3   4
ATOM      4  C   UNL     1     -32.330  27.712   6.663  0.00  0.00    +0.102 C 
BRANCH   4   7
ATOM      5  O   UNL     1     -32.681  30.474   5.591  0.00  0.00    -0.269 OA
ATOM      6  O   UNL     1     -29.368  27.419   6.531  0.00  0.00    -0.269 OA
ATOM      7  N   UNL     1     -31.340  28.647   6.204  0.00  0.00    -0.223 N 
ATOM      8  C   UNL     1     -31.609  29.908   5.723  0.00  0.00    +0.255 C 
ATOM      9  C   UNL     1     -29.984  28.412   6.183  0.00  0.00    +0.255 C 
ATOM     10  C   UNL     1     -30.314  30.509   5.368  0.00  0.00    +0.063 C 
ATOM     11  C   UNL     1     -29.354  29.625   5.641  0.00  0.00    +0.063 C 
ENDBRANCH   4   7
ENDBRANCH   3   4
ENDBRANCH   2   3
ENDBRANCH   1   2
BRANCH   1  12
ATOM     12  C   UNL     1     -35.239  23.828   5.732  0.00  0.00    +0.112 C 
BRANCH  12  14
ATOM     13  O   UNL     1     -35.251  21.409   5.469  0.00  0.00    -0.248 OA
ATOM     14  C   UNL     1     -35.192  22.524   4.966  0.00  0.00    +0.340 C 
BRANCH  14  15
ATOM     15  O   UNL     1     -35.106  22.800   3.630  0.00  0.00    -0.336 OA
BRANCH  15  18
ATOM     16  O   UNL     1     -34.936  20.309   2.209  0.00  0.00    -0.267 OA
ATOM     17  O   UNL     1     -37.834  23.678   3.437  0.00  0.00    -0.267 OA
ATOM     18  N   UNL     1     -36.143  22.171   2.905  0.00  0.00    -0.054 N 
ATOM     19  C   UNL     1     -37.248  20.655   1.583  0.00  0.00    +0.066 C 
ATOM     20  C   UNL     1     -38.210  21.773   1.989  0.00  0.00    +0.066 C 
ATOM     21  C   UNL     1     -35.948  20.991   2.262  0.00  0.00    +0.287 C 
ATOM     22  C   UNL     1     -37.402  22.680   2.877  0.00  0.00    +0.287 C 
ENDBRANCH  15  18
ENDBRANCH  14  15
ENDBRANCH  12  14
ENDBRANCH   1  12
TORSDOF 8
ENDMDL
MODEL 7
REMARK VINA RESULT:      -5.5      1.582      2.750
REMARK  Name = 5091655
REMARK  8 active torsions:
REMARK  status: ('A' for Active; 'I' for Inactive)
REMARK    1  A    between atoms: C_1  and  C_2
REMARK    2  A    between atoms: C_1  and  C_12
REMARK    3  A    between atoms: C_2  and  C_3
REMARK    4  A    between atoms: C_3  and  C_4
REMARK    5  A    between atoms: C_4  and  N_7
REMARK    6  A    between atoms: C_12  and  C_14
REMARK    7  A    between atoms: C_14  and  O_15
REMARK    8  A    between atoms: O_15  and  N_18
REMARK                            x       y       z     vdW  Elec       q    Type
REMARK                         _______ _______ _______ _____ _____    ______ ____
ROOT
ATOM      1  C   UNL     1     -34.490  24.292   5.331  0.00  0.00    +0.012 C 
ENDROOT
BRANCH   1   2
ATOM      2  C   UNL     1     -35.541  23.181   5.442  0.00  0.00    +0.002 C 
BRANCH   2   3
ATOM      3  C   UNL     1     -35.475  22.236   4.239  0.00  0.00    +0.022 C 
BRANCH   3   4
ATOM      4  C   UNL     1     -36.681  22.380   3.316  0.00  0.00    +0.102 C 
BRANCH   4   7
ATOM      5  O   UNL     1     -38.671  24.545   3.817  0.00  0.00    -0.269 OA
ATOM      6  O   UNL     1     -34.933  23.668   1.277  0.00  0.00    -0.269 OA
ATOM      7  N   UNL     1     -36.774  23.688   2.730  0.00  0.00    -0.223 N 
ATOM      8  C   UNL     1     -37.740  24.620   3.032  0.00  0.00    +0.255 C 
ATOM      9  C   UNL     1     -35.909  24.192   1.786  0.00  0.00    +0.255 C 
ATOM     10  C   UNL     1     -37.457  25.804   2.205  0.00  0.00    +0.063 C 
ATOM     11  C   UNL     1     -36.374  25.550   1.469  0.00  0.00    +0.063 C 
ENDBRANCH   4   7
ENDBRANCH   3   4
ENDBRANCH   2   3
ENDBRANCH   1   2
BRANCH   1  12
ATOM     12  C   UNL     1     -35.103  25.688   5.447  0.00  0.00    +0.112 C 
BRANCH  12  14
ATOM     13  O   UNL     1     -34.991  27.576   3.917  0.00  0.00    -0.248 OA
ATOM     14  C   UNL     1     -34.418  26.712   4.568  0.00  0.00    +0.340 C 
BRANCH  14  15
ATOM     15  O   UNL     1     -33.066  26.531   4.650  0.00  0.00    -0.336 OA
BRANCH  15  18
ATOM     16  O   UNL     1     -31.988  28.718   3.131  0.00  0.00    -0.267 OA
ATOM     17  O   UNL     1     -32.735  27.206   7.422  0.00  0.00    -0.267 OA
ATOM     18  N   UNL     1     -32.422  27.678   5.166  0.00  0.00    -0.054 N 
ATOM     19  C   UNL     1     -31.302  29.679   5.244  0.00  0.00    +0.066 C 
ATOM     20  C   UNL     1     -31.549  29.178   6.668  0.00  0.00    +0.066 C 
ATOM     21  C   UNL     1     -31.942  28.652   4.350  0.00  0.00    +0.287 C 
ATOM     22  C   UNL     1     -32.316  27.894   6.502  0.00  0.00    +0.287 C 
ENDBRANCH  15  18
ENDBRANCH  14  15
ENDBRANCH  12  14
ENDBRANCH   1  12
TORSDOF 8
ENDMDL
MODEL 8
REMARK VINA RESULT:      -5.5      1.601      2.934
REMARK  Name = 5091655
REMARK  8 active torsions:
REMARK  status: ('A' for Active; 'I' for Inactive)
REMARK    1  A    between atoms: C_1  and  C_2
REMARK    2  A    between atoms: C_1  and  C_12
REMARK    3  A    between atoms: C_2  and  C_3
REMARK    4  A    between atoms: C_3  and  C_4
REMARK    5  A    between atoms: C_4  and  N_7
REMARK    6  A    between atoms: C_12  and  C_14
REMARK    7  A    between atoms: C_14  and  O_15
REMARK    8  A    between atoms: O_15  and  N_18
REMARK                            x       y       z     vdW  Elec       q    Type
REMARK                         _______ _______ _______ _____ _____    ______ ____
ROOT
ATOM      1  C   UNL     1     -35.457  24.774   5.263  0.00  0.00    +0.012 C 
ENDROOT
BRANCH   1   2
ATOM      2  C   UNL     1     -35.483  23.386   5.912  0.00  0.00    +0.002 C 
BRANCH   2   3
ATOM      3  C   UNL     1     -35.355  22.280   4.860  0.00  0.00    +0.022 C 
BRANCH   3   4
ATOM      4  C   UNL     1     -36.190  22.560   3.614  0.00  0.00    +0.102 C 
BRANCH   4   7
ATOM      5  O   UNL     1     -36.188  19.892   2.281  0.00  0.00    -0.269 OA
ATOM      6  O   UNL     1     -34.470  24.130   1.756  0.00  0.00    -0.269 OA
ATOM      7  N   UNL     1     -35.534  22.143   2.405  0.00  0.00    -0.223 N 
ATOM      8  C   UNL     1     -35.596  20.877   1.872  0.00  0.00    +0.255 C 
ATOM      9  C   UNL     1     -34.754  22.953   1.613  0.00  0.00    +0.255 C 
ATOM     10  C   UNL     1     -34.784  20.896   0.645  0.00  0.00    +0.063 C 
ATOM     11  C   UNL     1     -34.287  22.124   0.492  0.00  0.00    +0.063 C 
ENDBRANCH   4   7
ENDBRANCH   3   4
ENDBRANCH   2   3
ENDBRANCH   1   2
BRANCH   1  12
ATOM     12  C   UNL     1     -34.034  25.292   5.051  0.00  0.00    +0.112 C 
BRANCH  12  14
ATOM     13  O   UNL     1     -34.966  27.307   4.053  0.00  0.00    -0.248 OA
ATOM     14  C   UNL     1     -33.988  26.639   4.361  0.00  0.00    +0.340 C 
BRANCH  14  15
ATOM     15  O   UNL     1     -32.681  26.992   4.171  0.00  0.00    -0.336 OA
BRANCH  15  18
ATOM     16  O   UNL     1     -32.766  29.700   3.216  0.00  0.00    -0.267 OA
ATOM     17  O   UNL     1     -31.957  27.117   6.947  0.00  0.00    -0.267 OA
ATOM     18  N   UNL     1     -32.349  28.154   4.903  0.00  0.00    -0.054 N 
ATOM     19  C   UNL     1     -31.964  30.361   5.402  0.00  0.00    +0.066 C 
ATOM     20  C   UNL     1     -31.695  29.504   6.641  0.00  0.00    +0.066 C 
ATOM     21  C   UNL     1     -32.420  29.391   4.346  0.00  0.00    +0.287 C 
ATOM     22  C   UNL     1     -32.013  28.096   6.218  0.00  0.00    +0.287 C 
ENDBRANCH  15  18
ENDBRANCH  14  15
ENDBRANCH  12  14
ENDBRANCH   1  12
TORSDOF 8
ENDMDL
MODEL 9
REMARK VINA RESULT:      -5.5      5.627      7.961
REMARK  Name = 5091655
REMARK  8 active torsions:
REMARK  status: ('A' for Active; 'I' for Inactive)
REMARK    1  A    between atoms: C_1  and  C_2
REMARK    2  A    between atoms: C_1  and  C_12
REMARK    3  A    between atoms: C_2  and  C_3
REMARK    4  A    between atoms: C_3  and  C_4
REMARK    5  A    between atoms: C_4  and  N_7
REMARK    6  A    between atoms: C_12  and  C_14
REMARK    7  A    between atoms: C_14  and  O_15
REMARK    8  A    between atoms: O_15  and  N_18
REMARK                            x       y       z     vdW  Elec       q    Type
REMARK                         _______ _______ _______ _____ _____    ______ ____
ROOT
ATOM      1  C   UNL     1     -39.411  25.064   1.915  0.00  0.00    +0.012 C 
ENDROOT
BRANCH   1   2
ATOM      2  C   UNL     1     -38.572  24.538   3.086  0.00  0.00    +0.002 C 
BRANCH   2   3
ATOM      3  C   UNL     1     -37.797  23.279   2.689  0.00  0.00    +0.022 C 
BRANCH   3   4
ATOM      4  C   UNL     1     -36.292  23.433   2.888  0.00  0.00    +0.102 C 
BRANCH   4   7
ATOM      5  O   UNL     1     -35.982  24.703   5.568  0.00  0.00    -0.269 OA
ATOM      6  O   UNL     1     -35.412  20.646   3.469  0.00  0.00    -0.269 OA
ATOM      7  N   UNL     1     -35.838  22.858   4.124  0.00  0.00    -0.223 N 
ATOM      8  C   UNL     1     -35.729  23.537   5.315  0.00  0.00    +0.255 C 
ATOM      9  C   UNL     1     -35.449  21.549   4.288  0.00  0.00    +0.255 C 
ATOM     10  C   UNL     1     -35.228  22.572   6.306  0.00  0.00    +0.063 C 
ATOM     11  C   UNL     1     -35.063  21.397   5.699  0.00  0.00    +0.063 C 
ENDBRANCH   4   7
ENDBRANCH   3   4
ENDBRANCH   2   3
ENDBRANCH   1   2
BRANCH   1  12
ATOM     12  C   UNL     1     -40.904  25.112   2.242  0.00  0.00    +0.112 C 
BRANCH  12  14
ATOM     13  O   UNL     1     -41.286  27.486   1.869  0.00  0.00    -0.248 OA
ATOM     14  C   UNL     1     -41.393  26.502   2.589  0.00  0.00    +0.340 C 
BRANCH  14  15
ATOM     15  O   UNL     1     -41.994  26.464   3.816  0.00  0.00    -0.336 OA
BRANCH  15  18
ATOM     16  O   UNL     1     -44.669  25.764   3.037  0.00  0.00    -0.267 OA
ATOM     17  O   UNL     1     -42.110  29.138   4.857  0.00  0.00    -0.267 OA
ATOM     18  N   UNL     1     -43.131  27.303   3.858  0.00  0.00    -0.054 N 
ATOM     19  C   UNL     1     -45.294  28.030   3.611  0.00  0.00    +0.066 C 
ATOM     20  C   UNL     1     -44.445  29.151   4.215  0.00  0.00    +0.066 C 
ATOM     21  C   UNL     1     -44.353  26.866   3.457  0.00  0.00    +0.287 C 
ATOM     22  C   UNL     1     -43.070  28.559   4.370  0.00  0.00    +0.287 C 
ENDBRANCH  15  18
ENDBRANCH  14  15
ENDBRANCH  12  14
ENDBRANCH   1  12
TORSDOF 8
ENDMDL
