MODEL 1
REMARK VINA RESULT:      -5.4      0.000      0.000
REMARK  Name = 195143
REMARK  12 active torsions:
REMARK  status: ('A' for Active; 'I' for Inactive)
REMARK    1  A    between atoms: C_2  and  O_13
REMARK    2  A    between atoms: C_3  and  N_10
REMARK    3  A    between atoms: C_4  and  O_15
REMARK    4  A    between atoms: C_6  and  O_17
REMARK    5  A    between atoms: O_17  and  C_18
REMARK    6  A    between atoms: C_18  and  C_19
REMARK    7  A    between atoms: C_18  and  C_26
REMARK    8  A    between atoms: C_19  and  O_20
REMARK    9  A    between atoms: C_19  and  C_22
REMARK   10  A    between atoms: C_22  and  O_24
REMARK   11  A    between atoms: C_26  and  O_27
REMARK   12  A    between atoms: C_26  and  C_30
REMARK                            x       y       z     vdW  Elec       q    Type
REMARK                         _______ _______ _______ _____ _____    ______ ____
ROOT
ATOM      1  O   UNL     1     -39.138  26.459   2.829  0.00  0.00    -0.329 OA
ATOM      2  C   UNL     1     -38.895  24.051   1.221  0.00  0.00    +0.137 C 
ATOM      3  C   UNL     1     -40.217  24.856   1.317  0.00  0.00    +0.126 C 
ATOM      4  C   UNL     1     -37.696  24.960   1.570  0.00  0.00    +0.197 C 
ATOM      5  C   UNL     1     -40.296  25.635   2.648  0.00  0.00    +0.138 C 
ATOM      6  C   UNL     1     -37.899  25.751   2.864  0.00  0.00    +0.266 C 
ATOM      7  C   UNL     1     -38.902  22.785   2.098  0.00  0.00    +0.034 C 
ATOM      8  C   UNL     1     -41.492  26.585   2.697  0.00  0.00    +0.034 C 
ENDROOT
BRANCH   3  10
ATOM      9  O   UNL     1     -41.616  24.236  -1.188  0.00  0.00    -0.265 OA
ATOM     10  N   UNL     1     -41.372  24.004   1.126  0.00  0.00    -0.294 N 
ATOM     11  C   UNL     1     -41.953  23.781  -0.103  0.00  0.00    +0.300 C 
ATOM     12  H   UNL     1     -41.763  23.561   1.914  0.00  0.00    +0.150 HD
ENDBRANCH   3  10
BRANCH   2  13
ATOM     13  O   UNL     1     -38.707  23.611  -0.132  0.00  0.00    -0.382 OA
ATOM     14  H   UNL     1     -37.875  23.115  -0.198  0.00  0.00    +0.210 HD
ENDBRANCH   2  13
BRANCH   4  15
ATOM     15  O   UNL     1     -37.490  25.908   0.514  0.00  0.00    -0.346 OA
ATOM     16  C   UNL     1     -36.187  26.461   0.573  0.00  0.00    +0.174 C 
ENDBRANCH   4  15
BRANCH   6  17
ATOM     17  O   UNL     1     -37.782  24.905   4.000  0.00  0.00    -0.326 OA
BRANCH  17  18
ATOM     18  C   UNL     1     -36.432  24.520   4.227  0.00  0.00    +0.181 C 
BRANCH  18  19
ATOM     19  C   UNL     1     -35.816  25.436   5.306  0.00  0.00    +0.167 C 
BRANCH  19  20
ATOM     20  O   UNL     1     -36.663  26.568   5.522  0.00  0.00    -0.379 OA
ATOM     21  H   UNL     1     -37.525  26.410   5.105  0.00  0.00    +0.211 HD
ENDBRANCH  19  20
BRANCH  19  22
ATOM     22  C   UNL     1     -34.394  25.959   5.022  0.00  0.00    +0.140 C 
ATOM     23  C   UNL     1     -33.654  26.383   6.283  0.00  0.00    +0.034 C 
BRANCH  22  24
ATOM     24  O   UNL     1     -33.601  24.976   4.361  0.00  0.00    -0.382 OA
ATOM     25  H   UNL     1     -32.959  25.415   3.782  0.00  0.00    +0.210 HD
ENDBRANCH  22  24
ENDBRANCH  19  22
ENDBRANCH  18  19
BRANCH  18  26
ATOM     26  C   UNL     1     -36.384  23.032   4.613  0.00  0.00    +0.209 C 
BRANCH  26  27
ATOM     27  O   UNL     1     -35.932  22.863   5.942  0.00  0.00    -0.343 OA
ATOM     28  C   UNL     1     -34.985  21.806   6.048  0.00  0.00    +0.175 C 
ENDBRANCH  26  27
BRANCH  26  30
ATOM     29  O   UNL     1     -35.045  22.713   2.612  0.00  0.00    -0.286 OA
ATOM     30  C   UNL     1     -35.474  22.267   3.671  0.00  0.00    +0.239 C 
ENDBRANCH  26  30
ENDBRANCH  18  26
ENDBRANCH  17  18
ENDBRANCH   6  17
TORSDOF 12
ENDMDL
MODEL 2
REMARK VINA RESULT:      -5.3      2.764      5.995
REMARK  Name = 195143
REMARK  12 active torsions:
REMARK  status: ('A' for Active; 'I' for Inactive)
REMARK    1  A    between atoms: C_2  and  O_13
REMARK    2  A    between atoms: C_3  and  N_10
REMARK    3  A    between atoms: C_4  and  O_15
REMARK    4  A    between atoms: C_6  and  O_17
REMARK    5  A    between atoms: O_17  and  C_18
REMARK    6  A    between atoms: C_18  and  C_19
REMARK    7  A    between atoms: C_18  and  C_26
REMARK    8  A    between atoms: C_19  and  O_20
REMARK    9  A    between atoms: C_19  and  C_22
REMARK   10  A    between atoms: C_22  and  O_24
REMARK   11  A    between atoms: C_26  and  O_27
REMARK   12  A    between atoms: C_26  and  C_30
REMARK                            x       y       z     vdW  Elec       q    Type
REMARK                         _______ _______ _______ _____ _____    ______ ____
ROOT
ATOM      1  O   UNL     1     -36.172  24.443   1.644  0.00  0.00    -0.329 OA
ATOM      2  C   UNL     1     -36.273  25.151   4.461  0.00  0.00    +0.137 C 
ATOM      3  C   UNL     1     -35.101  25.576   3.539  0.00  0.00    +0.126 C 
ATOM      4  C   UNL     1     -37.533  24.863   3.615  0.00  0.00    +0.197 C 
ATOM      5  C   UNL     1     -34.939  24.593   2.359  0.00  0.00    +0.138 C 
ATOM      6  C   UNL     1     -37.259  23.942   2.424  0.00  0.00    +0.266 C 
ATOM      7  C   UNL     1     -35.922  23.950   5.357  0.00  0.00    +0.034 C 
ATOM      8  C   UNL     1     -33.920  25.080   1.330  0.00  0.00    +0.034 C 
ENDROOT
BRANCH   3  10
ATOM      9  O   UNL     1     -33.708  28.059   4.253  0.00  0.00    -0.265 OA
ATOM     10  N   UNL     1     -33.868  25.726   4.283  0.00  0.00    -0.294 N 
ATOM     11  C   UNL     1     -33.298  26.948   4.564  0.00  0.00    +0.300 C 
ATOM     12  H   UNL     1     -33.414  24.915   4.605  0.00  0.00    +0.150 HD
ENDBRANCH   3  10
BRANCH   2  13
ATOM     13  O   UNL     1     -36.600  26.237   5.340  0.00  0.00    -0.382 OA
ATOM     14  H   UNL     1     -37.148  26.883   4.867  0.00  0.00    +0.210 HD
ENDBRANCH   2  13
BRANCH   4  15
ATOM     15  O   UNL     1     -38.055  26.094   3.096  0.00  0.00    -0.346 OA
ATOM     16  C   UNL     1     -39.378  25.926   2.619  0.00  0.00    +0.174 C 
ENDBRANCH   4  15
BRANCH   6  17
ATOM     17  O   UNL     1     -37.055  22.603   2.853  0.00  0.00    -0.326 OA
BRANCH  17  18
ATOM     18  C   UNL     1     -36.873  21.724   1.751  0.00  0.00    +0.181 C 
BRANCH  18  19
ATOM     19  C   UNL     1     -36.103  20.470   2.222  0.00  0.00    +0.167 C 
BRANCH  19  20
ATOM     20  O   UNL     1     -35.627  20.667   3.556  0.00  0.00    -0.379 OA
ATOM     21  H   UNL     1     -34.977  19.979   3.771  0.00  0.00    +0.211 HD
ENDBRANCH  19  20
BRANCH  19  22
ATOM     22  C   UNL     1     -34.905  20.043   1.351  0.00  0.00    +0.140 C 
ATOM     23  C   UNL     1     -34.116  21.224   0.804  0.00  0.00    +0.034 C 
BRANCH  22  24
ATOM     24  O   UNL     1     -34.002  19.215   2.080  0.00  0.00    -0.382 OA
ATOM     25  H   UNL     1     -33.642  18.533   1.492  0.00  0.00    +0.210 HD
ENDBRANCH  22  24
ENDBRANCH  19  22
ENDBRANCH  18  19
BRANCH  18  26
ATOM     26  C   UNL     1     -38.241  21.385   1.136  0.00  0.00    +0.209 C 
BRANCH  26  27
ATOM     27  O   UNL     1     -38.463  22.119  -0.052  0.00  0.00    -0.343 OA
ATOM     28  C   UNL     1     -37.310  22.136  -0.887  0.00  0.00    +0.175 C 
ENDBRANCH  26  27
BRANCH  26  30
ATOM     29  O   UNL     1     -40.438  21.100   2.129  0.00  0.00    -0.286 OA
ATOM     30  C   UNL     1     -39.355  21.675   2.123  0.00  0.00    +0.239 C 
ENDBRANCH  26  30
ENDBRANCH  18  26
ENDBRANCH  17  18
ENDBRANCH   6  17
TORSDOF 12
ENDMDL
MODEL 3
REMARK VINA RESULT:      -5.2      2.758      5.984
REMARK  Name = 195143
REMARK  12 active torsions:
REMARK  status: ('A' for Active; 'I' for Inactive)
REMARK    1  A    between atoms: C_2  and  O_13
REMARK    2  A    between atoms: C_3  and  N_10
REMARK    3  A    between atoms: C_4  and  O_15
REMARK    4  A    between atoms: C_6  and  O_17
REMARK    5  A    between atoms: O_17  and  C_18
REMARK    6  A    between atoms: C_18  and  C_19
REMARK    7  A    between atoms: C_18  and  C_26
REMARK    8  A    between atoms: C_19  and  O_20
REMARK    9  A    between atoms: C_19  and  C_22
REMARK   10  A    between atoms: C_22  and  O_24
REMARK   11  A    between atoms: C_26  and  O_27
REMARK   12  A    between atoms: C_26  and  C_30
REMARK                            x       y       z     vdW  Elec       q    Type
REMARK                         _______ _______ _______ _____ _____    ______ ____
ROOT
ATOM      1  O   UNL     1     -36.345  26.325   4.038  0.00  0.00    -0.329 OA
ATOM      2  C   UNL     1     -36.514  23.509   3.337  0.00  0.00    +0.137 C 
ATOM      3  C   UNL     1     -35.811  24.004   4.628  0.00  0.00    +0.126 C 
ATOM      4  C   UNL     1     -37.533  24.565   2.853  0.00  0.00    +0.197 C 
ATOM      5  C   UNL     1     -35.292  25.448   4.458  0.00  0.00    +0.138 C 
ATOM      6  C   UNL     1     -36.950  25.978   2.791  0.00  0.00    +0.266 C 
ATOM      7  C   UNL     1     -35.520  23.146   2.218  0.00  0.00    +0.034 C 
ATOM      8  C   UNL     1     -34.763  26.035   5.767  0.00  0.00    +0.034 C 
ENDROOT
BRANCH   3  10
ATOM      9  O   UNL     1     -35.962  21.796   6.557  0.00  0.00    -0.265 OA
ATOM     10  N   UNL     1     -34.755  23.101   5.036  0.00  0.00    -0.294 N 
ATOM     11  C   UNL     1     -34.937  22.092   5.956  0.00  0.00    +0.300 C 
ATOM     12  H   UNL     1     -33.863  23.212   4.637  0.00  0.00    +0.150 HD
ENDBRANCH   3  10
BRANCH   2  13
ATOM     13  O   UNL     1     -37.255  22.316   3.630  0.00  0.00    -0.382 OA
ATOM     14  H   UNL     1     -36.653  21.639   3.977  0.00  0.00    +0.210 HD
ENDBRANCH   2  13
BRANCH   4  15
ATOM     15  O   UNL     1     -38.651  24.598   3.750  0.00  0.00    -0.346 OA
ATOM     16  C   UNL     1     -39.841  24.954   3.069  0.00  0.00    +0.174 C 
ENDBRANCH   4  15
BRANCH   6  17
ATOM     17  O   UNL     1     -36.060  26.113   1.693  0.00  0.00    -0.326 OA
BRANCH  17  18
ATOM     18  C   UNL     1     -35.853  27.478   1.352  0.00  0.00    +0.181 C 
BRANCH  18  19
ATOM     19  C   UNL     1     -34.357  27.824   1.518  0.00  0.00    +0.167 C 
BRANCH  19  20
ATOM     20  O   UNL     1     -33.574  26.629   1.455  0.00  0.00    -0.379 OA
ATOM     21  H   UNL     1     -34.031  25.918   1.933  0.00  0.00    +0.211 HD
ENDBRANCH  19  20
BRANCH  19  22
ATOM     22  C   UNL     1     -33.973  28.572   2.811  0.00  0.00    +0.140 C 
ATOM     23  C   UNL     1     -33.127  29.810   2.551  0.00  0.00    +0.034 C 
BRANCH  22  24
ATOM     24  O   UNL     1     -35.128  28.978   3.540  0.00  0.00    -0.382 OA
ATOM     25  H   UNL     1     -34.940  28.941   4.491  0.00  0.00    +0.210 HD
ENDBRANCH  22  24
ENDBRANCH  19  22
ENDBRANCH  18  19
BRANCH  18  26
ATOM     26  C   UNL     1     -36.367  27.732  -0.075  0.00  0.00    +0.209 C 
BRANCH  26  27
ATOM     27  O   UNL     1     -35.317  27.652  -1.018  0.00  0.00    -0.343 OA
ATOM     28  C   UNL     1     -35.540  28.511  -2.132  0.00  0.00    +0.175 C 
ENDBRANCH  26  27
BRANCH  26  30
ATOM     29  O   UNL     1     -37.349  29.773   0.800  0.00  0.00    -0.286 OA
ATOM     30  C   UNL     1     -37.026  29.094  -0.169  0.00  0.00    +0.239 C 
ENDBRANCH  26  30
ENDBRANCH  18  26
ENDBRANCH  17  18
ENDBRANCH   6  17
TORSDOF 12
ENDMDL
MODEL 4
REMARK VINA RESULT:      -5.2      2.570      6.468
REMARK  Name = 195143
REMARK  12 active torsions:
REMARK  status: ('A' for Active; 'I' for Inactive)
REMARK    1  A    between atoms: C_2  and  O_13
REMARK    2  A    between atoms: C_3  and  N_10
REMARK    3  A    between atoms: C_4  and  O_15
REMARK    4  A    between atoms: C_6  and  O_17
REMARK    5  A    between atoms: O_17  and  C_18
REMARK    6  A    between atoms: C_18  and  C_19
REMARK    7  A    between atoms: C_18  and  C_26
REMARK    8  A    between atoms: C_19  and  O_20
REMARK    9  A    between atoms: C_19  and  C_22
REMARK   10  A    between atoms: C_22  and  O_24
REMARK   11  A    between atoms: C_26  and  O_27
REMARK   12  A    between atoms: C_26  and  C_30
REMARK                            x       y       z     vdW  Elec       q    Type
REMARK                         _______ _______ _______ _____ _____    ______ ____
ROOT
ATOM      1  O   UNL     1     -35.959  22.050   3.466  0.00  0.00    -0.329 OA
ATOM      2  C   UNL     1     -35.923  24.943   3.195  0.00  0.00    +0.137 C 
ATOM      3  C   UNL     1     -35.261  24.212   4.391  0.00  0.00    +0.126 C 
ATOM      4  C   UNL     1     -36.047  23.981   1.992  0.00  0.00    +0.197 C 
ATOM      5  C   UNL     1     -35.939  22.850   4.654  0.00  0.00    +0.138 C 
ATOM      6  C   UNL     1     -36.660  22.629   2.365  0.00  0.00    +0.266 C 
ATOM      7  C   UNL     1     -37.288  25.559   3.553  0.00  0.00    +0.034 C 
ATOM      8  C   UNL     1     -35.196  22.021   5.700  0.00  0.00    +0.034 C 
ENDROOT
BRANCH   3  10
ATOM      9  O   UNL     1     -33.249  26.193   5.195  0.00  0.00    -0.265 OA
ATOM     10  N   UNL     1     -35.248  25.042   5.578  0.00  0.00    -0.294 N 
ATOM     11  C   UNL     1     -34.247  25.945   5.859  0.00  0.00    +0.300 C 
ATOM     12  H   UNL     1     -35.992  24.956   6.217  0.00  0.00    +0.150 HD
ENDBRANCH   3  10
BRANCH   2  13
ATOM     13  O   UNL     1     -35.081  26.027   2.778  0.00  0.00    -0.382 OA
ATOM     14  H   UNL     1     -34.992  26.014   1.812  0.00  0.00    +0.210 HD
ENDBRANCH   2  13
BRANCH   4  15
ATOM     15  O   UNL     1     -34.747  23.729   1.443  0.00  0.00    -0.346 OA
ATOM     16  C   UNL     1     -34.841  23.105   0.175  0.00  0.00    +0.174 C 
ENDBRANCH   4  15
BRANCH   6  17
ATOM     17  O   UNL     1     -38.054  22.752   2.605  0.00  0.00    -0.326 OA
BRANCH  17  18
ATOM     18  C   UNL     1     -38.778  22.931   1.394  0.00  0.00    +0.181 C 
BRANCH  18  19
ATOM     19  C   UNL     1     -39.520  21.621   1.047  0.00  0.00    +0.167 C 
BRANCH  19  20
ATOM     20  O   UNL     1     -39.998  21.002   2.244  0.00  0.00    -0.379 OA
ATOM     21  H   UNL     1     -40.920  21.263   2.396  0.00  0.00    +0.211 HD
ENDBRANCH  19  20
BRANCH  19  22
ATOM     22  C   UNL     1     -38.709  20.570   0.264  0.00  0.00    +0.140 C 
ATOM     23  C   UNL     1     -37.906  21.170  -0.882  0.00  0.00    +0.034 C 
BRANCH  22  24
ATOM     24  O   UNL     1     -37.801  19.873   1.114  0.00  0.00    -0.382 OA
ATOM     25  H   UNL     1     -36.971  20.370   1.176  0.00  0.00    +0.210 HD
ENDBRANCH  22  24
ENDBRANCH  19  22
ENDBRANCH  18  19
BRANCH  18  26
ATOM     26  C   UNL     1     -39.729  24.131   1.541  0.00  0.00    +0.209 C 
BRANCH  26  27
ATOM     27  O   UNL     1     -41.078  23.737   1.380  0.00  0.00    -0.343 OA
ATOM     28  C   UNL     1     -41.909  24.835   1.020  0.00  0.00    +0.175 C 
ENDBRANCH  26  27
BRANCH  26  30
ATOM     29  O   UNL     1     -38.491  25.112  -0.304  0.00  0.00    -0.286 OA
ATOM     30  C   UNL     1     -39.393  25.203   0.523  0.00  0.00    +0.239 C 
ENDBRANCH  26  30
ENDBRANCH  18  26
ENDBRANCH  17  18
ENDBRANCH   6  17
TORSDOF 12
ENDMDL
MODEL 5
REMARK VINA RESULT:      -5.1      3.224      6.280
REMARK  Name = 195143
REMARK  12 active torsions:
REMARK  status: ('A' for Active; 'I' for Inactive)
REMARK    1  A    between atoms: C_2  and  O_13
REMARK    2  A    between atoms: C_3  and  N_10
REMARK    3  A    between atoms: C_4  and  O_15
REMARK    4  A    between atoms: C_6  and  O_17
REMARK    5  A    between atoms: O_17  and  C_18
REMARK    6  A    between atoms: C_18  and  C_19
REMARK    7  A    between atoms: C_18  and  C_26
REMARK    8  A    between atoms: C_19  and  O_20
REMARK    9  A    between atoms: C_19  and  C_22
REMARK   10  A    between atoms: C_22  and  O_24
REMARK   11  A    between atoms: C_26  and  O_27
REMARK   12  A    between atoms: C_26  and  C_30
REMARK                            x       y       z     vdW  Elec       q    Type
REMARK                         _______ _______ _______ _____ _____    ______ ____
ROOT
ATOM      1  O   UNL     1     -33.516  25.461   4.432  0.00  0.00    -0.329 OA
ATOM      2  C   UNL     1     -33.763  27.590   2.469  0.00  0.00    +0.137 C 
ATOM      3  C   UNL     1     -33.121  27.815   3.863  0.00  0.00    +0.126 C 
ATOM      4  C   UNL     1     -33.693  26.094   2.091  0.00  0.00    +0.197 C 
ATOM      5  C   UNL     1     -33.672  26.808   4.896  0.00  0.00    +0.138 C 
ATOM      6  C   UNL     1     -34.187  25.169   3.205  0.00  0.00    +0.266 C 
ATOM      7  C   UNL     1     -35.208  28.115   2.386  0.00  0.00    +0.034 C 
ATOM      8  C   UNL     1     -32.928  26.875   6.229  0.00  0.00    +0.034 C 
ENDROOT
BRANCH   3  10
ATOM      9  O   UNL     1     -31.313  30.088   3.439  0.00  0.00    -0.265 OA
ATOM     10  N   UNL     1     -33.287  29.183   4.309  0.00  0.00    -0.294 N 
ATOM     11  C   UNL     1     -32.369  30.178   4.052  0.00  0.00    +0.300 C 
ATOM     12  H   UNL     1     -34.095  29.414   4.820  0.00  0.00    +0.150 HD
ENDBRANCH   3  10
BRANCH   2  13
ATOM     13  O   UNL     1     -33.009  28.307   1.481  0.00  0.00    -0.382 OA
ATOM     14  H   UNL     1     -33.137  29.260   1.604  0.00  0.00    +0.210 HD
ENDBRANCH   2  13
BRANCH   4  15
ATOM     15  O   UNL     1     -32.335  25.734   1.803  0.00  0.00    -0.346 OA
ATOM     16  C   UNL     1     -32.228  25.126   0.528  0.00  0.00    +0.174 C 
ENDBRANCH   4  15
BRANCH   6  17
ATOM     17  O   UNL     1     -35.601  25.229   3.326  0.00  0.00    -0.326 OA
BRANCH  17  18
ATOM     18  C   UNL     1     -36.190  23.940   3.212  0.00  0.00    +0.181 C 
BRANCH  18  19
ATOM     19  C   UNL     1     -36.294  23.302   4.614  0.00  0.00    +0.167 C 
BRANCH  19  20
ATOM     20  O   UNL     1     -36.151  24.310   5.617  0.00  0.00    -0.379 OA
ATOM     21  H   UNL     1     -36.161  25.186   5.199  0.00  0.00    +0.211 HD
ENDBRANCH  19  20
BRANCH  19  22
ATOM     22  C   UNL     1     -35.283  22.180   4.926  0.00  0.00    +0.140 C 
ATOM     23  C   UNL     1     -35.167  21.881   6.414  0.00  0.00    +0.034 C 
BRANCH  22  24
ATOM     24  O   UNL     1     -35.630  20.968   4.263  0.00  0.00    -0.382 OA
ATOM     25  H   UNL     1     -36.592  20.850   4.287  0.00  0.00    +0.210 HD
ENDBRANCH  22  24
ENDBRANCH  19  22
ENDBRANCH  18  19
BRANCH  18  26
ATOM     26  C   UNL     1     -37.554  24.061   2.511  0.00  0.00    +0.209 C 
BRANCH  26  27
ATOM     27  O   UNL     1     -38.593  24.270   3.448  0.00  0.00    -0.343 OA
ATOM     28  C   UNL     1     -39.838  24.528   2.808  0.00  0.00    +0.175 C 
ENDBRANCH  26  27
BRANCH  26  30
ATOM     29  O   UNL     1     -37.718  21.670   2.124  0.00  0.00    -0.286 OA
ATOM     30  C   UNL     1     -37.850  22.814   1.702  0.00  0.00    +0.239 C 
ENDBRANCH  26  30
ENDBRANCH  18  26
ENDBRANCH  17  18
ENDBRANCH   6  17
TORSDOF 12
ENDMDL
MODEL 6
REMARK VINA RESULT:      -5.1      2.797      4.721
REMARK  Name = 195143
REMARK  12 active torsions:
REMARK  status: ('A' for Active; 'I' for Inactive)
REMARK    1  A    between atoms: C_2  and  O_13
REMARK    2  A    between atoms: C_3  and  N_10
REMARK    3  A    between atoms: C_4  and  O_15
REMARK    4  A    between atoms: C_6  and  O_17
REMARK    5  A    between atoms: O_17  and  C_18
REMARK    6  A    between atoms: C_18  and  C_19
REMARK    7  A    between atoms: C_18  and  C_26
REMARK    8  A    between atoms: C_19  and  O_20
REMARK    9  A    between atoms: C_19  and  C_22
REMARK   10  A    between atoms: C_22  and  O_24
REMARK   11  A    between atoms: C_26  and  O_27
REMARK   12  A    between atoms: C_26  and  C_30
REMARK                            x       y       z     vdW  Elec       q    Type
REMARK                         _______ _______ _______ _____ _____    ______ ____
ROOT
ATOM      1  O   UNL     1     -37.241  22.837   0.618  0.00  0.00    -0.329 OA
ATOM      2  C   UNL     1     -35.255  20.947   1.582  0.00  0.00    +0.137 C 
ATOM      3  C   UNL     1     -36.450  20.516   0.693  0.00  0.00    +0.126 C 
ATOM      4  C   UNL     1     -34.966  22.452   1.385  0.00  0.00    +0.197 C 
ATOM      5  C   UNL     1     -37.642  21.483   0.859  0.00  0.00    +0.138 C 
ATOM      6  C   UNL     1     -36.220  23.323   1.490  0.00  0.00    +0.266 C 
ATOM      7  C   UNL     1     -35.469  20.616   3.070  0.00  0.00    +0.034 C 
ATOM      8  C   UNL     1     -38.765  21.200  -0.139  0.00  0.00    +0.034 C 
ENDROOT
BRANCH   3  10
ATOM      9  O   UNL     1     -36.401  18.244  -1.165  0.00  0.00    -0.265 OA
ATOM     10  N   UNL     1     -36.835  19.143   0.950  0.00  0.00    -0.294 N 
ATOM     11  C   UNL     1     -36.771  18.150  -0.002  0.00  0.00    +0.300 C 
ATOM     12  H   UNL     1     -37.157  18.908   1.850  0.00  0.00    +0.150 HD
ENDBRANCH   3  10
BRANCH   2  13
ATOM     13  O   UNL     1     -34.078  20.238   1.169  0.00  0.00    -0.382 OA
ATOM     14  H   UNL     1     -33.294  20.781   1.346  0.00  0.00    +0.210 HD
ENDBRANCH   2  13
BRANCH   4  15
ATOM     15  O   UNL     1     -34.401  22.665   0.084  0.00  0.00    -0.346 OA
ATOM     16  C   UNL     1     -33.834  23.959  -0.018  0.00  0.00    +0.174 C 
ENDBRANCH   4  15
BRANCH   6  17
ATOM     17  O   UNL     1     -36.654  23.428   2.839  0.00  0.00    -0.326 OA
BRANCH  17  18
ATOM     18  C   UNL     1     -36.309  24.688   3.401  0.00  0.00    +0.181 C 
BRANCH  18  19
ATOM     19  C   UNL     1     -37.585  25.545   3.551  0.00  0.00    +0.167 C 
BRANCH  19  20
ATOM     20  O   UNL     1     -38.661  24.733   4.026  0.00  0.00    -0.379 OA
ATOM     21  H   UNL     1     -38.629  23.866   3.591  0.00  0.00    +0.211 HD
ENDBRANCH  19  20
BRANCH  19  22
ATOM     22  C   UNL     1     -38.068  26.270   2.279  0.00  0.00    +0.140 C 
ATOM     23  C   UNL     1     -36.941  26.966   1.527  0.00  0.00    +0.034 C 
BRANCH  22  24
ATOM     24  O   UNL     1     -38.703  25.370   1.376  0.00  0.00    -0.382 OA
ATOM     25  H   UNL     1     -38.243  24.517   1.392  0.00  0.00    +0.210 HD
ENDBRANCH  22  24
ENDBRANCH  19  22
ENDBRANCH  18  19
BRANCH  18  26
ATOM     26  C   UNL     1     -35.581  24.468   4.738  0.00  0.00    +0.209 C 
BRANCH  26  27
ATOM     27  O   UNL     1     -36.194  23.439   5.491  0.00  0.00    -0.343 OA
ATOM     28  C   UNL     1     -35.232  22.610   6.135  0.00  0.00    +0.175 C 
ENDBRANCH  26  27
BRANCH  26  30
ATOM     29  O   UNL     1     -34.553  26.392   5.803  0.00  0.00    -0.286 OA
ATOM     30  C   UNL     1     -35.565  25.746   5.553  0.00  0.00    +0.239 C 
ENDBRANCH  26  30
ENDBRANCH  18  26
ENDBRANCH  17  18
ENDBRANCH   6  17
TORSDOF 12
ENDMDL
MODEL 7
REMARK VINA RESULT:      -5.1      2.798      5.948
REMARK  Name = 195143
REMARK  12 active torsions:
REMARK  status: ('A' for Active; 'I' for Inactive)
REMARK    1  A    between atoms: C_2  and  O_13
REMARK    2  A    between atoms: C_3  and  N_10
REMARK    3  A    between atoms: C_4  and  O_15
REMARK    4  A    between atoms: C_6  and  O_17
REMARK    5  A    between atoms: O_17  and  C_18
REMARK    6  A    between atoms: C_18  and  C_19
REMARK    7  A    between atoms: C_18  and  C_26
REMARK    8  A    between atoms: C_19  and  O_20
REMARK    9  A    between atoms: C_19  and  C_22
REMARK   10  A    between atoms: C_22  and  O_24
REMARK   11  A    between atoms: C_26  and  O_27
REMARK   12  A    between atoms: C_26  and  C_30
REMARK                            x       y       z     vdW  Elec       q    Type
REMARK                         _______ _______ _______ _____ _____    ______ ____
ROOT
ATOM      1  O   UNL     1     -35.949  26.373   4.207  0.00  0.00    -0.329 OA
ATOM      2  C   UNL     1     -36.298  23.586   3.462  0.00  0.00    +0.137 C 
ATOM      3  C   UNL     1     -35.608  24.013   4.783  0.00  0.00    +0.126 C 
ATOM      4  C   UNL     1     -37.219  24.720   2.958  0.00  0.00    +0.197 C 
ATOM      5  C   UNL     1     -34.979  25.417   4.652  0.00  0.00    +0.138 C 
ATOM      6  C   UNL     1     -36.533  26.087   2.936  0.00  0.00    +0.266 C 
ATOM      7  C   UNL     1     -35.294  23.165   2.373  0.00  0.00    +0.034 C 
ATOM      8  C   UNL     1     -34.456  25.948   5.987  0.00  0.00    +0.034 C 
ENDROOT
BRANCH   3  10
ATOM      9  O   UNL     1     -36.012  21.749   6.607  0.00  0.00    -0.265 OA
ATOM     10  N   UNL     1     -34.636  23.030   5.215  0.00  0.00    -0.294 N 
ATOM     11  C   UNL     1     -34.935  22.001   6.081  0.00  0.00    +0.300 C 
ATOM     12  H   UNL     1     -33.716  23.100   4.874  0.00  0.00    +0.150 HD
ENDBRANCH   3  10
BRANCH   2  13
ATOM     13  O   UNL     1     -37.135  22.447   3.711  0.00  0.00    -0.382 OA
ATOM     14  H   UNL     1     -37.674  22.610   4.501  0.00  0.00    +0.210 HD
ENDBRANCH   2  13
BRANCH   4  15
ATOM     15  O   UNL     1     -38.364  24.825   3.815  0.00  0.00    -0.346 OA
ATOM     16  C   UNL     1     -39.558  24.931   3.061  0.00  0.00    +0.174 C 
ENDBRANCH   4  15
BRANCH   6  17
ATOM     17  O   UNL     1     -35.596  26.168   1.871  0.00  0.00    -0.326 OA
BRANCH  17  18
ATOM     18  C   UNL     1     -35.971  27.158   0.921  0.00  0.00    +0.181 C 
BRANCH  18  19
ATOM     19  C   UNL     1     -36.359  28.455   1.663  0.00  0.00    +0.167 C 
BRANCH  19  20
ATOM     20  O   UNL     1     -37.191  29.262   0.826  0.00  0.00    -0.379 OA
ATOM     21  H   UNL     1     -38.076  28.866   0.772  0.00  0.00    +0.211 HD
ENDBRANCH  19  20
BRANCH  19  22
ATOM     22  C   UNL     1     -35.189  29.333   2.151  0.00  0.00    +0.140 C 
ATOM     23  C   UNL     1     -35.601  30.772   2.429  0.00  0.00    +0.034 C 
BRANCH  22  24
ATOM     24  O   UNL     1     -34.607  28.809   3.342  0.00  0.00    -0.382 OA
ATOM     25  H   UNL     1     -33.836  28.268   3.114  0.00  0.00    +0.210 HD
ENDBRANCH  22  24
ENDBRANCH  19  22
ENDBRANCH  18  19
BRANCH  18  26
ATOM     26  C   UNL     1     -34.822  27.366  -0.080  0.00  0.00    +0.209 C 
BRANCH  26  27
ATOM     27  O   UNL     1     -35.242  28.141  -1.186  0.00  0.00    -0.343 OA
ATOM     28  C   UNL     1     -34.260  29.101  -1.562  0.00  0.00    +0.175 C 
ENDBRANCH  26  27
BRANCH  26  30
ATOM     29  O   UNL     1     -34.794  25.389  -1.490  0.00  0.00    -0.286 OA
ATOM     30  C   UNL     1     -34.295  26.032  -0.571  0.00  0.00    +0.239 C 
ENDBRANCH  26  30
ENDBRANCH  18  26
ENDBRANCH  17  18
ENDBRANCH   6  17
TORSDOF 12
ENDMDL
MODEL 8
REMARK VINA RESULT:      -5.1      2.716      5.647
REMARK  Name = 195143
REMARK  12 active torsions:
REMARK  status: ('A' for Active; 'I' for Inactive)
REMARK    1  A    between atoms: C_2  and  O_13
REMARK    2  A    between atoms: C_3  and  N_10
REMARK    3  A    between atoms: C_4  and  O_15
REMARK    4  A    between atoms: C_6  and  O_17
REMARK    5  A    between atoms: O_17  and  C_18
REMARK    6  A    between atoms: C_18  and  C_19
REMARK    7  A    between atoms: C_18  and  C_26
REMARK    8  A    between atoms: C_19  and  O_20
REMARK    9  A    between atoms: C_19  and  C_22
REMARK   10  A    between atoms: C_22  and  O_24
REMARK   11  A    between atoms: C_26  and  O_27
REMARK   12  A    between atoms: C_26  and  C_30
REMARK                            x       y       z     vdW  Elec       q    Type
REMARK                         _______ _______ _______ _____ _____    ______ ____
ROOT
ATOM      1  O   UNL     1     -34.589  23.332   1.843  0.00  0.00    -0.329 OA
ATOM      2  C   UNL     1     -36.491  21.159   2.164  0.00  0.00    +0.137 C 
ATOM      3  C   UNL     1     -35.269  21.060   1.214  0.00  0.00    +0.126 C 
ATOM      4  C   UNL     1     -36.229  22.222   3.253  0.00  0.00    +0.197 C 
ATOM      5  C   UNL     1     -34.827  22.459   0.732  0.00  0.00    +0.138 C 
ATOM      6  C   UNL     1     -35.720  23.549   2.687  0.00  0.00    +0.266 C 
ATOM      7  C   UNL     1     -37.806  21.446   1.416  0.00  0.00    +0.034 C 
ATOM      8  C   UNL     1     -33.515  22.418  -0.051  0.00  0.00    +0.034 C 
ENDROOT
BRANCH   3  10
ATOM      9  O   UNL     1     -34.097  18.419   0.695  0.00  0.00    -0.265 OA
ATOM     10  N   UNL     1     -35.531  20.169   0.103  0.00  0.00    -0.294 N 
ATOM     11  C   UNL     1     -34.921  18.943  -0.044  0.00  0.00    +0.300 C 
ATOM     12  H   UNL     1     -36.179  20.453  -0.582  0.00  0.00    +0.150 HD
ENDBRANCH   3  10
BRANCH   2  13
ATOM     13  O   UNL     1     -36.669  19.904   2.838  0.00  0.00    -0.382 OA
ATOM     14  H   UNL     1     -35.957  19.782   3.486  0.00  0.00    +0.210 HD
ENDBRANCH   2  13
BRANCH   4  15
ATOM     15  O   UNL     1     -35.238  21.736   4.169  0.00  0.00    -0.346 OA
ATOM     16  C   UNL     1     -35.525  22.146   5.495  0.00  0.00    +0.174 C 
ENDBRANCH   4  15
BRANCH   6  17
ATOM     17  O   UNL     1     -36.765  24.256   2.034  0.00  0.00    -0.326 OA
BRANCH  17  18
ATOM     18  C   UNL     1     -36.844  25.603   2.484  0.00  0.00    +0.181 C 
BRANCH  18  19
ATOM     19  C   UNL     1     -38.227  25.845   3.126  0.00  0.00    +0.167 C 
BRANCH  19  20
ATOM     20  O   UNL     1     -38.522  24.796   4.051  0.00  0.00    -0.379 OA
ATOM     21  H   UNL     1     -38.971  24.072   3.586  0.00  0.00    +0.211 HD
ENDBRANCH  19  20
BRANCH  19  22
ATOM     22  C   UNL     1     -39.416  25.963   2.152  0.00  0.00    +0.140 C 
ATOM     23  C   UNL     1     -40.762  26.024   2.860  0.00  0.00    +0.034 C 
BRANCH  22  24
ATOM     24  O   UNL     1     -39.303  27.121   1.330  0.00  0.00    -0.382 OA
ATOM     25  H   UNL     1     -40.172  27.341   0.959  0.00  0.00    +0.210 HD
ENDBRANCH  22  24
ENDBRANCH  19  22
ENDBRANCH  18  19
BRANCH  18  26
ATOM     26  C   UNL     1     -35.682  25.888   3.450  0.00  0.00    +0.209 C 
BRANCH  26  27
ATOM     27  O   UNL     1     -36.158  26.181   4.749  0.00  0.00    -0.343 OA
ATOM     28  C   UNL     1     -35.264  25.721   5.757  0.00  0.00    +0.175 C 
ENDBRANCH  26  27
BRANCH  26  30
ATOM     29  O   UNL     1     -34.828  28.161   3.461  0.00  0.00    -0.286 OA
ATOM     30  C   UNL     1     -34.842  27.047   2.948  0.00  0.00    +0.239 C 
ENDBRANCH  26  30
ENDBRANCH  18  26
ENDBRANCH  17  18
ENDBRANCH   6  17
TORSDOF 12
ENDMDL
MODEL 9
REMARK VINA RESULT:      -5.1      2.676      4.980
REMARK  Name = 195143
REMARK  12 active torsions:
REMARK  status: ('A' for Active; 'I' for Inactive)
REMARK    1  A    between atoms: C_2  and  O_13
REMARK    2  A    between atoms: C_3  and  N_10
REMARK    3  A    between atoms: C_4  and  O_15
REMARK    4  A    between atoms: C_6  and  O_17
REMARK    5  A    between atoms: O_17  and  C_18
REMARK    6  A    between atoms: C_18  and  C_19
REMARK    7  A    between atoms: C_18  and  C_26
REMARK    8  A    between atoms: C_19  and  O_20
REMARK    9  A    between atoms: C_19  and  C_22
REMARK   10  A    between atoms: C_22  and  O_24
REMARK   11  A    between atoms: C_26  and  O_27
REMARK   12  A    between atoms: C_26  and  C_30
REMARK                            x       y       z     vdW  Elec       q    Type
REMARK                         _______ _______ _______ _____ _____    ______ ____
ROOT
ATOM      1  O   UNL     1     -35.701  23.992   5.425  0.00  0.00    -0.329 OA
ATOM      2  C   UNL     1     -36.061  23.474   2.588  0.00  0.00    +0.137 C 
ATOM      3  C   UNL     1     -35.981  22.335   3.637  0.00  0.00    +0.126 C 
ATOM      4  C   UNL     1     -36.495  24.790   3.270  0.00  0.00    +0.197 C 
ATOM      5  C   UNL     1     -35.173  22.778   4.876  0.00  0.00    +0.138 C 
ATOM      6  C   UNL     1     -35.690  25.107   4.532  0.00  0.00    +0.266 C 
ATOM      7  C   UNL     1     -34.746  23.662   1.809  0.00  0.00    +0.034 C 
ATOM      8  C   UNL     1     -35.232  21.752   6.008  0.00  0.00    +0.034 C 
ENDROOT
BRANCH   3  10
ATOM      9  O   UNL     1     -37.340  20.427   1.869  0.00  0.00    -0.265 OA
ATOM     10  N   UNL     1     -35.449  21.118   3.060  0.00  0.00    -0.294 N 
ATOM     11  C   UNL     1     -36.180  20.290   2.236  0.00  0.00    +0.300 C 
ATOM     12  H   UNL     1     -34.519  20.869   3.265  0.00  0.00    +0.150 HD
ENDBRANCH   3  10
BRANCH   2  13
ATOM     13  O   UNL     1     -37.069  23.153   1.618  0.00  0.00    -0.382 OA
ATOM     14  H   UNL     1     -36.681  22.607   0.917  0.00  0.00    +0.210 HD
ENDBRANCH   2  13
BRANCH   4  15
ATOM     15  O   UNL     1     -37.875  24.701   3.650  0.00  0.00    -0.346 OA
ATOM     16  C   UNL     1     -38.622  25.779   3.113  0.00  0.00    +0.174 C 
ENDBRANCH   4  15
BRANCH   6  17
ATOM     17  O   UNL     1     -34.376  25.533   4.203  0.00  0.00    -0.326 OA
BRANCH  17  18
ATOM     18  C   UNL     1     -34.166  26.895   4.554  0.00  0.00    +0.181 C 
BRANCH  18  19
ATOM     19  C   UNL     1     -32.932  26.998   5.477  0.00  0.00    +0.167 C 
BRANCH  19  20
ATOM     20  O   UNL     1     -33.341  26.911   6.844  0.00  0.00    -0.379 OA
ATOM     21  H   UNL     1     -33.005  27.680   7.331  0.00  0.00    +0.211 HD
ENDBRANCH  19  20
BRANCH  19  22
ATOM     22  C   UNL     1     -32.073  28.269   5.322  0.00  0.00    +0.140 C 
ATOM     23  C   UNL     1     -31.792  28.962   6.648  0.00  0.00    +0.034 C 
BRANCH  22  24
ATOM     24  O   UNL     1     -30.820  27.978   4.708  0.00  0.00    -0.382 OA
ATOM     25  H   UNL     1     -30.288  27.427   5.304  0.00  0.00    +0.210 HD
ENDBRANCH  22  24
ENDBRANCH  19  22
ENDBRANCH  18  19
BRANCH  18  26
ATOM     26  C   UNL     1     -34.023  27.736   3.274  0.00  0.00    +0.209 C 
BRANCH  26  27
ATOM     27  O   UNL     1     -35.286  28.138   2.783  0.00  0.00    -0.343 OA
ATOM     28  C   UNL     1     -35.449  27.807   1.408  0.00  0.00    +0.175 C 
ENDBRANCH  26  27
BRANCH  26  30
ATOM     29  O   UNL     1     -32.074  26.966   2.047  0.00  0.00    -0.286 OA
ATOM     30  C   UNL     1     -33.291  26.954   2.201  0.00  0.00    +0.239 C 
ENDBRANCH  26  30
ENDBRANCH  18  26
ENDBRANCH  17  18
ENDBRANCH   6  17
TORSDOF 12
ENDMDL
