MODEL 1
REMARK VINA RESULT:      -5.5      0.000      0.000
REMARK  Name = 195966
REMARK  9 active torsions:
REMARK  status: ('A' for Active; 'I' for Inactive)
REMARK    1  A    between atoms: C_1  and  C_3
REMARK    2  A    between atoms: C_1  and  C_12
REMARK    3  A    between atoms: C_3  and  O_4
REMARK    4  A    between atoms: O_4  and  N_7
REMARK    5  A    between atoms: C_12  and  S_13
REMARK    6  A    between atoms: S_13  and  C_16
REMARK    7  A    between atoms: C_16  and  C_17
REMARK    8  A    between atoms: C_17  and  C_19
REMARK    9  A    between atoms: C_19  and  C_21
REMARK                            x       y       z     vdW  Elec       q    Type
REMARK                         _______ _______ _______ _____ _____    ______ ____
ROOT
ATOM      1  C   UNL     1     -34.087  25.214   4.727  0.00  0.00    +0.137 C 
ENDROOT
BRANCH   1   3
ATOM      2  O   UNL     1     -34.906  27.427   4.134  0.00  0.00    -0.248 OA
ATOM      3  C   UNL     1     -33.965  26.669   4.328  0.00  0.00    +0.342 C 
BRANCH   3   4
ATOM      4  O   UNL     1     -32.641  26.981   4.194  0.00  0.00    -0.336 OA
BRANCH   4   7
ATOM      5  O   UNL     1     -32.067  27.006   7.007  0.00  0.00    -0.267 OA
ATOM      6  O   UNL     1     -32.211  29.654   3.237  0.00  0.00    -0.267 OA
ATOM      7  N   UNL     1     -32.295  28.108   4.972  0.00  0.00    -0.054 N 
ATOM      8  C   UNL     1     -31.753  29.396   6.792  0.00  0.00    +0.066 C 
ATOM      9  C   UNL     1     -31.802  30.276   5.541  0.00  0.00    +0.066 C 
ATOM     10  C   UNL     1     -32.050  28.004   6.304  0.00  0.00    +0.287 C 
ATOM     11  C   UNL     1     -32.123  29.333   4.412  0.00  0.00    +0.287 C 
ENDBRANCH   4   7
ENDBRANCH   3   4
ENDBRANCH   1   3
BRANCH   1  12
ATOM     12  C   UNL     1     -34.803  24.368   3.686  0.00  0.00    +0.163 C 
BRANCH  12  13
ATOM     13  S   UNL     1     -36.304  23.653   4.315  0.00  0.00    -0.009 S 
ATOM     14  O   UNL     1     -35.948  22.798   5.434  0.00  0.00    -0.173 OA
ATOM     15  O   UNL     1     -37.267  24.727   4.481  0.00  0.00    -0.173 OA
BRANCH  13  16
ATOM     16  C   UNL     1     -36.851  22.623   2.988  0.00  0.00    +0.159 C 
BRANCH  16  17
ATOM     17  C   UNL     1     -35.766  22.408   1.945  0.00  0.00    +0.091 C 
BRANCH  17  19
ATOM     18  O   UNL     1     -35.255  20.283   2.978  0.00  0.00    -0.295 OA
ATOM     19  C   UNL     1     -35.134  21.026   2.003  0.00  0.00    +0.164 C 
BRANCH  19  21
ATOM     20 BR   UNL     1     -33.398  18.984   1.313  0.00  0.00    -0.072 Br
ATOM     21  C   UNL     1     -34.332  20.600   0.805  0.00  0.00    +0.132 C 
ENDBRANCH  19  21
ENDBRANCH  17  19
ENDBRANCH  16  17
ENDBRANCH  13  16
ENDBRANCH  12  13
ENDBRANCH   1  12
TORSDOF 9
ENDMDL
MODEL 2
REMARK VINA RESULT:      -5.5      1.137      2.028
REMARK  Name = 195966
REMARK  9 active torsions:
REMARK  status: ('A' for Active; 'I' for Inactive)
REMARK    1  A    between atoms: C_1  and  C_3
REMARK    2  A    between atoms: C_1  and  C_12
REMARK    3  A    between atoms: C_3  and  O_4
REMARK    4  A    between atoms: O_4  and  N_7
REMARK    5  A    between atoms: C_12  and  S_13
REMARK    6  A    between atoms: S_13  and  C_16
REMARK    7  A    between atoms: C_16  and  C_17
REMARK    8  A    between atoms: C_17  and  C_19
REMARK    9  A    between atoms: C_19  and  C_21
REMARK                            x       y       z     vdW  Elec       q    Type
REMARK                         _______ _______ _______ _____ _____    ______ ____
ROOT
ATOM      1  C   UNL     1     -33.965  25.514   4.019  0.00  0.00    +0.137 C 
ENDROOT
BRANCH   1   3
ATOM      2  O   UNL     1     -34.576  27.860   3.810  0.00  0.00    -0.248 OA
ATOM      3  C   UNL     1     -33.712  27.005   3.954  0.00  0.00    +0.342 C 
BRANCH   3   4
ATOM      4  O   UNL     1     -32.368  27.230   4.056  0.00  0.00    -0.336 OA
BRANCH   4   7
ATOM      5  O   UNL     1     -31.939  29.988   3.385  0.00  0.00    -0.267 OA
ATOM      6  O   UNL     1     -32.283  27.052   6.922  0.00  0.00    -0.267 OA
ATOM      7  N   UNL     1     -32.087  28.280   4.957  0.00  0.00    -0.054 N 
ATOM      8  C   UNL     1     -31.586  30.376   5.747  0.00  0.00    +0.066 C 
ATOM      9  C   UNL     1     -31.699  29.402   6.922  0.00  0.00    +0.066 C 
ATOM     10  C   UNL     1     -31.894  29.554   4.525  0.00  0.00    +0.287 C 
ATOM     11  C   UNL     1     -32.065  28.081   6.300  0.00  0.00    +0.287 C 
ENDBRANCH   4   7
ENDBRANCH   3   4
ENDBRANCH   1   3
BRANCH   1  12
ATOM     12  C   UNL     1     -34.776  25.098   5.236  0.00  0.00    +0.163 C 
BRANCH  12  13
ATOM     13  S   UNL     1     -35.936  23.804   4.862  0.00  0.00    -0.009 S 
ATOM     14  O   UNL     1     -35.891  22.845   5.950  0.00  0.00    -0.173 OA
ATOM     15  O   UNL     1     -37.190  24.434   4.481  0.00  0.00    -0.173 OA
BRANCH  13  16
ATOM     16  C   UNL     1     -35.245  23.042   3.425  0.00  0.00    +0.159 C 
BRANCH  16  17
ATOM     17  C   UNL     1     -35.570  21.559   3.352  0.00  0.00    +0.091 C 
BRANCH  17  19
ATOM     18  O   UNL     1     -37.652  21.861   2.160  0.00  0.00    -0.295 OA
ATOM     19  C   UNL     1     -36.611  21.217   2.296  0.00  0.00    +0.164 C 
BRANCH  19  21
ATOM     20 BR   UNL     1     -34.399  19.780   1.457  0.00  0.00    -0.072 Br
ATOM     21  C   UNL     1     -36.316  20.034   1.417  0.00  0.00    +0.132 C 
ENDBRANCH  19  21
ENDBRANCH  17  19
ENDBRANCH  16  17
ENDBRANCH  13  16
ENDBRANCH  12  13
ENDBRANCH   1  12
TORSDOF 9
ENDMDL
MODEL 3
REMARK VINA RESULT:      -5.3      1.914      2.338
REMARK  Name = 195966
REMARK  9 active torsions:
REMARK  status: ('A' for Active; 'I' for Inactive)
REMARK    1  A    between atoms: C_1  and  C_3
REMARK    2  A    between atoms: C_1  and  C_12
REMARK    3  A    between atoms: C_3  and  O_4
REMARK    4  A    between atoms: O_4  and  N_7
REMARK    5  A    between atoms: C_12  and  S_13
REMARK    6  A    between atoms: S_13  and  C_16
REMARK    7  A    between atoms: C_16  and  C_17
REMARK    8  A    between atoms: C_17  and  C_19
REMARK    9  A    between atoms: C_19  and  C_21
REMARK                            x       y       z     vdW  Elec       q    Type
REMARK                         _______ _______ _______ _____ _____    ______ ____
ROOT
ATOM      1  C   UNL     1     -34.105  26.980   2.566  0.00  0.00    +0.137 C 
ENDROOT
BRANCH   1   3
ATOM      2  O   UNL     1     -34.820  29.160   3.377  0.00  0.00    -0.248 OA
ATOM      3  C   UNL     1     -33.915  28.386   3.092  0.00  0.00    +0.342 C 
BRANCH   3   4
ATOM      4  O   UNL     1     -32.577  28.652   3.169  0.00  0.00    -0.336 OA
BRANCH   4   7
ATOM      5  O   UNL     1     -31.783  27.393   5.624  0.00  0.00    -0.267 OA
ATOM      6  O   UNL     1     -32.407  31.486   3.598  0.00  0.00    -0.267 OA
ATOM      7  N   UNL     1     -32.247  29.301   4.378  0.00  0.00    -0.054 N 
ATOM      8  C   UNL     1     -31.651  29.616   6.572  0.00  0.00    +0.066 C 
ATOM      9  C   UNL     1     -31.859  30.975   5.900  0.00  0.00    +0.066 C 
ATOM     10  C   UNL     1     -31.890  28.602   5.487  0.00  0.00    +0.287 C 
ATOM     11  C   UNL     1     -32.204  30.656   4.471  0.00  0.00    +0.287 C 
ENDBRANCH   4   7
ENDBRANCH   3   4
ENDBRANCH   1   3
BRANCH   1  12
ATOM     12  C   UNL     1     -35.247  26.238   3.244  0.00  0.00    +0.163 C 
BRANCH  12  13
ATOM     13  S   UNL     1     -34.752  25.506   4.787  0.00  0.00    -0.009 S 
ATOM     14  O   UNL     1     -33.484  24.834   4.568  0.00  0.00    -0.173 OA
ATOM     15  O   UNL     1     -34.885  26.521   5.818  0.00  0.00    -0.173 OA
BRANCH  13  16
ATOM     16  C   UNL     1     -35.987  24.274   5.066  0.00  0.00    +0.159 C 
BRANCH  16  17
ATOM     17  C   UNL     1     -35.408  23.013   5.685  0.00  0.00    +0.091 C 
BRANCH  17  19
ATOM     18  O   UNL     1     -35.087  20.688   5.103  0.00  0.00    -0.295 OA
ATOM     19  C   UNL     1     -35.395  21.823   4.737  0.00  0.00    +0.164 C 
BRANCH  19  21
ATOM     20 BR   UNL     1     -35.253  20.531   2.293  0.00  0.00    -0.072 Br
ATOM     21  C   UNL     1     -35.772  22.095   3.307  0.00  0.00    +0.132 C 
ENDBRANCH  19  21
ENDBRANCH  17  19
ENDBRANCH  16  17
ENDBRANCH  13  16
ENDBRANCH  12  13
ENDBRANCH   1  12
TORSDOF 9
ENDMDL
MODEL 4
REMARK VINA RESULT:      -5.3      1.687      1.910
REMARK  Name = 195966
REMARK  9 active torsions:
REMARK  status: ('A' for Active; 'I' for Inactive)
REMARK    1  A    between atoms: C_1  and  C_3
REMARK    2  A    between atoms: C_1  and  C_12
REMARK    3  A    between atoms: C_3  and  O_4
REMARK    4  A    between atoms: O_4  and  N_7
REMARK    5  A    between atoms: C_12  and  S_13
REMARK    6  A    between atoms: S_13  and  C_16
REMARK    7  A    between atoms: C_16  and  C_17
REMARK    8  A    between atoms: C_17  and  C_19
REMARK    9  A    between atoms: C_19  and  C_21
REMARK                            x       y       z     vdW  Elec       q    Type
REMARK                         _______ _______ _______ _____ _____    ______ ____
ROOT
ATOM      1  C   UNL     1     -34.513  26.249   4.608  0.00  0.00    +0.137 C 
ENDROOT
BRANCH   1   3
ATOM      2  O   UNL     1     -33.416  26.783   6.712  0.00  0.00    -0.248 OA
ATOM      3  C   UNL     1     -33.388  26.747   5.489  0.00  0.00    +0.342 C 
BRANCH   3   4
ATOM      4  O   UNL     1     -32.359  27.169   4.696  0.00  0.00    -0.336 OA
BRANCH   4   7
ATOM      5  O   UNL     1     -30.002  27.598   6.278  0.00  0.00    -0.267 OA
ATOM      6  O   UNL     1     -33.386  29.764   4.019  0.00  0.00    -0.267 OA
ATOM      7  N   UNL     1     -31.851  28.414   5.127  0.00  0.00    -0.054 N 
ATOM      8  C   UNL     1     -30.517  29.960   6.174  0.00  0.00    +0.066 C 
ATOM      9  C   UNL     1     -31.640  30.680   5.426  0.00  0.00    +0.066 C 
ATOM     10  C   UNL     1     -30.725  28.499   5.882  0.00  0.00    +0.287 C 
ATOM     11  C   UNL     1     -32.423  29.586   4.750  0.00  0.00    +0.287 C 
ENDBRANCH   4   7
ENDBRANCH   3   4
ENDBRANCH   1   3
BRANCH   1  12
ATOM     12  C   UNL     1     -35.672  25.659   5.395  0.00  0.00    +0.163 C 
BRANCH  12  13
ATOM     13  S   UNL     1     -36.146  24.054   4.797  0.00  0.00    -0.009 S 
ATOM     14  O   UNL     1     -36.035  23.121   5.905  0.00  0.00    -0.173 OA
ATOM     15  O   UNL     1     -37.400  24.205   4.078  0.00  0.00    -0.173 OA
BRANCH  13  16
ATOM     16  C   UNL     1     -34.882  23.668   3.624  0.00  0.00    +0.159 C 
BRANCH  16  17
ATOM     17  C   UNL     1     -35.431  22.936   2.411  0.00  0.00    +0.091 C 
BRANCH  17  19
ATOM     18  O   UNL     1     -35.268  20.789   3.511  0.00  0.00    -0.295 OA
ATOM     19  C   UNL     1     -35.865  21.508   2.709  0.00  0.00    +0.164 C 
BRANCH  19  21
ATOM     20 BR   UNL     1     -37.487  22.326   0.620  0.00  0.00    -0.072 Br
ATOM     21  C   UNL     1     -37.067  20.999   1.963  0.00  0.00    +0.132 C 
ENDBRANCH  19  21
ENDBRANCH  17  19
ENDBRANCH  16  17
ENDBRANCH  13  16
ENDBRANCH  12  13
ENDBRANCH   1  12
TORSDOF 9
ENDMDL
MODEL 5
REMARK VINA RESULT:      -5.2      1.184      1.990
REMARK  Name = 195966
REMARK  9 active torsions:
REMARK  status: ('A' for Active; 'I' for Inactive)
REMARK    1  A    between atoms: C_1  and  C_3
REMARK    2  A    between atoms: C_1  and  C_12
REMARK    3  A    between atoms: C_3  and  O_4
REMARK    4  A    between atoms: O_4  and  N_7
REMARK    5  A    between atoms: C_12  and  S_13
REMARK    6  A    between atoms: S_13  and  C_16
REMARK    7  A    between atoms: C_16  and  C_17
REMARK    8  A    between atoms: C_17  and  C_19
REMARK    9  A    between atoms: C_19  and  C_21
REMARK                            x       y       z     vdW  Elec       q    Type
REMARK                         _______ _______ _______ _____ _____    ______ ____
ROOT
ATOM      1  C   UNL     1     -34.333  26.410   5.156  0.00  0.00    +0.137 C 
ENDROOT
BRANCH   1   3
ATOM      2  O   UNL     1     -32.998  27.121   7.062  0.00  0.00    -0.248 OA
ATOM      3  C   UNL     1     -33.109  26.964   5.853  0.00  0.00    +0.342 C 
BRANCH   3   4
ATOM      4  O   UNL     1     -32.170  27.279   4.912  0.00  0.00    -0.336 OA
BRANCH   4   7
ATOM      5  O   UNL     1     -33.186  29.929   4.478  0.00  0.00    -0.267 OA
ATOM      6  O   UNL     1     -29.645  27.570   6.249  0.00  0.00    -0.267 OA
ATOM      7  N   UNL     1     -31.516  28.492   5.222  0.00  0.00    -0.054 N 
ATOM      8  C   UNL     1     -31.097  30.742   5.390  0.00  0.00    +0.066 C 
ATOM      9  C   UNL     1     -29.921  29.960   5.977  0.00  0.00    +0.066 C 
ATOM     10  C   UNL     1     -32.091  29.696   4.965  0.00  0.00    +0.287 C 
ATOM     11  C   UNL     1     -30.313  28.512   5.853  0.00  0.00    +0.287 C 
ENDBRANCH   4   7
ENDBRANCH   3   4
ENDBRANCH   1   3
BRANCH   1  12
ATOM     12  C   UNL     1     -34.363  24.890   5.120  0.00  0.00    +0.163 C 
BRANCH  12  13
ATOM     13  S   UNL     1     -35.972  24.258   4.705  0.00  0.00    -0.009 S 
ATOM     14  O   UNL     1     -36.209  23.084   5.526  0.00  0.00    -0.173 OA
ATOM     15  O   UNL     1     -36.902  25.375   4.723  0.00  0.00    -0.173 OA
BRANCH  13  16
ATOM     16  C   UNL     1     -35.781  23.730   3.030  0.00  0.00    +0.159 C 
BRANCH  16  17
ATOM     17  C   UNL     1     -36.427  22.378   2.778  0.00  0.00    +0.091 C 
BRANCH  17  19
ATOM     18  O   UNL     1     -35.237  20.417   3.544  0.00  0.00    -0.295 OA
ATOM     19  C   UNL     1     -35.425  21.241   2.648  0.00  0.00    +0.164 C 
BRANCH  19  21
ATOM     20 BR   UNL     1     -33.927  19.378   1.253  0.00  0.00    -0.072 Br
ATOM     21  C   UNL     1     -34.650  21.169   1.361  0.00  0.00    +0.132 C 
ENDBRANCH  19  21
ENDBRANCH  17  19
ENDBRANCH  16  17
ENDBRANCH  13  16
ENDBRANCH  12  13
ENDBRANCH   1  12
TORSDOF 9
ENDMDL
MODEL 6
REMARK VINA RESULT:      -5.1      5.836      8.058
REMARK  Name = 195966
REMARK  9 active torsions:
REMARK  status: ('A' for Active; 'I' for Inactive)
REMARK    1  A    between atoms: C_1  and  C_3
REMARK    2  A    between atoms: C_1  and  C_12
REMARK    3  A    between atoms: C_3  and  O_4
REMARK    4  A    between atoms: O_4  and  N_7
REMARK    5  A    between atoms: C_12  and  S_13
REMARK    6  A    between atoms: S_13  and  C_16
REMARK    7  A    between atoms: C_16  and  C_17
REMARK    8  A    between atoms: C_17  and  C_19
REMARK    9  A    between atoms: C_19  and  C_21
REMARK                            x       y       z     vdW  Elec       q    Type
REMARK                         _______ _______ _______ _____ _____    ______ ____
ROOT
ATOM      1  C   UNL     1     -38.028  25.601   3.025  0.00  0.00    +0.137 C 
ENDROOT
BRANCH   1   3
ATOM      2  O   UNL     1     -38.457  23.206   2.991  0.00  0.00    -0.248 OA
ATOM      3  C   UNL     1     -37.658  24.134   3.002  0.00  0.00    +0.342 C 
BRANCH   3   4
ATOM      4  O   UNL     1     -36.296  24.021   3.021  0.00  0.00    -0.336 OA
BRANCH   4   7
ATOM      5  O   UNL     1     -35.923  24.997   5.695  0.00  0.00    -0.267 OA
ATOM      6  O   UNL     1     -35.763  21.200   3.086  0.00  0.00    -0.267 OA
ATOM      7  N   UNL     1     -35.855  23.274   4.134  0.00  0.00    -0.054 N 
ATOM      8  C   UNL     1     -35.193  22.763   6.272  0.00  0.00    +0.066 C 
ATOM      9  C   UNL     1     -35.139  21.502   5.406  0.00  0.00    +0.066 C 
ATOM     10  C   UNL     1     -35.707  23.843   5.359  0.00  0.00    +0.287 C 
ATOM     11  C   UNL     1     -35.626  21.937   4.050  0.00  0.00    +0.287 C 
ENDBRANCH   4   7
ENDBRANCH   3   4
ENDBRANCH   1   3
BRANCH   1  12
ATOM     12  C   UNL     1     -39.529  25.837   3.074  0.00  0.00    +0.163 C 
BRANCH  12  13
ATOM     13  S   UNL     1     -40.190  26.295   1.488  0.00  0.00    -0.009 S 
ATOM     14  O   UNL     1     -39.340  27.337   0.941  0.00  0.00    -0.173 OA
ATOM     15  O   UNL     1     -40.434  25.071   0.743  0.00  0.00    -0.173 OA
BRANCH  13  16
ATOM     16  C   UNL     1     -41.753  27.014   1.892  0.00  0.00    +0.159 C 
BRANCH  16  17
ATOM     17  C   UNL     1     -42.122  26.800   3.350  0.00  0.00    +0.091 C 
BRANCH  17  19
ATOM     18  O   UNL     1     -41.933  28.820   4.666  0.00  0.00    -0.295 OA
ATOM     19  C   UNL     1     -42.656  28.052   4.030  0.00  0.00    +0.164 C 
BRANCH  19  21
ATOM     20 BR   UNL     1     -44.656  29.302   5.479  0.00  0.00    -0.072 Br
ATOM     21  C   UNL     1     -44.132  28.312   3.902  0.00  0.00    +0.132 C 
ENDBRANCH  19  21
ENDBRANCH  17  19
ENDBRANCH  16  17
ENDBRANCH  13  16
ENDBRANCH  12  13
ENDBRANCH   1  12
TORSDOF 9
ENDMDL
MODEL 7
REMARK VINA RESULT:      -5.1      2.041      2.315
REMARK  Name = 195966
REMARK  9 active torsions:
REMARK  status: ('A' for Active; 'I' for Inactive)
REMARK    1  A    between atoms: C_1  and  C_3
REMARK    2  A    between atoms: C_1  and  C_12
REMARK    3  A    between atoms: C_3  and  O_4
REMARK    4  A    between atoms: O_4  and  N_7
REMARK    5  A    between atoms: C_12  and  S_13
REMARK    6  A    between atoms: S_13  and  C_16
REMARK    7  A    between atoms: C_16  and  C_17
REMARK    8  A    between atoms: C_17  and  C_19
REMARK    9  A    between atoms: C_19  and  C_21
REMARK                            x       y       z     vdW  Elec       q    Type
REMARK                         _______ _______ _______ _____ _____    ______ ____
ROOT
ATOM      1  C   UNL     1     -35.062  26.543   3.853  0.00  0.00    +0.137 C 
ENDROOT
BRANCH   1   3
ATOM      2  O   UNL     1     -34.097  26.420   6.083  0.00  0.00    -0.248 OA
ATOM      3  C   UNL     1     -33.957  26.624   4.885  0.00  0.00    +0.342 C 
BRANCH   3   4
ATOM      4  O   UNL     1     -32.796  26.986   4.262  0.00  0.00    -0.336 OA
BRANCH   4   7
ATOM      5  O   UNL     1     -31.018  27.624   6.424  0.00  0.00    -0.267 OA
ATOM      6  O   UNL     1     -33.427  29.463   2.951  0.00  0.00    -0.267 OA
ATOM      7  N   UNL     1     -32.379  28.277   4.655  0.00  0.00    -0.054 N 
ATOM      8  C   UNL     1     -31.350  29.949   5.843  0.00  0.00    +0.066 C 
ATOM      9  C   UNL     1     -32.151  30.560   4.690  0.00  0.00    +0.066 C 
ATOM     10  C   UNL     1     -31.536  28.463   5.703  0.00  0.00    +0.287 C 
ATOM     11  C   UNL     1     -32.745  29.386   3.961  0.00  0.00    +0.287 C 
ENDBRANCH   4   7
ENDBRANCH   3   4
ENDBRANCH   1   3
BRANCH   1  12
ATOM     12  C   UNL     1     -36.382  26.057   4.429  0.00  0.00    +0.163 C 
BRANCH  12  13
ATOM     13  S   UNL     1     -37.393  25.251   3.209  0.00  0.00    -0.009 S 
ATOM     14  O   UNL     1     -38.393  24.469   3.913  0.00  0.00    -0.173 OA
ATOM     15  O   UNL     1     -37.788  26.253   2.233  0.00  0.00    -0.173 OA
BRANCH  13  16
ATOM     16  C   UNL     1     -36.271  24.133   2.426  0.00  0.00    +0.159 C 
BRANCH  16  17
ATOM     17  C   UNL     1     -36.640  22.681   2.679  0.00  0.00    +0.091 C 
BRANCH  17  19
ATOM     18  O   UNL     1     -35.442  20.740   3.482  0.00  0.00    -0.295 OA
ATOM     19  C   UNL     1     -35.649  21.950   3.573  0.00  0.00    +0.164 C 
BRANCH  19  21
ATOM     20 BR   UNL     1     -35.394  22.051   6.327  0.00  0.00    -0.072 Br
ATOM     21  C   UNL     1     -34.926  22.780   4.598  0.00  0.00    +0.132 C 
ENDBRANCH  19  21
ENDBRANCH  17  19
ENDBRANCH  16  17
ENDBRANCH  13  16
ENDBRANCH  12  13
ENDBRANCH   1  12
TORSDOF 9
ENDMDL
MODEL 8
REMARK VINA RESULT:      -5.1      2.957      3.847
REMARK  Name = 195966
REMARK  9 active torsions:
REMARK  status: ('A' for Active; 'I' for Inactive)
REMARK    1  A    between atoms: C_1  and  C_3
REMARK    2  A    between atoms: C_1  and  C_12
REMARK    3  A    between atoms: C_3  and  O_4
REMARK    4  A    between atoms: O_4  and  N_7
REMARK    5  A    between atoms: C_12  and  S_13
REMARK    6  A    between atoms: S_13  and  C_16
REMARK    7  A    between atoms: C_16  and  C_17
REMARK    8  A    between atoms: C_17  and  C_19
REMARK    9  A    between atoms: C_19  and  C_21
REMARK                            x       y       z     vdW  Elec       q    Type
REMARK                         _______ _______ _______ _____ _____    ______ ____
ROOT
ATOM      1  C   UNL     1     -33.702  25.499   3.675  0.00  0.00    +0.137 C 
ENDROOT
BRANCH   1   3
ATOM      2  O   UNL     1     -34.561  27.751   4.005  0.00  0.00    -0.248 OA
ATOM      3  C   UNL     1     -33.607  26.991   3.910  0.00  0.00    +0.342 C 
BRANCH   3   4
ATOM      4  O   UNL     1     -32.289  27.345   3.971  0.00  0.00    -0.336 OA
BRANCH   4   7
ATOM      5  O   UNL     1     -32.072  30.160   3.446  0.00  0.00    -0.267 OA
ATOM      6  O   UNL     1     -32.147  27.022   6.822  0.00  0.00    -0.267 OA
ATOM      7  N   UNL     1     -32.071  28.364   4.924  0.00  0.00    -0.054 N 
ATOM      8  C   UNL     1     -31.712  30.446   5.822  0.00  0.00    +0.066 C 
ATOM      9  C   UNL     1     -31.736  29.404   6.943  0.00  0.00    +0.066 C 
ATOM     10  C   UNL     1     -31.978  29.670   4.561  0.00  0.00    +0.287 C 
ATOM     11  C   UNL     1     -32.014  28.095   6.255  0.00  0.00    +0.287 C 
ENDBRANCH   4   7
ENDBRANCH   3   4
ENDBRANCH   1   3
BRANCH   1  12
ATOM     12  C   UNL     1     -34.212  24.735   4.887  0.00  0.00    +0.163 C 
BRANCH  12  13
ATOM     13  S   UNL     1     -35.716  23.852   4.543  0.00  0.00    -0.009 S 
ATOM     14  O   UNL     1     -35.571  23.228   3.239  0.00  0.00    -0.173 OA
ATOM     15  O   UNL     1     -36.036  23.055   5.714  0.00  0.00    -0.173 OA
BRANCH  13  16
ATOM     16  C   UNL     1     -36.920  25.138   4.407  0.00  0.00    +0.159 C 
BRANCH  16  17
ATOM     17  C   UNL     1     -37.992  24.813   3.380  0.00  0.00    +0.091 C 
BRANCH  17  19
ATOM     18  O   UNL     1     -39.146  26.643   2.301  0.00  0.00    -0.295 OA
ATOM     19  C   UNL     1     -38.169  25.894   2.324  0.00  0.00    +0.164 C 
BRANCH  19  21
ATOM     20 BR   UNL     1     -36.653  27.885   1.142  0.00  0.00    -0.072 Br
ATOM     21  C   UNL     1     -37.088  26.006   1.285  0.00  0.00    +0.132 C 
ENDBRANCH  19  21
ENDBRANCH  17  19
ENDBRANCH  16  17
ENDBRANCH  13  16
ENDBRANCH  12  13
ENDBRANCH   1  12
TORSDOF 9
ENDMDL
MODEL 9
REMARK VINA RESULT:      -4.9      3.490      7.391
REMARK  Name = 195966
REMARK  9 active torsions:
REMARK  status: ('A' for Active; 'I' for Inactive)
REMARK    1  A    between atoms: C_1  and  C_3
REMARK    2  A    between atoms: C_1  and  C_12
REMARK    3  A    between atoms: C_3  and  O_4
REMARK    4  A    between atoms: O_4  and  N_7
REMARK    5  A    between atoms: C_12  and  S_13
REMARK    6  A    between atoms: S_13  and  C_16
REMARK    7  A    between atoms: C_16  and  C_17
REMARK    8  A    between atoms: C_17  and  C_19
REMARK    9  A    between atoms: C_19  and  C_21
REMARK                            x       y       z     vdW  Elec       q    Type
REMARK                         _______ _______ _______ _____ _____    ______ ____
ROOT
ATOM      1  C   UNL     1     -36.270  22.132   2.598  0.00  0.00    +0.137 C 
ENDROOT
BRANCH   1   3
ATOM      2  O   UNL     1     -34.995  20.325   3.613  0.00  0.00    -0.248 OA
ATOM      3  C   UNL     1     -35.495  20.832   2.618  0.00  0.00    +0.342 C 
BRANCH   3   4
ATOM      4  O   UNL     1     -35.426  20.340   1.345  0.00  0.00    -0.336 OA
BRANCH   4   7
ATOM      5  O   UNL     1     -33.329  18.386   1.511  0.00  0.00    -0.267 OA
ATOM      6  O   UNL     1     -34.417  22.505  -0.251  0.00  0.00    -0.267 OA
ATOM      7  N   UNL     1     -34.123  20.459   0.815  0.00  0.00    -0.054 N 
ATOM      8  C   UNL     1     -31.941  19.961   0.307  0.00  0.00    +0.066 C 
ATOM      9  C   UNL     1     -32.301  21.328  -0.278  0.00  0.00    +0.066 C 
ATOM     10  C   UNL     1     -33.204  19.469   0.960  0.00  0.00    +0.287 C 
ATOM     11  C   UNL     1     -33.749  21.536   0.076  0.00  0.00    +0.287 C 
ENDBRANCH   4   7
ENDBRANCH   3   4
ENDBRANCH   1   3
BRANCH   1  12
ATOM     12  C   UNL     1     -35.471  23.311   3.130  0.00  0.00    +0.163 C 
BRANCH  12  13
ATOM     13  S   UNL     1     -36.029  23.835   4.734  0.00  0.00    -0.009 S 
ATOM     14  O   UNL     1     -37.182  24.695   4.539  0.00  0.00    -0.173 OA
ATOM     15  O   UNL     1     -36.120  22.653   5.575  0.00  0.00    -0.173 OA
BRANCH  13  16
ATOM     16  C   UNL     1     -34.693  24.829   5.325  0.00  0.00    +0.159 C 
BRANCH  16  17
ATOM     17  C   UNL     1     -33.875  25.421   4.189  0.00  0.00    +0.091 C 
BRANCH  17  19
ATOM     18  O   UNL     1     -33.425  27.728   4.758  0.00  0.00    -0.295 OA
ATOM     19  C   UNL     1     -34.036  26.928   4.048  0.00  0.00    +0.164 C 
BRANCH  19  21
ATOM     20 BR   UNL     1     -34.003  28.618   1.857  0.00  0.00    -0.072 Br
ATOM     21  C   UNL     1     -34.995  27.409   2.995  0.00  0.00    +0.132 C 
ENDBRANCH  19  21
ENDBRANCH  17  19
ENDBRANCH  16  17
ENDBRANCH  13  16
ENDBRANCH  12  13
ENDBRANCH   1  12
TORSDOF 9
ENDMDL
