MODEL 1
REMARK VINA RESULT:      -6.9      0.000      0.000
REMARK  Name = 56949675
REMARK  7 active torsions:
REMARK  status: ('A' for Active; 'I' for Inactive)
REMARK    1  A    between atoms: C_4  and  C_19
REMARK    2  A    between atoms: C_10  and  O_24
REMARK    3  A    between atoms: C_15  and  O_26
REMARK    4  A    between atoms: C_16  and  C_30
REMARK    5  A    between atoms: C_18  and  O_28
REMARK    6  A    between atoms: C_19  and  O_22
REMARK    7  A    between atoms: C_30  and  C_31
REMARK                            x       y       z     vdW  Elec       q    Type
REMARK                         _______ _______ _______ _____ _____    ______ ____
ROOT
ATOM      1  O   UNL     1     -31.547  30.252   4.718  0.00  0.00    -0.474 OA
ATOM      2  O   UNL     1     -33.705  25.390   6.101  0.00  0.00    -0.453 OA
ATOM      3  O   UNL     1     -33.680  26.465   2.154  0.00  0.00    -0.286 OA
ATOM      4  C   UNL     1     -32.010  30.386   3.352  0.00  0.00    +0.195 C 
ATOM      5  C   UNL     1     -32.385  28.995   2.822  0.00  0.00    +0.076 C 
ATOM      6  C   UNL     1     -32.603  28.287   4.106  0.00  0.00    +0.025 C 
ATOM      7  C   UNL     1     -32.081  29.059   5.135  0.00  0.00    +0.168 C 
ATOM      8  C   UNL     1     -33.152  27.042   4.383  0.00  0.00    +0.073 A 
ATOM      9  C   UNL     1     -33.180  26.600   5.710  0.00  0.00    +0.151 A 
ATOM     10  C   UNL     1     -32.084  28.639   6.452  0.00  0.00    +0.171 C 
ATOM     11  C   UNL     1     -33.695  26.158   3.337  0.00  0.00    +0.204 A 
ATOM     12  C   UNL     1     -32.649  27.397   6.739  0.00  0.00    +0.077 C 
ATOM     13  C   UNL     1     -34.258  24.875   3.782  0.00  0.00    +0.107 A 
ATOM     14  C   UNL     1     -34.230  24.565   5.140  0.00  0.00    +0.154 A 
ATOM     15  C   UNL     1     -34.809  23.979   2.862  0.00  0.00    +0.144 C 
ATOM     16  C   UNL     1     -35.337  22.768   3.310  0.00  0.00    +0.050 C 
ATOM     17  C   UNL     1     -34.759  23.350   5.583  0.00  0.00    +0.074 C 
ATOM     18  C   UNL     1     -35.312  22.454   4.669  0.00  0.00    +0.136 C 
ENDROOT
BRANCH   4  19
ATOM     19  C   UNL     1     -30.922  31.052   2.526  0.00  0.00    +0.125 C 
ATOM     20  C   UNL     1     -30.336  32.264   3.257  0.00  0.00    +0.033 C 
ATOM     21  C   UNL     1     -29.814  30.057   2.178  0.00  0.00    +0.033 C 
BRANCH  19  22
ATOM     22  O   UNL     1     -31.489  31.504   1.293  0.00  0.00    -0.383 OA
ATOM     23  H   UNL     1     -31.766  30.738   0.764  0.00  0.00    +0.210 HD
ENDBRANCH  19  22
ENDBRANCH   4  19
BRANCH  10  24
ATOM     24  O   UNL     1     -31.562  29.407   7.442  0.00  0.00    -0.503 OA
ATOM     25  H   UNL     1     -31.448  29.049   8.300  0.00  0.00    +0.292 HD
ENDBRANCH  10  24
BRANCH  15  26
ATOM     26  O   UNL     1     -34.854  24.253   1.526  0.00  0.00    -0.471 OA
ATOM     27  C   UNL     1     -36.105  24.684   0.996  0.00  0.00    +0.252 C 
ENDBRANCH  15  26
BRANCH  18  28
ATOM     28  O   UNL     1     -35.822  21.275   5.122  0.00  0.00    -0.506 OA
ATOM     29  H   UNL     1     -35.272  20.517   5.180  0.00  0.00    +0.292 HD
ENDBRANCH  18  28
BRANCH  16  30
ATOM     30  C   UNL     1     -35.931  21.801   2.336  0.00  0.00    +0.058 C 
BRANCH  30  31
ATOM     31  C   UNL     1     -35.138  20.524   2.223  0.00  0.00    -0.030 C 
ATOM     32  C   UNL     1     -34.136  20.242   1.368  0.00  0.00    -0.048 C 
ATOM     33  C   UNL     1     -33.385  18.943   1.309  0.00  0.00    +0.026 C 
ATOM     34  C   UNL     1     -33.689  21.265   0.356  0.00  0.00    +0.026 C 
ENDBRANCH  30  31
ENDBRANCH  16  30
TORSDOF 7
ENDMDL
MODEL 2
REMARK VINA RESULT:      -6.8      2.877      8.377
REMARK  Name = 56949675
REMARK  7 active torsions:
REMARK  status: ('A' for Active; 'I' for Inactive)
REMARK    1  A    between atoms: C_4  and  C_19
REMARK    2  A    between atoms: C_10  and  O_24
REMARK    3  A    between atoms: C_15  and  O_26
REMARK    4  A    between atoms: C_16  and  C_30
REMARK    5  A    between atoms: C_18  and  O_28
REMARK    6  A    between atoms: C_19  and  O_22
REMARK    7  A    between atoms: C_30  and  C_31
REMARK                            x       y       z     vdW  Elec       q    Type
REMARK                         _______ _______ _______ _____ _____    ______ ____
ROOT
ATOM      1  O   UNL     1     -37.598  24.114   3.981  0.00  0.00    -0.474 OA
ATOM      2  O   UNL     1     -32.965  26.853   5.096  0.00  0.00    -0.453 OA
ATOM      3  O   UNL     1     -35.411  28.272   2.139  0.00  0.00    -0.286 OA
ATOM      4  C   UNL     1     -37.986  24.718   2.723  0.00  0.00    +0.195 C 
ATOM      5  C   UNL     1     -37.280  26.075   2.592  0.00  0.00    +0.076 C 
ATOM      6  C   UNL     1     -36.155  25.866   3.534  0.00  0.00    +0.025 C 
ATOM      7  C   UNL     1     -36.421  24.741   4.303  0.00  0.00    +0.168 C 
ATOM      8  C   UNL     1     -35.009  26.613   3.771  0.00  0.00    +0.073 A 
ATOM      9  C   UNL     1     -34.132  26.197   4.779  0.00  0.00    +0.151 A 
ATOM     10  C   UNL     1     -35.579  24.318   5.314  0.00  0.00    +0.171 C 
ATOM     11  C   UNL     1     -34.681  27.833   3.014  0.00  0.00    +0.204 A 
ATOM     12  C   UNL     1     -34.417  25.053   5.546  0.00  0.00    +0.077 C 
ATOM     13  C   UNL     1     -33.424  28.511   3.366  0.00  0.00    +0.107 A 
ATOM     14  C   UNL     1     -32.638  27.981   4.387  0.00  0.00    +0.154 A 
ATOM     15  C   UNL     1     -33.023  29.668   2.691  0.00  0.00    +0.144 C 
ATOM     16  C   UNL     1     -31.826  30.292   3.044  0.00  0.00    +0.050 C 
ATOM     17  C   UNL     1     -31.441  28.611   4.737  0.00  0.00    +0.074 C 
ATOM     18  C   UNL     1     -31.037  29.764   4.066  0.00  0.00    +0.136 C 
ENDROOT
BRANCH   4  19
ATOM     19  C   UNL     1     -39.500  24.841   2.680  0.00  0.00    +0.125 C 
ATOM     20  C   UNL     1     -39.931  26.099   1.922  0.00  0.00    +0.033 C 
ATOM     21  C   UNL     1     -40.130  23.599   2.046  0.00  0.00    +0.033 C 
BRANCH  19  22
ATOM     22  O   UNL     1     -39.995  24.932   4.018  0.00  0.00    -0.383 OA
ATOM     23  H   UNL     1     -39.786  24.113   4.497  0.00  0.00    +0.210 HD
ENDBRANCH  19  22
ENDBRANCH   4  19
BRANCH  10  24
ATOM     24  O   UNL     1     -35.861  23.219   6.058  0.00  0.00    -0.503 OA
ATOM     25  H   UNL     1     -35.369  23.041   6.835  0.00  0.00    +0.292 HD
ENDBRANCH  10  24
BRANCH  15  26
ATOM     26  O   UNL     1     -33.768  30.211   1.686  0.00  0.00    -0.471 OA
ATOM     27  C   UNL     1     -33.342  29.947   0.351  0.00  0.00    +0.252 C 
ENDBRANCH  15  26
BRANCH  18  28
ATOM     28  O   UNL     1     -29.866  30.363   4.423  0.00  0.00    -0.506 OA
ATOM     29  H   UNL     1     -29.819  30.870   5.210  0.00  0.00    +0.292 HD
ENDBRANCH  18  28
BRANCH  16  30
ATOM     30  C   UNL     1     -31.385  31.529   2.329  0.00  0.00    +0.058 C 
BRANCH  30  31
ATOM     31  C   UNL     1     -32.155  32.754   2.752  0.00  0.00    -0.030 C 
ATOM     32  C   UNL     1     -32.658  33.729   1.970  0.00  0.00    -0.048 C 
ATOM     33  C   UNL     1     -33.419  34.928   2.459  0.00  0.00    +0.026 C 
ATOM     34  C   UNL     1     -32.469  33.680   0.476  0.00  0.00    +0.026 C 
ENDBRANCH  30  31
ENDBRANCH  16  30
TORSDOF 7
ENDMDL
MODEL 3
REMARK VINA RESULT:      -6.7      1.978      8.194
REMARK  Name = 56949675
REMARK  7 active torsions:
REMARK  status: ('A' for Active; 'I' for Inactive)
REMARK    1  A    between atoms: C_4  and  C_19
REMARK    2  A    between atoms: C_10  and  O_24
REMARK    3  A    between atoms: C_15  and  O_26
REMARK    4  A    between atoms: C_16  and  C_30
REMARK    5  A    between atoms: C_18  and  O_28
REMARK    6  A    between atoms: C_19  and  O_22
REMARK    7  A    between atoms: C_30  and  C_31
REMARK                            x       y       z     vdW  Elec       q    Type
REMARK                         _______ _______ _______ _____ _____    ______ ____
ROOT
ATOM      1  O   UNL     1     -35.983  20.627   3.116  0.00  0.00    -0.474 OA
ATOM      2  O   UNL     1     -33.944  25.119   5.538  0.00  0.00    -0.453 OA
ATOM      3  O   UNL     1     -34.578  25.196   1.497  0.00  0.00    -0.286 OA
ATOM      4  C   UNL     1     -35.755  20.933   1.718  0.00  0.00    +0.195 C 
ATOM      5  C   UNL     1     -35.569  22.450   1.572  0.00  0.00    +0.076 C 
ATOM      6  C   UNL     1     -35.180  22.792   2.961  0.00  0.00    +0.025 C 
ATOM      7  C   UNL     1     -35.465  21.708   3.783  0.00  0.00    +0.168 C 
ATOM      8  C   UNL     1     -34.675  23.963   3.509  0.00  0.00    +0.073 A 
ATOM      9  C   UNL     1     -34.448  24.017   4.888  0.00  0.00    +0.151 A 
ATOM     10  C   UNL     1     -35.263  21.741   5.150  0.00  0.00    +0.171 C 
ATOM     11  C   UNL     1     -34.380  25.159   2.702  0.00  0.00    +0.204 A 
ATOM     12  C   UNL     1     -34.740  22.909   5.704  0.00  0.00    +0.077 C 
ATOM     13  C   UNL     1     -33.834  26.322   3.418  0.00  0.00    +0.107 A 
ATOM     14  C   UNL     1     -33.648  26.235   4.796  0.00  0.00    +0.154 A 
ATOM     15  C   UNL     1     -33.509  27.495   2.732  0.00  0.00    +0.144 C 
ATOM     16  C   UNL     1     -32.993  28.585   3.435  0.00  0.00    +0.050 C 
ATOM     17  C   UNL     1     -33.131  27.328   5.495  0.00  0.00    +0.074 C 
ATOM     18  C   UNL     1     -32.805  28.501   4.814  0.00  0.00    +0.136 C 
ENDROOT
BRANCH   4  19
ATOM     19  C   UNL     1     -36.923  20.407   0.901  0.00  0.00    +0.125 C 
ATOM     20  C   UNL     1     -38.233  21.087   1.306  0.00  0.00    +0.033 C 
ATOM     21  C   UNL     1     -36.670  20.595  -0.596  0.00  0.00    +0.033 C 
BRANCH  19  22
ATOM     22  O   UNL     1     -37.056  19.002   1.135  0.00  0.00    -0.383 OA
ATOM     23  H   UNL     1     -36.637  18.774   1.981  0.00  0.00    +0.210 HD
ENDBRANCH  19  22
ENDBRANCH   4  19
BRANCH  10  24
ATOM     24  O   UNL     1     -35.555  20.674   5.935  0.00  0.00    -0.503 OA
ATOM     25  H   UNL     1     -35.735  19.841   5.546  0.00  0.00    +0.292 HD
ENDBRANCH  10  24
BRANCH  15  26
ATOM     26  O   UNL     1     -33.678  27.613   1.383  0.00  0.00    -0.471 OA
ATOM     27  C   UNL     1     -32.516  27.461   0.571  0.00  0.00    +0.252 C 
ENDBRANCH  15  26
BRANCH  18  28
ATOM     28  O   UNL     1     -32.303  29.556   5.515  0.00  0.00    -0.506 OA
ATOM     29  H   UNL     1     -31.829  30.232   5.071  0.00  0.00    +0.292 HD
ENDBRANCH  18  28
BRANCH  16  30
ATOM     30  C   UNL     1     -32.640  29.845   2.713  0.00  0.00    +0.058 C 
BRANCH  30  31
ATOM     31  C   UNL     1     -33.799  30.805   2.613  0.00  0.00    -0.030 C 
ATOM     32  C   UNL     1     -34.337  31.344   1.502  0.00  0.00    -0.048 C 
ATOM     33  C   UNL     1     -35.496  32.298   1.474  0.00  0.00    +0.026 C 
ATOM     34  C   UNL     1     -33.773  31.013   0.145  0.00  0.00    +0.026 C 
ENDBRANCH  30  31
ENDBRANCH  16  30
TORSDOF 7
ENDMDL
MODEL 4
REMARK VINA RESULT:      -6.7      6.552     10.332
REMARK  Name = 56949675
REMARK  7 active torsions:
REMARK  status: ('A' for Active; 'I' for Inactive)
REMARK    1  A    between atoms: C_4  and  C_19
REMARK    2  A    between atoms: C_10  and  O_24
REMARK    3  A    between atoms: C_15  and  O_26
REMARK    4  A    between atoms: C_16  and  C_30
REMARK    5  A    between atoms: C_18  and  O_28
REMARK    6  A    between atoms: C_19  and  O_22
REMARK    7  A    between atoms: C_30  and  C_31
REMARK                            x       y       z     vdW  Elec       q    Type
REMARK                         _______ _______ _______ _____ _____    ______ ____
ROOT
ATOM      1  O   UNL     1     -36.320  19.154   0.784  0.00  0.00    -0.474 OA
ATOM      2  O   UNL     1     -38.143  23.718   3.244  0.00  0.00    -0.453 OA
ATOM      3  O   UNL     1     -40.343  22.138   0.178  0.00  0.00    -0.286 OA
ATOM      4  C   UNL     1     -37.160  19.116  -0.395  0.00  0.00    +0.195 C 
ATOM      5  C   UNL     1     -38.402  19.981  -0.141  0.00  0.00    +0.076 C 
ATOM      6  C   UNL     1     -37.888  20.847   0.946  0.00  0.00    +0.025 C 
ATOM      7  C   UNL     1     -36.709  20.298   1.434  0.00  0.00    +0.168 C 
ATOM      8  C   UNL     1     -38.412  21.992   1.530  0.00  0.00    +0.073 A 
ATOM      9  C   UNL     1     -37.722  22.580   2.595  0.00  0.00    +0.151 A 
ATOM     10  C   UNL     1     -36.016  20.851   2.494  0.00  0.00    +0.171 C 
ATOM     11  C   UNL     1     -39.673  22.610   1.084  0.00  0.00    +0.204 A 
ATOM     12  C   UNL     1     -36.529  22.011   3.074  0.00  0.00    +0.077 C 
ATOM     13  C   UNL     1     -40.096  23.831   1.787  0.00  0.00    +0.107 A 
ATOM     14  C   UNL     1     -39.306  24.314   2.827  0.00  0.00    +0.154 A 
ATOM     15  C   UNL     1     -41.271  24.494   1.422  0.00  0.00    +0.144 C 
ATOM     16  C   UNL     1     -41.651  25.650   2.105  0.00  0.00    +0.050 C 
ATOM     17  C   UNL     1     -39.691  25.471   3.508  0.00  0.00    +0.074 C 
ATOM     18  C   UNL     1     -40.862  26.138   3.147  0.00  0.00    +0.136 C 
ENDROOT
BRANCH   4  19
ATOM     19  C   UNL     1     -37.509  17.670  -0.706  0.00  0.00    +0.125 C 
ATOM     20  C   UNL     1     -38.934  17.550  -1.254  0.00  0.00    +0.033 C 
ATOM     21  C   UNL     1     -36.510  17.067  -1.695  0.00  0.00    +0.033 C 
BRANCH  19  22
ATOM     22  O   UNL     1     -37.427  16.904   0.499  0.00  0.00    -0.383 OA
ATOM     23  H   UNL     1     -38.147  17.164   1.097  0.00  0.00    +0.210 HD
ENDBRANCH  19  22
ENDBRANCH   4  19
BRANCH  10  24
ATOM     24  O   UNL     1     -34.870  20.294   2.960  0.00  0.00    -0.503 OA
ATOM     25  H   UNL     1     -34.120  20.832   3.119  0.00  0.00    +0.292 HD
ENDBRANCH  10  24
BRANCH  15  26
ATOM     26  O   UNL     1     -42.066  24.048   0.407  0.00  0.00    -0.471 OA
ATOM     27  C   UNL     1     -41.944  24.712  -0.849  0.00  0.00    +0.252 C 
ENDBRANCH  15  26
BRANCH  18  28
ATOM     28  O   UNL     1     -41.219  27.264   3.825  0.00  0.00    -0.506 OA
ATOM     29  H   UNL     1     -41.715  27.198   4.617  0.00  0.00    +0.292 HD
ENDBRANCH  18  28
BRANCH  16  30
ATOM     30  C   UNL     1     -42.904  26.370   1.723  0.00  0.00    +0.058 C 
BRANCH  30  31
ATOM     31  C   UNL     1     -44.151  25.648   2.166  0.00  0.00    -0.030 C 
ATOM     32  C   UNL     1     -44.933  25.918   3.230  0.00  0.00    -0.048 C 
ATOM     33  C   UNL     1     -46.167  25.154   3.615  0.00  0.00    +0.026 C 
ATOM     34  C   UNL     1     -44.595  27.059   4.153  0.00  0.00    +0.026 C 
ENDBRANCH  30  31
ENDBRANCH  16  30
TORSDOF 7
ENDMDL
MODEL 5
REMARK VINA RESULT:      -6.7      6.609      9.346
REMARK  Name = 56949675
REMARK  7 active torsions:
REMARK  status: ('A' for Active; 'I' for Inactive)
REMARK    1  A    between atoms: C_4  and  C_19
REMARK    2  A    between atoms: C_10  and  O_24
REMARK    3  A    between atoms: C_15  and  O_26
REMARK    4  A    between atoms: C_16  and  C_30
REMARK    5  A    between atoms: C_18  and  O_28
REMARK    6  A    between atoms: C_19  and  O_22
REMARK    7  A    between atoms: C_30  and  C_31
REMARK                            x       y       z     vdW  Elec       q    Type
REMARK                         _______ _______ _______ _____ _____    ______ ____
ROOT
ATOM      1  O   UNL     1     -44.555  28.146   2.892  0.00  0.00    -0.474 OA
ATOM      2  O   UNL     1     -41.580  23.938   0.980  0.00  0.00    -0.453 OA
ATOM      3  O   UNL     1     -39.835  26.520   3.632  0.00  0.00    -0.286 OA
ATOM      4  C   UNL     1     -43.526  28.961   3.505  0.00  0.00    +0.195 C 
ATOM      5  C   UNL     1     -42.299  28.081   3.776  0.00  0.00    +0.076 C 
ATOM      6  C   UNL     1     -42.554  26.987   2.809  0.00  0.00    +0.025 C 
ATOM      7  C   UNL     1     -43.867  27.082   2.365  0.00  0.00    +0.168 C 
ATOM      8  C   UNL     1     -41.750  25.941   2.376  0.00  0.00    +0.073 A 
ATOM      9  C   UNL     1     -42.284  25.008   1.481  0.00  0.00    +0.151 A 
ATOM     10  C   UNL     1     -44.423  26.166   1.492  0.00  0.00    +0.171 C 
ATOM     11  C   UNL     1     -40.360  25.762   2.830  0.00  0.00    +0.204 A 
ATOM     12  C   UNL     1     -43.615  25.122   1.041  0.00  0.00    +0.077 C 
ATOM     13  C   UNL     1     -39.626  24.616   2.274  0.00  0.00    +0.107 A 
ATOM     14  C   UNL     1     -40.279  23.770   1.381  0.00  0.00    +0.154 A 
ATOM     15  C   UNL     1     -38.297  24.376   2.635  0.00  0.00    +0.144 C 
ATOM     16  C   UNL     1     -37.622  23.281   2.093  0.00  0.00    +0.050 C 
ATOM     17  C   UNL     1     -39.599  22.674   0.842  0.00  0.00    +0.074 C 
ATOM     18  C   UNL     1     -38.272  22.432   1.198  0.00  0.00    +0.136 C 
ENDROOT
BRANCH   4  19
ATOM     19  C   UNL     1     -44.085  29.590   4.771  0.00  0.00    +0.125 C 
ATOM     20  C   UNL     1     -44.871  30.866   4.454  0.00  0.00    +0.033 C 
ATOM     21  C   UNL     1     -44.969  28.599   5.529  0.00  0.00    +0.033 C 
BRANCH  19  22
ATOM     22  O   UNL     1     -42.999  29.936   5.634  0.00  0.00    -0.383 OA
ATOM     23  H   UNL     1     -42.814  30.886   5.557  0.00  0.00    +0.210 HD
ENDBRANCH  19  22
ENDBRANCH   4  19
BRANCH  10  24
ATOM     24  O   UNL     1     -45.710  26.273   1.076  0.00  0.00    -0.503 OA
ATOM     25  H   UNL     1     -46.061  25.647   0.475  0.00  0.00    +0.292 HD
ENDBRANCH  10  24
BRANCH  15  26
ATOM     26  O   UNL     1     -37.628  25.186   3.506  0.00  0.00    -0.471 OA
ATOM     27  C   UNL     1     -36.720  26.129   2.943  0.00  0.00    +0.252 C 
ENDBRANCH  15  26
BRANCH  18  28
ATOM     28  O   UNL     1     -37.628  21.358   0.661  0.00  0.00    -0.506 OA
ATOM     29  H   UNL     1     -37.377  21.364  -0.242  0.00  0.00    +0.292 HD
ENDBRANCH  18  28
BRANCH  16  30
ATOM     30  C   UNL     1     -36.200  23.014   2.470  0.00  0.00    +0.058 C 
BRANCH  30  31
ATOM     31  C   UNL     1     -36.070  22.302   3.792  0.00  0.00    -0.030 C 
ATOM     32  C   UNL     1     -35.348  22.672   4.868  0.00  0.00    -0.048 C 
ATOM     33  C   UNL     1     -35.263  21.912   6.160  0.00  0.00    +0.026 C 
ATOM     34  C   UNL     1     -34.528  23.936   4.835  0.00  0.00    +0.026 C 
ENDBRANCH  30  31
ENDBRANCH  16  30
TORSDOF 7
ENDMDL
MODEL 6
REMARK VINA RESULT:      -6.6      2.726      8.070
REMARK  Name = 56949675
REMARK  7 active torsions:
REMARK  status: ('A' for Active; 'I' for Inactive)
REMARK    1  A    between atoms: C_4  and  C_19
REMARK    2  A    between atoms: C_10  and  O_24
REMARK    3  A    between atoms: C_15  and  O_26
REMARK    4  A    between atoms: C_16  and  C_30
REMARK    5  A    between atoms: C_18  and  O_28
REMARK    6  A    between atoms: C_19  and  O_22
REMARK    7  A    between atoms: C_30  and  C_31
REMARK                            x       y       z     vdW  Elec       q    Type
REMARK                         _______ _______ _______ _____ _____    ______ ____
ROOT
ATOM      1  O   UNL     1     -37.587  23.952   3.877  0.00  0.00    -0.474 OA
ATOM      2  O   UNL     1     -32.995  26.558   5.402  0.00  0.00    -0.453 OA
ATOM      3  O   UNL     1     -35.347  28.267   2.524  0.00  0.00    -0.286 OA
ATOM      4  C   UNL     1     -37.935  24.678   2.673  0.00  0.00    +0.195 C 
ATOM      5  C   UNL     1     -37.227  26.039   2.698  0.00  0.00    +0.076 C 
ATOM      6  C   UNL     1     -36.132  25.737   3.651  0.00  0.00    +0.025 C 
ATOM      7  C   UNL     1     -36.421  24.541   4.296  0.00  0.00    +0.168 C 
ATOM      8  C   UNL     1     -34.995  26.454   3.996  0.00  0.00    +0.073 A 
ATOM      9  C   UNL     1     -34.150  25.939   4.985  0.00  0.00    +0.151 A 
ATOM     10  C   UNL     1     -35.611  24.019   5.287  0.00  0.00    +0.171 C 
ATOM     11  C   UNL     1     -34.644  27.742   3.374  0.00  0.00    +0.204 A 
ATOM     12  C   UNL     1     -34.458  24.726   5.627  0.00  0.00    +0.077 C 
ATOM     13  C   UNL     1     -33.400  28.380   3.831  0.00  0.00    +0.107 A 
ATOM     14  C   UNL     1     -32.647  27.750   4.819  0.00  0.00    +0.154 A 
ATOM     15  C   UNL     1     -32.979  29.596   3.286  0.00  0.00    +0.144 C 
ATOM     16  C   UNL     1     -31.794  30.180   3.736  0.00  0.00    +0.050 C 
ATOM     17  C   UNL     1     -31.462  28.340   5.267  0.00  0.00    +0.074 C 
ATOM     18  C   UNL     1     -31.037  29.553   4.726  0.00  0.00    +0.136 C 
ENDROOT
BRANCH   4  19
ATOM     19  C   UNL     1     -39.447  24.807   2.594  0.00  0.00    +0.125 C 
ATOM     20  C   UNL     1     -39.855  26.094   1.872  0.00  0.00    +0.033 C 
ATOM     21  C   UNL     1     -40.063  23.592   1.898  0.00  0.00    +0.033 C 
BRANCH  19  22
ATOM     22  O   UNL     1     -39.978  24.850   3.921  0.00  0.00    -0.383 OA
ATOM     23  H   UNL     1     -40.941  24.729   3.888  0.00  0.00    +0.210 HD
ENDBRANCH  19  22
ENDBRANCH   4  19
BRANCH  10  24
ATOM     24  O   UNL     1     -35.915  22.853   5.910  0.00  0.00    -0.503 OA
ATOM     25  H   UNL     1     -36.800  22.547   5.924  0.00  0.00    +0.292 HD
ENDBRANCH  10  24
BRANCH  15  26
ATOM     26  O   UNL     1     -33.692  30.237   2.316  0.00  0.00    -0.471 OA
ATOM     27  C   UNL     1     -34.496  31.341   2.727  0.00  0.00    +0.252 C 
ENDBRANCH  15  26
BRANCH  18  28
ATOM     28  O   UNL     1     -29.879  30.111   5.177  0.00  0.00    -0.506 OA
ATOM     29  H   UNL     1     -29.294  30.529   4.576  0.00  0.00    +0.292 HD
ENDBRANCH  18  28
BRANCH  16  30
ATOM     30  C   UNL     1     -31.332  31.480   3.161  0.00  0.00    +0.058 C 
BRANCH  30  31
ATOM     31  C   UNL     1     -30.435  31.303   1.963  0.00  0.00    -0.030 C 
ATOM     32  C   UNL     1     -30.614  31.777   0.714  0.00  0.00    -0.048 C 
ATOM     33  C   UNL     1     -29.675  31.562  -0.438  0.00  0.00    +0.026 C 
ATOM     34  C   UNL     1     -31.838  32.587   0.376  0.00  0.00    +0.026 C 
ENDBRANCH  30  31
ENDBRANCH  16  30
TORSDOF 7
ENDMDL
MODEL 7
REMARK VINA RESULT:      -6.5      4.937      7.929
REMARK  Name = 56949675
REMARK  7 active torsions:
REMARK  status: ('A' for Active; 'I' for Inactive)
REMARK    1  A    between atoms: C_4  and  C_19
REMARK    2  A    between atoms: C_10  and  O_24
REMARK    3  A    between atoms: C_15  and  O_26
REMARK    4  A    between atoms: C_16  and  C_30
REMARK    5  A    between atoms: C_18  and  O_28
REMARK    6  A    between atoms: C_19  and  O_22
REMARK    7  A    between atoms: C_30  and  C_31
REMARK                            x       y       z     vdW  Elec       q    Type
REMARK                         _______ _______ _______ _____ _____    ______ ____
ROOT
ATOM      1  O   UNL     1     -37.196  25.242   4.051  0.00  0.00    -0.474 OA
ATOM      2  O   UNL     1     -40.681  22.652   0.682  0.00  0.00    -0.453 OA
ATOM      3  O   UNL     1     -36.936  21.088   1.199  0.00  0.00    -0.286 OA
ATOM      4  C   UNL     1     -35.945  24.592   3.715  0.00  0.00    +0.195 C 
ATOM      5  C   UNL     1     -36.256  23.250   3.039  0.00  0.00    +0.076 C 
ATOM      6  C   UNL     1     -37.640  23.514   2.578  0.00  0.00    +0.025 C 
ATOM      7  C   UNL     1     -38.112  24.655   3.215  0.00  0.00    +0.168 C 
ATOM      8  C   UNL     1     -38.472  22.803   1.724  0.00  0.00    +0.073 A 
ATOM      9  C   UNL     1     -39.773  23.270   1.511  0.00  0.00    +0.151 A 
ATOM     10  C   UNL     1     -39.397  25.128   3.033  0.00  0.00    +0.171 C 
ATOM     11  C   UNL     1     -38.048  21.570   1.040  0.00  0.00    +0.204 A 
ATOM     12  C   UNL     1     -40.232  24.428   2.163  0.00  0.00    +0.077 C 
ATOM     13  C   UNL     1     -39.032  20.933   0.152  0.00  0.00    +0.107 A 
ATOM     14  C   UNL     1     -40.293  21.512   0.024  0.00  0.00    +0.154 A 
ATOM     15  C   UNL     1     -38.713  19.768  -0.550  0.00  0.00    +0.144 C 
ATOM     16  C   UNL     1     -39.665  19.184  -1.386  0.00  0.00    +0.050 C 
ATOM     17  C   UNL     1     -41.243  20.923  -0.813  0.00  0.00    +0.074 C 
ATOM     18  C   UNL     1     -40.929  19.761  -1.517  0.00  0.00    +0.136 C 
ENDROOT
BRANCH   4  19
ATOM     19  C   UNL     1     -35.118  24.431   4.980  0.00  0.00    +0.125 C 
ATOM     20  C   UNL     1     -35.378  25.578   5.961  0.00  0.00    +0.033 C 
ATOM     21  C   UNL     1     -35.401  23.086   5.650  0.00  0.00    +0.033 C 
BRANCH  19  22
ATOM     22  O   UNL     1     -33.731  24.447   4.630  0.00  0.00    -0.383 OA
ATOM     23  H   UNL     1     -33.195  24.312   5.428  0.00  0.00    +0.210 HD
ENDBRANCH  19  22
ENDBRANCH   4  19
BRANCH  10  24
ATOM     24  O   UNL     1     -39.840  26.241   3.671  0.00  0.00    -0.503 OA
ATOM     25  H   UNL     1     -40.623  26.666   3.381  0.00  0.00    +0.292 HD
ENDBRANCH  10  24
BRANCH  15  26
ATOM     26  O   UNL     1     -37.487  19.177  -0.448  0.00  0.00    -0.471 OA
ATOM     27  C   UNL     1     -36.571  19.403  -1.516  0.00  0.00    +0.252 C 
ENDBRANCH  15  26
BRANCH  18  28
ATOM     28  O   UNL     1     -41.870  19.202  -2.328  0.00  0.00    -0.506 OA
ATOM     29  H   UNL     1     -42.123  19.634  -3.121  0.00  0.00    +0.292 HD
ENDBRANCH  18  28
BRANCH  16  30
ATOM     30  C   UNL     1     -39.336  17.938  -2.144  0.00  0.00    +0.058 C 
BRANCH  30  31
ATOM     31  C   UNL     1     -40.029  16.718  -1.592  0.00  0.00    -0.030 C 
ATOM     32  C   UNL     1     -39.511  15.754  -0.806  0.00  0.00    -0.048 C 
ATOM     33  C   UNL     1     -40.261  14.560  -0.288  0.00  0.00    +0.026 C 
ATOM     34  C   UNL     1     -38.067  15.812  -0.382  0.00  0.00    +0.026 C 
ENDBRANCH  30  31
ENDBRANCH  16  30
TORSDOF 7
ENDMDL
MODEL 8
REMARK VINA RESULT:      -6.5      4.451      9.193
REMARK  Name = 56949675
REMARK  7 active torsions:
REMARK  status: ('A' for Active; 'I' for Inactive)
REMARK    1  A    between atoms: C_4  and  C_19
REMARK    2  A    between atoms: C_10  and  O_24
REMARK    3  A    between atoms: C_15  and  O_26
REMARK    4  A    between atoms: C_16  and  C_30
REMARK    5  A    between atoms: C_18  and  O_28
REMARK    6  A    between atoms: C_19  and  O_22
REMARK    7  A    between atoms: C_30  and  C_31
REMARK                            x       y       z     vdW  Elec       q    Type
REMARK                         _______ _______ _______ _____ _____    ______ ____
ROOT
ATOM      1  O   UNL     1     -32.705  26.580   4.133  0.00  0.00    -0.474 OA
ATOM      2  O   UNL     1     -32.446  31.931   2.911  0.00  0.00    -0.453 OA
ATOM      3  O   UNL     1     -35.916  29.912   2.120  0.00  0.00    -0.286 OA
ATOM      4  C   UNL     1     -33.911  26.189   3.431  0.00  0.00    +0.195 C 
ATOM      5  C   UNL     1     -34.750  27.445   3.160  0.00  0.00    +0.076 C 
ATOM      6  C   UNL     1     -33.694  28.481   3.260  0.00  0.00    +0.025 C 
ATOM      7  C   UNL     1     -32.567  27.913   3.842  0.00  0.00    +0.168 C 
ATOM      8  C   UNL     1     -33.701  29.831   2.938  0.00  0.00    +0.073 A 
ATOM      9  C   UNL     1     -32.555  30.590   3.194  0.00  0.00    +0.151 A 
ATOM     10  C   UNL     1     -31.428  28.644   4.119  0.00  0.00    +0.171 C 
ATOM     11  C   UNL     1     -34.871  30.504   2.347  0.00  0.00    +0.204 A 
ATOM     12  C   UNL     1     -31.423  29.997   3.782  0.00  0.00    +0.077 C 
ATOM     13  C   UNL     1     -34.727  31.936   2.044  0.00  0.00    +0.107 A 
ATOM     14  C   UNL     1     -33.522  32.567   2.344  0.00  0.00    +0.154 A 
ATOM     15  C   UNL     1     -35.780  32.653   1.469  0.00  0.00    +0.144 C 
ATOM     16  C   UNL     1     -35.618  34.011   1.191  0.00  0.00    +0.050 C 
ATOM     17  C   UNL     1     -33.366  33.927   2.065  0.00  0.00    +0.074 C 
ATOM     18  C   UNL     1     -34.412  34.647   1.490  0.00  0.00    +0.136 C 
ENDROOT
BRANCH   4  19
ATOM     19  C   UNL     1     -34.655  25.158   4.263  0.00  0.00    +0.125 C 
ATOM     20  C   UNL     1     -35.549  25.832   5.307  0.00  0.00    +0.033 C 
ATOM     21  C   UNL     1     -35.486  24.233   3.372  0.00  0.00    +0.033 C 
BRANCH  19  22
ATOM     22  O   UNL     1     -33.702  24.342   4.949  0.00  0.00    -0.383 OA
ATOM     23  H   UNL     1     -32.921  24.874   5.173  0.00  0.00    +0.210 HD
ENDBRANCH  19  22
ENDBRANCH   4  19
BRANCH  10  24
ATOM     24  O   UNL     1     -30.340  28.072   4.695  0.00  0.00    -0.503 OA
ATOM     25  H   UNL     1     -29.482  28.279   4.383  0.00  0.00    +0.292 HD
ENDBRANCH  10  24
BRANCH  15  26
ATOM     26  O   UNL     1     -36.971  32.064   1.162  0.00  0.00    -0.471 OA
ATOM     27  C   UNL     1     -37.179  31.699  -0.200  0.00  0.00    +0.252 C 
ENDBRANCH  15  26
BRANCH  18  28
ATOM     28  O   UNL     1     -34.239  35.973   1.226  0.00  0.00    -0.506 OA
ATOM     29  H   UNL     1     -33.413  36.381   1.400  0.00  0.00    +0.292 HD
ENDBRANCH  18  28
BRANCH  16  30
ATOM     30  C   UNL     1     -36.735  34.790   0.574  0.00  0.00    +0.058 C 
BRANCH  30  31
ATOM     31  C   UNL     1     -37.607  35.471   1.598  0.00  0.00    -0.030 C 
ATOM     32  C   UNL     1     -38.881  35.182   1.927  0.00  0.00    -0.048 C 
ATOM     33  C   UNL     1     -39.696  35.904   2.961  0.00  0.00    +0.026 C 
ATOM     34  C   UNL     1     -39.611  34.062   1.232  0.00  0.00    +0.026 C 
ENDBRANCH  30  31
ENDBRANCH  16  30
TORSDOF 7
ENDMDL
MODEL 9
REMARK VINA RESULT:      -6.4      2.335      8.224
REMARK  Name = 56949675
REMARK  7 active torsions:
REMARK  status: ('A' for Active; 'I' for Inactive)
REMARK    1  A    between atoms: C_4  and  C_19
REMARK    2  A    between atoms: C_10  and  O_24
REMARK    3  A    between atoms: C_15  and  O_26
REMARK    4  A    between atoms: C_16  and  C_30
REMARK    5  A    between atoms: C_18  and  O_28
REMARK    6  A    between atoms: C_19  and  O_22
REMARK    7  A    between atoms: C_30  and  C_31
REMARK                            x       y       z     vdW  Elec       q    Type
REMARK                         _______ _______ _______ _____ _____    ______ ____
ROOT
ATOM      1  O   UNL     1     -37.429  22.876   3.455  0.00  0.00    -0.474 OA
ATOM      2  O   UNL     1     -33.480  26.064   5.564  0.00  0.00    -0.453 OA
ATOM      3  O   UNL     1     -35.597  27.446   2.347  0.00  0.00    -0.286 OA
ATOM      4  C   UNL     1     -37.692  23.549   2.199  0.00  0.00    +0.195 C 
ATOM      5  C   UNL     1     -37.178  24.992   2.297  0.00  0.00    +0.076 C 
ATOM      6  C   UNL     1     -36.201  24.836   3.401  0.00  0.00    +0.025 C 
ATOM      7  C   UNL     1     -36.422  23.614   4.023  0.00  0.00    +0.168 C 
ATOM      8  C   UNL     1     -35.227  25.696   3.890  0.00  0.00    +0.073 A 
ATOM      9  C   UNL     1     -34.473  25.298   4.999  0.00  0.00    +0.151 A 
ATOM     10  C   UNL     1     -35.701  23.203   5.129  0.00  0.00    +0.171 C 
ATOM     11  C   UNL     1     -34.961  27.019   3.299  0.00  0.00    +0.204 A 
ATOM     12  C   UNL     1     -34.710  24.056   5.614  0.00  0.00    +0.077 C 
ATOM     13  C   UNL     1     -33.888  27.815   3.914  0.00  0.00    +0.107 A 
ATOM     14  C   UNL     1     -33.209  27.291   5.012  0.00  0.00    +0.154 A 
ATOM     15  C   UNL     1     -33.555  29.075   3.411  0.00  0.00    +0.144 C 
ATOM     16  C   UNL     1     -32.533  29.810   4.013  0.00  0.00    +0.050 C 
ATOM     17  C   UNL     1     -32.187  28.031   5.612  0.00  0.00    +0.074 C 
ATOM     18  C   UNL     1     -31.850  29.288   5.112  0.00  0.00    +0.136 C 
ENDROOT
BRANCH   4  19
ATOM     19  C   UNL     1     -39.181  23.479   1.904  0.00  0.00    +0.125 C 
ATOM     20  C   UNL     1     -39.957  24.510   2.727  0.00  0.00    +0.033 C 
ATOM     21  C   UNL     1     -39.453  23.680   0.412  0.00  0.00    +0.033 C 
BRANCH  19  22
ATOM     22  O   UNL     1     -39.661  22.177   2.250  0.00  0.00    -0.383 OA
ATOM     23  H   UNL     1     -40.617  22.218   2.417  0.00  0.00    +0.210 HD
ENDBRANCH  19  22
ENDBRANCH   4  19
BRANCH  10  24
ATOM     24  O   UNL     1     -35.938  22.008   5.726  0.00  0.00    -0.503 OA
ATOM     25  H   UNL     1     -36.723  21.537   5.533  0.00  0.00    +0.292 HD
ENDBRANCH  10  24
BRANCH  15  26
ATOM     26  O   UNL     1     -34.199  29.616   2.337  0.00  0.00    -0.471 OA
ATOM     27  C   UNL     1     -35.188  30.607   2.608  0.00  0.00    +0.252 C 
ENDBRANCH  15  26
BRANCH  18  28
ATOM     28  O   UNL     1     -30.851  29.994   5.712  0.00  0.00    -0.506 OA
ATOM     29  H   UNL     1     -30.495  30.753   5.292  0.00  0.00    +0.292 HD
ENDBRANCH  18  28
BRANCH  16  30
ATOM     30  C   UNL     1     -32.166  31.159   3.483  0.00  0.00    +0.058 C 
BRANCH  30  31
ATOM     31  C   UNL     1     -31.025  31.110   2.499  0.00  0.00    -0.030 C 
ATOM     32  C   UNL     1     -29.834  31.736   2.576  0.00  0.00    -0.048 C 
ATOM     33  C   UNL     1     -28.737  31.642   1.555  0.00  0.00    +0.026 C 
ATOM     34  C   UNL     1     -29.516  32.624   3.750  0.00  0.00    +0.026 C 
ENDBRANCH  30  31
ENDBRANCH  16  30
TORSDOF 7
ENDMDL
