MODEL 1
REMARK VINA RESULT:      -6.1      0.000      0.000
REMARK  Name = 5280891
REMARK  15 active torsions:
REMARK  status: ('A' for Active; 'I' for Inactive)
REMARK    1  A    between atoms: C_3  and  C_20
REMARK    2  A    between atoms: C_4  and  O_8
REMARK    3  A    between atoms: C_5  and  C_10
REMARK    4  A    between atoms: C_11  and  C_12
REMARK    5  A    between atoms: C_12  and  O_13
REMARK    6  A    between atoms: C_12  and  C_15
REMARK    7  A    between atoms: C_15  and  C_16
REMARK    8  A    between atoms: C_16  and  C_17
REMARK    9  A    between atoms: C_17  and  C_18
REMARK   10  A    between atoms: C_20  and  C_21
REMARK   11  A    between atoms: C_22  and  C_23
REMARK   12  A    between atoms: C_23  and  C_24
REMARK   13  A    between atoms: C_24  and  C_25
REMARK   14  A    between atoms: C_25  and  C_27
REMARK   15  A    between atoms: C_27  and  O_28
REMARK                            x       y       z     vdW  Elec       q    Type
REMARK                         _______ _______ _______ _____ _____    ______ ____
ROOT
ATOM      1  O   UNL     1     -38.944  21.844   1.963  0.00  0.00    -0.448 OA
ATOM      2  O   UNL     1     -40.624  20.978   0.744  0.00  0.00    -0.250 OA
ATOM      3  C   UNL     1     -36.572  21.585   1.277  0.00  0.00    +0.076 C 
ATOM      4  C   UNL     1     -37.030  20.375   0.462  0.00  0.00    +0.126 C 
ATOM      5  C   UNL     1     -37.568  21.814   2.421  0.00  0.00    +0.193 C 
ATOM      6  C   UNL     1     -38.419  20.625  -0.091  0.00  0.00    +0.139 C 
ATOM      7  C   UNL     1     -39.417  21.126   0.919  0.00  0.00    +0.320 C 
ENDROOT
BRANCH   4   8
ATOM      8  O   UNL     1     -37.069  19.188   1.253  0.00  0.00    -0.384 OA
ATOM      9  H   UNL     1     -37.386  18.449   0.711  0.00  0.00    +0.210 HD
ENDBRANCH   4   8
BRANCH   5  10
ATOM     10  C   UNL     1     -37.343  23.100   3.156  0.00  0.00    +0.015 C 
ATOM     11  C   UNL     1     -37.332  24.304   2.567  0.00  0.00    +0.001 C 
BRANCH  11  12
ATOM     12  C   UNL     1     -37.105  25.592   3.308  0.00  0.00    +0.132 C 
BRANCH  12  13
ATOM     13  O   UNL     1     -38.343  26.302   3.369  0.00  0.00    -0.380 OA
ATOM     14  H   UNL     1     -38.997  25.772   3.851  0.00  0.00    +0.211 HD
ENDBRANCH  12  13
BRANCH  12  15
ATOM     15  C   UNL     1     -36.628  25.374   4.752  0.00  0.00    +0.034 C 
BRANCH  15  16
ATOM     16  C   UNL     1     -35.103  25.378   4.890  0.00  0.00    +0.003 C 
BRANCH  16  17
ATOM     17  C   UNL     1     -34.511  23.984   5.129  0.00  0.00    +0.000 C 
BRANCH  17  18
ATOM     18  C   UNL     1     -35.383  23.097   6.019  0.00  0.00    +0.000 C 
ATOM     19  C   UNL     1     -34.994  21.632   5.891  0.00  0.00    +0.000 C 
ENDBRANCH  17  18
ENDBRANCH  16  17
ENDBRANCH  15  16
ENDBRANCH  12  15
ENDBRANCH  11  12
ENDBRANCH   5  10
BRANCH   3  20
ATOM     20  C   UNL     1     -35.135  21.401   1.781  0.00  0.00    +0.032 C 
BRANCH  20  21
ATOM     21  C   UNL     1     -34.076  21.221   0.734  0.00  0.00    -0.030 C 
ATOM     22  C   UNL     1     -33.263  20.166   0.569  0.00  0.00    -0.031 C 
BRANCH  22  23
ATOM     23  C   UNL     1     -33.289  18.951   1.449  0.00  0.00    +0.026 C 
BRANCH  23  24
ATOM     24  C   UNL     1     -32.087  18.017   1.247  0.00  0.00    +0.016 C 
BRANCH  24  25
ATOM     25  C   UNL     1     -32.103  17.262  -0.085  0.00  0.00    +0.110 C 
BRANCH  25  27
ATOM     26  O   UNL     1     -34.105  15.886  -0.250  0.00  0.00    -0.250 OA
ATOM     27  C   UNL     1     -32.902  15.977  -0.049  0.00  0.00    +0.314 C 
BRANCH  27  28
ATOM     28  O   UNL     1     -32.125  14.912   0.282  0.00  0.00    -0.480 OA
ATOM     29  H   UNL     1     -31.215  14.910   0.059  0.00  0.00    +0.295 HD
ENDBRANCH  27  28
ENDBRANCH  25  27
ENDBRANCH  24  25
ENDBRANCH  23  24
ENDBRANCH  22  23
ENDBRANCH  20  21
ENDBRANCH   3  20
TORSDOF 15
ENDMDL
MODEL 2
REMARK VINA RESULT:      -6.0      3.738      8.087
REMARK  Name = 5280891
REMARK  15 active torsions:
REMARK  status: ('A' for Active; 'I' for Inactive)
REMARK    1  A    between atoms: C_3  and  C_20
REMARK    2  A    between atoms: C_4  and  O_8
REMARK    3  A    between atoms: C_5  and  C_10
REMARK    4  A    between atoms: C_11  and  C_12
REMARK    5  A    between atoms: C_12  and  O_13
REMARK    6  A    between atoms: C_12  and  C_15
REMARK    7  A    between atoms: C_15  and  C_16
REMARK    8  A    between atoms: C_16  and  C_17
REMARK    9  A    between atoms: C_17  and  C_18
REMARK   10  A    between atoms: C_20  and  C_21
REMARK   11  A    between atoms: C_22  and  C_23
REMARK   12  A    between atoms: C_23  and  C_24
REMARK   13  A    between atoms: C_24  and  C_25
REMARK   14  A    between atoms: C_25  and  C_27
REMARK   15  A    between atoms: C_27  and  O_28
REMARK                            x       y       z     vdW  Elec       q    Type
REMARK                         _______ _______ _______ _____ _____    ______ ____
ROOT
ATOM      1  O   UNL     1     -33.661  26.275   5.630  0.00  0.00    -0.448 OA
ATOM      2  O   UNL     1     -31.899  27.672   5.631  0.00  0.00    -0.250 OA
ATOM      3  C   UNL     1     -35.040  25.921   3.596  0.00  0.00    +0.076 C 
ATOM      4  C   UNL     1     -34.518  27.275   3.113  0.00  0.00    +0.126 C 
ATOM      5  C   UNL     1     -34.964  25.883   5.128  0.00  0.00    +0.193 C 
ATOM      6  C   UNL     1     -33.086  27.468   3.574  0.00  0.00    +0.139 C 
ATOM      7  C   UNL     1     -32.854  27.180   5.034  0.00  0.00    +0.320 C 
ENDROOT
BRANCH   4   8
ATOM      8  O   UNL     1     -35.301  28.355   3.615  0.00  0.00    -0.384 OA
ATOM      9  H   UNL     1     -34.972  28.612   4.491  0.00  0.00    +0.210 HD
ENDBRANCH   4   8
BRANCH   5  10
ATOM     10  C   UNL     1     -35.246  24.529   5.703  0.00  0.00    +0.015 C 
ATOM     11  C   UNL     1     -34.702  23.394   5.240  0.00  0.00    +0.001 C 
BRANCH  11  12
ATOM     12  C   UNL     1     -34.989  22.037   5.819  0.00  0.00    +0.132 C 
BRANCH  12  13
ATOM     13  O   UNL     1     -36.232  22.099   6.519  0.00  0.00    -0.380 OA
ATOM     14  H   UNL     1     -36.113  21.759   7.420  0.00  0.00    +0.211 HD
ENDBRANCH  12  13
BRANCH  12  15
ATOM     15  C   UNL     1     -35.118  20.945   4.747  0.00  0.00    +0.034 C 
BRANCH  15  16
ATOM     16  C   UNL     1     -35.342  21.506   3.340  0.00  0.00    +0.003 C 
BRANCH  16  17
ATOM     17  C   UNL     1     -35.486  20.417   2.269  0.00  0.00    +0.000 C 
BRANCH  17  18
ATOM     18  C   UNL     1     -34.316  20.373   1.285  0.00  0.00    +0.000 C 
ATOM     19  C   UNL     1     -33.538  19.072   1.408  0.00  0.00    +0.000 C 
ENDBRANCH  17  18
ENDBRANCH  16  17
ENDBRANCH  15  16
ENDBRANCH  12  15
ENDBRANCH  11  12
ENDBRANCH   5  10
BRANCH   3  20
ATOM     20  C   UNL     1     -36.457  25.657   3.074  0.00  0.00    +0.032 C 
BRANCH  20  21
ATOM     21  C   UNL     1     -36.564  25.008   1.725  0.00  0.00    -0.030 C 
ATOM     22  C   UNL     1     -37.331  23.963   1.380  0.00  0.00    -0.031 C 
BRANCH  22  23
ATOM     23  C   UNL     1     -38.241  23.249   2.336  0.00  0.00    +0.026 C 
BRANCH  23  24
ATOM     24  C   UNL     1     -39.686  23.768   2.316  0.00  0.00    +0.016 C 
BRANCH  24  25
ATOM     25  C   UNL     1     -40.000  24.778   3.424  0.00  0.00    +0.110 C 
BRANCH  25  27
ATOM     26  O   UNL     1     -39.797  26.628   1.853  0.00  0.00    -0.250 OA
ATOM     27  C   UNL     1     -40.202  26.192   2.921  0.00  0.00    +0.314 C 
BRANCH  27  28
ATOM     28  O   UNL     1     -40.864  26.957   3.829  0.00  0.00    -0.480 OA
ATOM     29  H   UNL     1     -40.630  26.916   4.735  0.00  0.00    +0.295 HD
ENDBRANCH  27  28
ENDBRANCH  25  27
ENDBRANCH  24  25
ENDBRANCH  23  24
ENDBRANCH  22  23
ENDBRANCH  20  21
ENDBRANCH   3  20
TORSDOF 15
ENDMDL
MODEL 3
REMARK VINA RESULT:      -5.7      3.126      7.307
REMARK  Name = 5280891
REMARK  15 active torsions:
REMARK  status: ('A' for Active; 'I' for Inactive)
REMARK    1  A    between atoms: C_3  and  C_20
REMARK    2  A    between atoms: C_4  and  O_8
REMARK    3  A    between atoms: C_5  and  C_10
REMARK    4  A    between atoms: C_11  and  C_12
REMARK    5  A    between atoms: C_12  and  O_13
REMARK    6  A    between atoms: C_12  and  C_15
REMARK    7  A    between atoms: C_15  and  C_16
REMARK    8  A    between atoms: C_16  and  C_17
REMARK    9  A    between atoms: C_17  and  C_18
REMARK   10  A    between atoms: C_20  and  C_21
REMARK   11  A    between atoms: C_22  and  C_23
REMARK   12  A    between atoms: C_23  and  C_24
REMARK   13  A    between atoms: C_24  and  C_25
REMARK   14  A    between atoms: C_25  and  C_27
REMARK   15  A    between atoms: C_27  and  O_28
REMARK                            x       y       z     vdW  Elec       q    Type
REMARK                         _______ _______ _______ _____ _____    ______ ____
ROOT
ATOM      1  O   UNL     1     -33.333  26.487   5.646  0.00  0.00    -0.448 OA
ATOM      2  O   UNL     1     -32.235  28.318   6.351  0.00  0.00    -0.250 OA
ATOM      3  C   UNL     1     -33.953  26.179   3.261  0.00  0.00    +0.076 C 
ATOM      4  C   UNL     1     -33.841  27.698   3.126  0.00  0.00    +0.126 C 
ATOM      5  C   UNL     1     -34.248  25.836   4.728  0.00  0.00    +0.193 C 
ATOM      6  C   UNL     1     -32.730  28.212   4.021  0.00  0.00    +0.139 C 
ATOM      7  C   UNL     1     -32.777  27.701   5.436  0.00  0.00    +0.320 C 
ENDROOT
BRANCH   4   8
ATOM      8  O   UNL     1     -35.052  28.354   3.493  0.00  0.00    -0.384 OA
ATOM      9  H   UNL     1     -35.729  28.183   2.819  0.00  0.00    +0.210 HD
ENDBRANCH   4   8
BRANCH   5  10
ATOM     10  C   UNL     1     -34.166  24.369   5.022  0.00  0.00    +0.015 C 
ATOM     11  C   UNL     1     -35.169  23.659   5.558  0.00  0.00    +0.001 C 
BRANCH  11  12
ATOM     12  C   UNL     1     -35.081  22.188   5.853  0.00  0.00    +0.132 C 
BRANCH  12  13
ATOM     13  O   UNL     1     -36.228  21.813   6.618  0.00  0.00    -0.380 OA
ATOM     14  H   UNL     1     -36.852  21.331   6.051  0.00  0.00    +0.211 HD
ENDBRANCH  12  13
BRANCH  12  15
ATOM     15  C   UNL     1     -35.072  21.323   4.584  0.00  0.00    +0.034 C 
BRANCH  15  16
ATOM     16  C   UNL     1     -35.829  21.960   3.415  0.00  0.00    +0.003 C 
BRANCH  16  17
ATOM     17  C   UNL     1     -35.185  21.680   2.052  0.00  0.00    +0.000 C 
BRANCH  17  18
ATOM     18  C   UNL     1     -34.887  20.200   1.811  0.00  0.00    +0.000 C 
ATOM     19  C   UNL     1     -35.826  19.609   0.770  0.00  0.00    +0.000 C 
ENDBRANCH  17  18
ENDBRANCH  16  17
ENDBRANCH  15  16
ENDBRANCH  12  15
ENDBRANCH  11  12
ENDBRANCH   5  10
BRANCH   3  20
ATOM     20  C   UNL     1     -35.011  25.615   2.305  0.00  0.00    +0.032 C 
BRANCH  20  21
ATOM     21  C   UNL     1     -36.425  25.595   2.807  0.00  0.00    -0.030 C 
ATOM     22  C   UNL     1     -37.522  25.206   2.139  0.00  0.00    -0.031 C 
BRANCH  22  23
ATOM     23  C   UNL     1     -37.501  24.710   0.724  0.00  0.00    +0.026 C 
BRANCH  23  24
ATOM     24  C   UNL     1     -38.068  23.292   0.559  0.00  0.00    +0.016 C 
BRANCH  24  25
ATOM     25  C   UNL     1     -39.324  23.023   1.392  0.00  0.00    +0.110 C 
BRANCH  25  27
ATOM     26  O   UNL     1     -40.634  21.010   0.993  0.00  0.00    -0.250 OA
ATOM     27  C   UNL     1     -39.672  21.555   1.515  0.00  0.00    +0.314 C 
BRANCH  27  28
ATOM     28  O   UNL     1     -38.799  20.899   2.324  0.00  0.00    -0.480 OA
ATOM     29  H   UNL     1     -38.905  19.981   2.480  0.00  0.00    +0.295 HD
ENDBRANCH  27  28
ENDBRANCH  25  27
ENDBRANCH  24  25
ENDBRANCH  23  24
ENDBRANCH  22  23
ENDBRANCH  20  21
ENDBRANCH   3  20
TORSDOF 15
ENDMDL
MODEL 4
REMARK VINA RESULT:      -5.7      2.118      6.342
REMARK  Name = 5280891
REMARK  15 active torsions:
REMARK  status: ('A' for Active; 'I' for Inactive)
REMARK    1  A    between atoms: C_3  and  C_20
REMARK    2  A    between atoms: C_4  and  O_8
REMARK    3  A    between atoms: C_5  and  C_10
REMARK    4  A    between atoms: C_11  and  C_12
REMARK    5  A    between atoms: C_12  and  O_13
REMARK    6  A    between atoms: C_12  and  C_15
REMARK    7  A    between atoms: C_15  and  C_16
REMARK    8  A    between atoms: C_16  and  C_17
REMARK    9  A    between atoms: C_17  and  C_18
REMARK   10  A    between atoms: C_20  and  C_21
REMARK   11  A    between atoms: C_22  and  C_23
REMARK   12  A    between atoms: C_23  and  C_24
REMARK   13  A    between atoms: C_24  and  C_25
REMARK   14  A    between atoms: C_25  and  C_27
REMARK   15  A    between atoms: C_27  and  O_28
REMARK                            x       y       z     vdW  Elec       q    Type
REMARK                         _______ _______ _______ _____ _____    ______ ____
ROOT
ATOM      1  O   UNL     1     -39.209  23.424   1.426  0.00  0.00    -0.448 OA
ATOM      2  O   UNL     1     -41.416  23.610   1.037  0.00  0.00    -0.250 OA
ATOM      3  C   UNL     1     -38.025  24.967   2.969  0.00  0.00    +0.076 C 
ATOM      4  C   UNL     1     -39.173  25.948   2.729  0.00  0.00    +0.126 C 
ATOM      5  C   UNL     1     -37.931  24.017   1.767  0.00  0.00    +0.193 C 
ATOM      6  C   UNL     1     -40.473  25.186   2.557  0.00  0.00    +0.139 C 
ATOM      7  C   UNL     1     -40.403  24.038   1.585  0.00  0.00    +0.320 C 
ENDROOT
BRANCH   4   8
ATOM      8  O   UNL     1     -38.959  26.739   1.562  0.00  0.00    -0.384 OA
ATOM      9  H   UNL     1     -38.274  27.402   1.742  0.00  0.00    +0.210 HD
ENDBRANCH   4   8
BRANCH   5  10
ATOM     10  C   UNL     1     -36.983  22.877   1.985  0.00  0.00    +0.015 C 
ATOM     11  C   UNL     1     -37.362  21.592   2.041  0.00  0.00    +0.001 C 
BRANCH  11  12
ATOM     12  C   UNL     1     -36.409  20.451   2.261  0.00  0.00    +0.132 C 
BRANCH  12  13
ATOM     13  O   UNL     1     -36.882  19.321   1.527  0.00  0.00    -0.380 OA
ATOM     14  H   UNL     1     -37.518  19.614   0.855  0.00  0.00    +0.211 HD
ENDBRANCH  12  13
BRANCH  12  15
ATOM     15  C   UNL     1     -34.987  20.757   1.769  0.00  0.00    +0.034 C 
BRANCH  15  16
ATOM     16  C   UNL     1     -34.412  19.662   0.866  0.00  0.00    +0.003 C 
BRANCH  16  17
ATOM     17  C   UNL     1     -33.299  18.847   1.535  0.00  0.00    +0.000 C 
BRANCH  17  18
ATOM     18  C   UNL     1     -32.316  18.228   0.541  0.00  0.00    +0.000 C 
ATOM     19  C   UNL     1     -31.125  19.142   0.299  0.00  0.00    +0.000 C 
ENDBRANCH  17  18
ENDBRANCH  16  17
ENDBRANCH  15  16
ENDBRANCH  12  15
ENDBRANCH  11  12
ENDBRANCH   5  10
BRANCH   3  20
ATOM     20  C   UNL     1     -36.709  25.709   3.232  0.00  0.00    +0.032 C 
BRANCH  20  21
ATOM     21  C   UNL     1     -36.483  26.193   4.634  0.00  0.00    -0.030 C 
ATOM     22  C   UNL     1     -35.380  26.037   5.383  0.00  0.00    -0.031 C 
BRANCH  22  23
ATOM     23  C   UNL     1     -34.149  25.321   4.910  0.00  0.00    +0.026 C 
BRANCH  23  24
ATOM     24  C   UNL     1     -33.994  23.910   5.494  0.00  0.00    +0.016 C 
BRANCH  24  25
ATOM     25  C   UNL     1     -34.895  22.861   4.835  0.00  0.00    +0.110 C 
BRANCH  25  27
ATOM     26  O   UNL     1     -36.170  22.118   6.773  0.00  0.00    -0.250 OA
ATOM     27  C   UNL     1     -35.467  21.852   5.808  0.00  0.00    +0.314 C 
BRANCH  27  28
ATOM     28  O   UNL     1     -35.072  20.587   5.508  0.00  0.00    -0.480 OA
ATOM     29  H   UNL     1     -35.343  19.871   6.048  0.00  0.00    +0.295 HD
ENDBRANCH  27  28
ENDBRANCH  25  27
ENDBRANCH  24  25
ENDBRANCH  23  24
ENDBRANCH  22  23
ENDBRANCH  20  21
ENDBRANCH   3  20
TORSDOF 15
ENDMDL
MODEL 5
REMARK VINA RESULT:      -5.7      1.806      2.404
REMARK  Name = 5280891
REMARK  15 active torsions:
REMARK  status: ('A' for Active; 'I' for Inactive)
REMARK    1  A    between atoms: C_3  and  C_20
REMARK    2  A    between atoms: C_4  and  O_8
REMARK    3  A    between atoms: C_5  and  C_10
REMARK    4  A    between atoms: C_11  and  C_12
REMARK    5  A    between atoms: C_12  and  O_13
REMARK    6  A    between atoms: C_12  and  C_15
REMARK    7  A    between atoms: C_15  and  C_16
REMARK    8  A    between atoms: C_16  and  C_17
REMARK    9  A    between atoms: C_17  and  C_18
REMARK   10  A    between atoms: C_20  and  C_21
REMARK   11  A    between atoms: C_22  and  C_23
REMARK   12  A    between atoms: C_23  and  C_24
REMARK   13  A    between atoms: C_24  and  C_25
REMARK   14  A    between atoms: C_25  and  C_27
REMARK   15  A    between atoms: C_27  and  O_28
REMARK                            x       y       z     vdW  Elec       q    Type
REMARK                         _______ _______ _______ _____ _____    ______ ____
ROOT
ATOM      1  O   UNL     1     -40.042  24.216   2.223  0.00  0.00    -0.448 OA
ATOM      2  O   UNL     1     -41.936  24.422   1.029  0.00  0.00    -0.250 OA
ATOM      3  C   UNL     1     -38.275  22.591   1.591  0.00  0.00    +0.076 C 
ATOM      4  C   UNL     1     -39.367  21.829   0.839  0.00  0.00    +0.126 C 
ATOM      5  C   UNL     1     -38.931  23.419   2.704  0.00  0.00    +0.193 C 
ATOM      6  C   UNL     1     -40.364  22.808   0.249  0.00  0.00    +0.139 C 
ATOM      7  C   UNL     1     -40.864  23.851   1.214  0.00  0.00    +0.320 C 
ENDROOT
BRANCH   4   8
ATOM      8  O   UNL     1     -40.072  20.931   1.694  0.00  0.00    -0.384 OA
ATOM      9  H   UNL     1     -39.438  20.429   2.228  0.00  0.00    +0.210 HD
ENDBRANCH   4   8
BRANCH   5  10
ATOM     10  C   UNL     1     -37.986  24.372   3.369  0.00  0.00    +0.015 C 
ATOM     11  C   UNL     1     -37.267  25.292   2.710  0.00  0.00    +0.001 C 
BRANCH  11  12
ATOM     12  C   UNL     1     -36.319  26.246   3.381  0.00  0.00    +0.132 C 
BRANCH  12  13
ATOM     13  O   UNL     1     -36.745  26.428   4.732  0.00  0.00    -0.380 OA
ATOM     14  H   UNL     1     -37.467  27.076   4.760  0.00  0.00    +0.211 HD
ENDBRANCH  12  13
BRANCH  12  15
ATOM     15  C   UNL     1     -34.875  25.726   3.419  0.00  0.00    +0.034 C 
BRANCH  15  16
ATOM     16  C   UNL     1     -34.406  25.353   4.828  0.00  0.00    +0.003 C 
BRANCH  16  17
ATOM     17  C   UNL     1     -34.254  23.841   5.035  0.00  0.00    +0.000 C 
BRANCH  17  18
ATOM     18  C   UNL     1     -35.456  23.198   5.728  0.00  0.00    +0.000 C 
ATOM     19  C   UNL     1     -35.248  21.703   5.922  0.00  0.00    +0.000 C 
ENDBRANCH  17  18
ENDBRANCH  16  17
ENDBRANCH  15  16
ENDBRANCH  12  15
ENDBRANCH  11  12
ENDBRANCH   5  10
BRANCH   3  20
ATOM     20  C   UNL     1     -37.203  21.634   2.127  0.00  0.00    +0.032 C 
BRANCH  20  21
ATOM     21  C   UNL     1     -35.776  22.059   1.947  0.00  0.00    -0.030 C 
ATOM     22  C   UNL     1     -34.734  21.291   1.594  0.00  0.00    -0.031 C 
BRANCH  22  23
ATOM     23  C   UNL     1     -34.843  19.821   1.313  0.00  0.00    +0.026 C 
BRANCH  23  24
ATOM     24  C   UNL     1     -33.536  19.050   1.547  0.00  0.00    +0.016 C 
BRANCH  24  25
ATOM     25  C   UNL     1     -32.397  19.458   0.609  0.00  0.00    +0.110 C 
BRANCH  25  27
ATOM     26  O   UNL     1     -30.116  18.752   0.130  0.00  0.00    -0.250 OA
ATOM     27  C   UNL     1     -31.182  18.558   0.696  0.00  0.00    +0.314 C 
BRANCH  27  28
ATOM     28  O   UNL     1     -31.426  17.460   1.458  0.00  0.00    -0.480 OA
ATOM     29  H   UNL     1     -31.807  16.696   1.071  0.00  0.00    +0.295 HD
ENDBRANCH  27  28
ENDBRANCH  25  27
ENDBRANCH  24  25
ENDBRANCH  23  24
ENDBRANCH  22  23
ENDBRANCH  20  21
ENDBRANCH   3  20
TORSDOF 15
ENDMDL
MODEL 6
REMARK VINA RESULT:      -5.7      2.918      5.879
REMARK  Name = 5280891
REMARK  15 active torsions:
REMARK  status: ('A' for Active; 'I' for Inactive)
REMARK    1  A    between atoms: C_3  and  C_20
REMARK    2  A    between atoms: C_4  and  O_8
REMARK    3  A    between atoms: C_5  and  C_10
REMARK    4  A    between atoms: C_11  and  C_12
REMARK    5  A    between atoms: C_12  and  O_13
REMARK    6  A    between atoms: C_12  and  C_15
REMARK    7  A    between atoms: C_15  and  C_16
REMARK    8  A    between atoms: C_16  and  C_17
REMARK    9  A    between atoms: C_17  and  C_18
REMARK   10  A    between atoms: C_20  and  C_21
REMARK   11  A    between atoms: C_22  and  C_23
REMARK   12  A    between atoms: C_23  and  C_24
REMARK   13  A    between atoms: C_24  and  C_25
REMARK   14  A    between atoms: C_25  and  C_27
REMARK   15  A    between atoms: C_27  and  O_28
REMARK                            x       y       z     vdW  Elec       q    Type
REMARK                         _______ _______ _______ _____ _____    ______ ____
ROOT
ATOM      1  O   UNL     1     -38.876  22.041   1.604  0.00  0.00    -0.448 OA
ATOM      2  O   UNL     1     -39.914  20.590   0.236  0.00  0.00    -0.250 OA
ATOM      3  C   UNL     1     -36.424  21.945   1.984  0.00  0.00    +0.076 C 
ATOM      4  C   UNL     1     -36.500  20.484   1.536  0.00  0.00    +0.126 C 
ATOM      5  C   UNL     1     -37.798  22.368   2.519  0.00  0.00    +0.193 C 
ATOM      6  C   UNL     1     -37.555  20.332   0.457  0.00  0.00    +0.139 C 
ATOM      7  C   UNL     1     -38.880  20.968   0.782  0.00  0.00    +0.320 C 
ENDROOT
BRANCH   4   8
ATOM      8  O   UNL     1     -36.834  19.616   2.616  0.00  0.00    -0.384 OA
ATOM      9  H   UNL     1     -36.556  18.712   2.402  0.00  0.00    +0.210 HD
ENDBRANCH   4   8
BRANCH   5  10
ATOM     10  C   UNL     1     -37.905  23.838   2.785  0.00  0.00    +0.015 C 
ATOM     11  C   UNL     1     -38.415  24.719   1.913  0.00  0.00    +0.001 C 
BRANCH  11  12
ATOM     12  C   UNL     1     -38.518  26.194   2.184  0.00  0.00    +0.132 C 
BRANCH  12  13
ATOM     13  O   UNL     1     -38.589  26.389   3.598  0.00  0.00    -0.380 OA
ATOM     14  H   UNL     1     -37.943  25.813   4.036  0.00  0.00    +0.211 HD
ENDBRANCH  12  13
BRANCH  12  15
ATOM     15  C   UNL     1     -37.305  26.983   1.671  0.00  0.00    +0.034 C 
BRANCH  15  16
ATOM     16  C   UNL     1     -36.848  26.547   0.276  0.00  0.00    +0.003 C 
BRANCH  16  17
ATOM     17  C   UNL     1     -35.333  26.340   0.171  0.00  0.00    +0.000 C 
BRANCH  17  18
ATOM     18  C   UNL     1     -34.900  24.888   0.384  0.00  0.00    +0.000 C 
ATOM     19  C   UNL     1     -33.597  24.808   1.165  0.00  0.00    +0.000 C 
ENDBRANCH  17  18
ENDBRANCH  16  17
ENDBRANCH  15  16
ENDBRANCH  12  15
ENDBRANCH  11  12
ENDBRANCH   5  10
BRANCH   3  20
ATOM     20  C   UNL     1     -35.307  22.150   3.014  0.00  0.00    +0.032 C 
BRANCH  20  21
ATOM     21  C   UNL     1     -35.649  21.846   4.442  0.00  0.00    -0.030 C 
ATOM     22  C   UNL     1     -35.396  22.603   5.521  0.00  0.00    -0.031 C 
BRANCH  22  23
ATOM     23  C   UNL     1     -34.700  23.931   5.459  0.00  0.00    +0.026 C 
BRANCH  23  24
ATOM     24  C   UNL     1     -35.656  25.123   5.311  0.00  0.00    +0.016 C 
BRANCH  24  25
ATOM     25  C   UNL     1     -35.049  26.320   4.575  0.00  0.00    +0.110 C 
BRANCH  25  27
ATOM     26  O   UNL     1     -33.356  27.063   6.160  0.00  0.00    -0.250 OA
ATOM     27  C   UNL     1     -33.652  26.677   5.038  0.00  0.00    +0.314 C 
BRANCH  27  28
ATOM     28  O   UNL     1     -32.745  26.558   4.034  0.00  0.00    -0.480 OA
ATOM     29  H   UNL     1     -31.947  26.088   4.176  0.00  0.00    +0.295 HD
ENDBRANCH  27  28
ENDBRANCH  25  27
ENDBRANCH  24  25
ENDBRANCH  23  24
ENDBRANCH  22  23
ENDBRANCH  20  21
ENDBRANCH   3  20
TORSDOF 15
ENDMDL
MODEL 7
REMARK VINA RESULT:      -5.7      3.005      6.493
REMARK  Name = 5280891
REMARK  15 active torsions:
REMARK  status: ('A' for Active; 'I' for Inactive)
REMARK    1  A    between atoms: C_3  and  C_20
REMARK    2  A    between atoms: C_4  and  O_8
REMARK    3  A    between atoms: C_5  and  C_10
REMARK    4  A    between atoms: C_11  and  C_12
REMARK    5  A    between atoms: C_12  and  O_13
REMARK    6  A    between atoms: C_12  and  C_15
REMARK    7  A    between atoms: C_15  and  C_16
REMARK    8  A    between atoms: C_16  and  C_17
REMARK    9  A    between atoms: C_17  and  C_18
REMARK   10  A    between atoms: C_20  and  C_21
REMARK   11  A    between atoms: C_22  and  C_23
REMARK   12  A    between atoms: C_23  and  C_24
REMARK   13  A    between atoms: C_24  and  C_25
REMARK   14  A    between atoms: C_25  and  C_27
REMARK   15  A    between atoms: C_27  and  O_28
REMARK                            x       y       z     vdW  Elec       q    Type
REMARK                         _______ _______ _______ _____ _____    ______ ____
ROOT
ATOM      1  O   UNL     1     -39.136  21.960   1.692  0.00  0.00    -0.448 OA
ATOM      2  O   UNL     1     -40.099  20.488   0.292  0.00  0.00    -0.250 OA
ATOM      3  C   UNL     1     -36.668  22.142   1.893  0.00  0.00    +0.076 C 
ATOM      4  C   UNL     1     -36.606  20.716   1.341  0.00  0.00    +0.126 C 
ATOM      5  C   UNL     1     -38.037  22.354   2.552  0.00  0.00    +0.193 C 
ATOM      6  C   UNL     1     -37.716  20.509   0.329  0.00  0.00    +0.139 C 
ATOM      7  C   UNL     1     -39.078  20.953   0.793  0.00  0.00    +0.320 C 
ENDROOT
BRANCH   4   8
ATOM      8  O   UNL     1     -36.750  19.742   2.373  0.00  0.00    -0.384 OA
ATOM      9  H   UNL     1     -36.751  20.184   3.236  0.00  0.00    +0.210 HD
ENDBRANCH   4   8
BRANCH   5  10
ATOM     10  C   UNL     1     -38.295  23.779   2.937  0.00  0.00    +0.015 C 
ATOM     11  C   UNL     1     -39.518  24.326   2.998  0.00  0.00    +0.001 C 
BRANCH  11  12
ATOM     12  C   UNL     1     -39.772  25.756   3.384  0.00  0.00    +0.132 C 
BRANCH  12  13
ATOM     13  O   UNL     1     -38.609  26.522   3.066  0.00  0.00    -0.380 OA
ATOM     14  H   UNL     1     -37.907  26.325   3.706  0.00  0.00    +0.211 HD
ENDBRANCH  12  13
BRANCH  12  15
ATOM     15  C   UNL     1     -40.954  26.378   2.626  0.00  0.00    +0.034 C 
BRANCH  15  16
ATOM     16  C   UNL     1     -42.218  26.508   3.482  0.00  0.00    +0.003 C 
BRANCH  16  17
ATOM     17  C   UNL     1     -42.496  27.944   3.939  0.00  0.00    +0.000 C 
BRANCH  17  18
ATOM     18  C   UNL     1     -43.949  28.181   4.353  0.00  0.00    +0.000 C 
ATOM     19  C   UNL     1     -44.670  26.868   4.618  0.00  0.00    +0.000 C 
ENDBRANCH  17  18
ENDBRANCH  16  17
ENDBRANCH  15  16
ENDBRANCH  12  15
ENDBRANCH  11  12
ENDBRANCH   5  10
BRANCH   3  20
ATOM     20  C   UNL     1     -35.506  22.413   2.856  0.00  0.00    +0.032 C 
BRANCH  20  21
ATOM     21  C   UNL     1     -35.474  21.596   4.114  0.00  0.00    -0.030 C 
ATOM     22  C   UNL     1     -35.463  22.045   5.379  0.00  0.00    -0.031 C 
BRANCH  22  23
ATOM     23  C   UNL     1     -35.480  23.500   5.744  0.00  0.00    +0.026 C 
BRANCH  23  24
ATOM     24  C   UNL     1     -34.196  24.248   5.356  0.00  0.00    +0.016 C 
BRANCH  24  25
ATOM     25  C   UNL     1     -34.365  25.768   5.268  0.00  0.00    +0.110 C 
BRANCH  25  27
ATOM     26  O   UNL     1     -35.665  26.193   3.253  0.00  0.00    -0.250 OA
ATOM     27  C   UNL     1     -35.578  26.202   4.473  0.00  0.00    +0.314 C 
BRANCH  27  28
ATOM     28  O   UNL     1     -36.573  26.653   5.281  0.00  0.00    -0.480 OA
ATOM     29  H   UNL     1     -36.629  27.565   5.491  0.00  0.00    +0.295 HD
ENDBRANCH  27  28
ENDBRANCH  25  27
ENDBRANCH  24  25
ENDBRANCH  23  24
ENDBRANCH  22  23
ENDBRANCH  20  21
ENDBRANCH   3  20
TORSDOF 15
ENDMDL
MODEL 8
REMARK VINA RESULT:      -5.6      2.875      7.578
REMARK  Name = 5280891
REMARK  15 active torsions:
REMARK  status: ('A' for Active; 'I' for Inactive)
REMARK    1  A    between atoms: C_3  and  C_20
REMARK    2  A    between atoms: C_4  and  O_8
REMARK    3  A    between atoms: C_5  and  C_10
REMARK    4  A    between atoms: C_11  and  C_12
REMARK    5  A    between atoms: C_12  and  O_13
REMARK    6  A    between atoms: C_12  and  C_15
REMARK    7  A    between atoms: C_15  and  C_16
REMARK    8  A    between atoms: C_16  and  C_17
REMARK    9  A    between atoms: C_17  and  C_18
REMARK   10  A    between atoms: C_20  and  C_21
REMARK   11  A    between atoms: C_22  and  C_23
REMARK   12  A    between atoms: C_23  and  C_24
REMARK   13  A    between atoms: C_24  and  C_25
REMARK   14  A    between atoms: C_25  and  C_27
REMARK   15  A    between atoms: C_27  and  O_28
REMARK                            x       y       z     vdW  Elec       q    Type
REMARK                         _______ _______ _______ _____ _____    ______ ____
ROOT
ATOM      1  O   UNL     1     -39.471  23.377   1.651  0.00  0.00    -0.448 OA
ATOM      2  O   UNL     1     -41.534  23.856   0.895  0.00  0.00    -0.250 OA
ATOM      3  C   UNL     1     -38.357  24.778   3.371  0.00  0.00    +0.076 C 
ATOM      4  C   UNL     1     -39.301  25.903   2.940  0.00  0.00    +0.126 C 
ATOM      5  C   UNL     1     -38.197  23.796   2.203  0.00  0.00    +0.193 C 
ATOM      6  C   UNL     1     -40.647  25.323   2.552  0.00  0.00    +0.139 C 
ATOM      7  C   UNL     1     -40.577  24.153   1.606  0.00  0.00    +0.320 C 
ENDROOT
BRANCH   4   8
ATOM      8  O   UNL     1     -38.786  26.628   1.826  0.00  0.00    -0.384 OA
ATOM      9  H   UNL     1     -39.060  26.194   1.003  0.00  0.00    +0.210 HD
ENDBRANCH   4   8
BRANCH   5  10
ATOM     10  C   UNL     1     -37.469  22.542   2.578  0.00  0.00    +0.015 C 
ATOM     11  C   UNL     1     -36.226  22.249   2.168  0.00  0.00    +0.001 C 
BRANCH  11  12
ATOM     12  C   UNL     1     -35.500  20.989   2.545  0.00  0.00    +0.132 C 
BRANCH  12  13
ATOM     13  O   UNL     1     -36.438  19.912   2.551  0.00  0.00    -0.380 OA
ATOM     14  H   UNL     1     -36.391  19.438   1.705  0.00  0.00    +0.211 HD
ENDBRANCH  12  13
BRANCH  12  15
ATOM     15  C   UNL     1     -34.384  20.623   1.556  0.00  0.00    +0.034 C 
BRANCH  15  16
ATOM     16  C   UNL     1     -34.036  19.132   1.564  0.00  0.00    +0.003 C 
BRANCH  16  17
ATOM     17  C   UNL     1     -32.661  18.827   0.960  0.00  0.00    +0.000 C 
BRANCH  17  18
ATOM     18  C   UNL     1     -32.241  19.815  -0.130  0.00  0.00    +0.000 C 
ATOM     19  C   UNL     1     -30.730  19.979  -0.176  0.00  0.00    +0.000 C 
ENDBRANCH  17  18
ENDBRANCH  16  17
ENDBRANCH  15  16
ENDBRANCH  12  15
ENDBRANCH  11  12
ENDBRANCH   5  10
BRANCH   3  20
ATOM     20  C   UNL     1     -37.013  25.338   3.852  0.00  0.00    +0.032 C 
BRANCH  20  21
ATOM     21  C   UNL     1     -36.451  24.743   5.109  0.00  0.00    -0.030 C 
ATOM     22  C   UNL     1     -35.159  24.642   5.457  0.00  0.00    -0.031 C 
BRANCH  22  23
ATOM     23  C   UNL     1     -34.027  25.132   4.603  0.00  0.00    +0.026 C 
BRANCH  23  24
ATOM     24  C   UNL     1     -33.654  26.600   4.855  0.00  0.00    +0.016 C 
BRANCH  24  25
ATOM     25  C   UNL     1     -33.106  26.869   6.259  0.00  0.00    +0.110 C 
BRANCH  25  27
ATOM     26  O   UNL     1     -32.305  29.157   6.021  0.00  0.00    -0.250 OA
ATOM     27  C   UNL     1     -32.088  27.989   6.311  0.00  0.00    +0.314 C 
BRANCH  27  28
ATOM     28  O   UNL     1     -30.863  27.536   6.686  0.00  0.00    -0.480 OA
ATOM     29  H   UNL     1     -30.414  26.906   6.156  0.00  0.00    +0.295 HD
ENDBRANCH  27  28
ENDBRANCH  25  27
ENDBRANCH  24  25
ENDBRANCH  23  24
ENDBRANCH  22  23
ENDBRANCH  20  21
ENDBRANCH   3  20
TORSDOF 15
ENDMDL
MODEL 9
REMARK VINA RESULT:      -5.5      2.968      9.027
REMARK  Name = 5280891
REMARK  15 active torsions:
REMARK  status: ('A' for Active; 'I' for Inactive)
REMARK    1  A    between atoms: C_3  and  C_20
REMARK    2  A    between atoms: C_4  and  O_8
REMARK    3  A    between atoms: C_5  and  C_10
REMARK    4  A    between atoms: C_11  and  C_12
REMARK    5  A    between atoms: C_12  and  O_13
REMARK    6  A    between atoms: C_12  and  C_15
REMARK    7  A    between atoms: C_15  and  C_16
REMARK    8  A    between atoms: C_16  and  C_17
REMARK    9  A    between atoms: C_17  and  C_18
REMARK   10  A    between atoms: C_20  and  C_21
REMARK   11  A    between atoms: C_22  and  C_23
REMARK   12  A    between atoms: C_23  and  C_24
REMARK   13  A    between atoms: C_24  and  C_25
REMARK   14  A    between atoms: C_25  and  C_27
REMARK   15  A    between atoms: C_27  and  O_28
REMARK                            x       y       z     vdW  Elec       q    Type
REMARK                         _______ _______ _______ _____ _____    ______ ____
ROOT
ATOM      1  O   UNL     1     -34.479  24.247   4.296  0.00  0.00    -0.448 OA
ATOM      2  O   UNL     1     -32.949  25.893   4.338  0.00  0.00    -0.250 OA
ATOM      3  C   UNL     1     -36.744  24.598   3.341  0.00  0.00    +0.076 C 
ATOM      4  C   UNL     1     -36.520  26.091   3.587  0.00  0.00    +0.126 C 
ATOM      5  C   UNL     1     -35.860  23.802   4.311  0.00  0.00    +0.193 C 
ATOM      6  C   UNL     1     -35.060  26.434   3.370  0.00  0.00    +0.139 C 
ATOM      7  C   UNL     1     -34.090  25.522   4.073  0.00  0.00    +0.320 C 
ENDROOT
BRANCH   4   8
ATOM      8  O   UNL     1     -36.878  26.469   4.915  0.00  0.00    -0.384 OA
ATOM      9  H   UNL     1     -36.109  26.369   5.498  0.00  0.00    +0.210 HD
ENDBRANCH   4   8
BRANCH   5  10
ATOM     10  C   UNL     1     -35.832  22.333   4.018  0.00  0.00    +0.015 C 
ATOM     11  C   UNL     1     -35.414  21.812   2.855  0.00  0.00    +0.001 C 
BRANCH  11  12
ATOM     12  C   UNL     1     -35.388  20.338   2.565  0.00  0.00    +0.132 C 
BRANCH  12  13
ATOM     13  O   UNL     1     -36.731  19.851   2.583  0.00  0.00    -0.380 OA
ATOM     14  H   UNL     1     -36.908  19.358   1.766  0.00  0.00    +0.211 HD
ENDBRANCH  12  13
BRANCH  12  15
ATOM     15  C   UNL     1     -34.799  20.010   1.186  0.00  0.00    +0.034 C 
BRANCH  15  16
ATOM     16  C   UNL     1     -33.677  18.969   1.241  0.00  0.00    +0.003 C 
BRANCH  16  17
ATOM     17  C   UNL     1     -32.340  19.488   0.701  0.00  0.00    +0.000 C 
BRANCH  17  18
ATOM     18  C   UNL     1     -31.258  18.410   0.614  0.00  0.00    +0.000 C 
ATOM     19  C   UNL     1     -31.856  17.052   0.281  0.00  0.00    +0.000 C 
ENDBRANCH  17  18
ENDBRANCH  16  17
ENDBRANCH  15  16
ENDBRANCH  12  15
ENDBRANCH  11  12
ENDBRANCH   5  10
BRANCH   3  20
ATOM     20  C   UNL     1     -38.228  24.233   3.469  0.00  0.00    +0.032 C 
BRANCH  20  21
ATOM     21  C   UNL     1     -38.925  23.814   2.208  0.00  0.00    -0.030 C 
ATOM     22  C   UNL     1     -39.793  24.532   1.478  0.00  0.00    -0.031 C 
BRANCH  22  23
ATOM     23  C   UNL     1     -40.219  25.927   1.829  0.00  0.00    +0.026 C 
BRANCH  23  24
ATOM     24  C   UNL     1     -41.612  26.005   2.468  0.00  0.00    +0.016 C 
BRANCH  24  25
ATOM     25  C   UNL     1     -41.650  26.782   3.787  0.00  0.00    +0.110 C 
BRANCH  25  27
ATOM     26  O   UNL     1     -43.035  28.493   2.746  0.00  0.00    -0.250 OA
ATOM     27  C   UNL     1     -42.342  28.125   3.684  0.00  0.00    +0.314 C 
BRANCH  27  28
ATOM     28  O   UNL     1     -42.067  28.914   4.755  0.00  0.00    -0.480 OA
ATOM     29  H   UNL     1     -42.707  29.525   5.064  0.00  0.00    +0.295 HD
ENDBRANCH  27  28
ENDBRANCH  25  27
ENDBRANCH  24  25
ENDBRANCH  23  24
ENDBRANCH  22  23
ENDBRANCH  20  21
ENDBRANCH   3  20
TORSDOF 15
ENDMDL
