MODEL 1
REMARK VINA RESULT:      -6.2      0.000      0.000
REMARK  Name = 5459130
REMARK  5 active torsions:
REMARK  status: ('A' for Active; 'I' for Inactive)
REMARK    1  A    between atoms: C_3  and  O_18
REMARK    2  A    between atoms: C_6  and  O_20
REMARK    3  A    between atoms: C_10  and  O_22
REMARK    4  A    between atoms: C_11  and  O_24
REMARK    5  A    between atoms: C_16  and  O_26
REMARK                            x       y       z     vdW  Elec       q    Type
REMARK                         _______ _______ _______ _____ _____    ______ ____
ROOT
ATOM      1  O   UNL     1     -34.383  26.316   2.243  0.00  0.00    -0.283 OA
ATOM      2  O   UNL     1     -35.179  22.892   6.266  0.00  0.00    -0.286 OA
ATOM      3  C   UNL     1     -35.781  20.465  -0.411  0.00  0.00    +0.095 C 
ATOM      4  C   UNL     1     -35.291  19.473   0.654  0.00  0.00    +0.061 C 
ATOM      5  C   UNL     1     -35.158  21.851  -0.175  0.00  0.00    +0.056 C 
ATOM      6  C   UNL     1     -35.639  19.927   2.076  0.00  0.00    +0.138 C 
ATOM      7  C   UNL     1     -35.151  22.291   1.271  0.00  0.00    +0.015 A 
ATOM      8  C   UNL     1     -35.343  21.384   2.327  0.00  0.00    +0.037 A 
ATOM      9  C   UNL     1     -35.434  19.964  -1.816  0.00  0.00    +0.030 C 
ATOM     10  C   UNL     1     -34.889  23.641   1.558  0.00  0.00    +0.133 A 
ATOM     11  C   UNL     1     -35.296  21.849   3.652  0.00  0.00    +0.135 A 
ATOM     12  C   UNL     1     -34.839  24.094   2.882  0.00  0.00    +0.081 A 
ATOM     13  C   UNL     1     -35.045  23.198   3.928  0.00  0.00    +0.079 A 
ATOM     14  C   UNL     1     -34.566  25.520   3.155  0.00  0.00    +0.232 C 
ATOM     15  C   UNL     1     -34.998  23.659   5.328  0.00  0.00    +0.202 C 
ATOM     16  C   UNL     1     -34.521  25.957   4.572  0.00  0.00    +0.181 C 
ATOM     17  C   UNL     1     -34.722  25.090   5.570  0.00  0.00    +0.082 C 
ENDROOT
BRANCH   3  18
ATOM     18  O   UNL     1     -37.202  20.598  -0.344  0.00  0.00    -0.386 OA
ATOM     19  H   UNL     1     -37.429  21.426   0.108  0.00  0.00    +0.210 HD
ENDBRANCH   3  18
BRANCH   6  20
ATOM     20  O   UNL     1     -37.025  19.709   2.335  0.00  0.00    -0.380 OA
ATOM     21  H   UNL     1     -37.417  20.517   2.699  0.00  0.00    +0.211 HD
ENDBRANCH   6  20
BRANCH  10  22
ATOM     22  O   UNL     1     -34.672  24.494   0.513  0.00  0.00    -0.506 OA
ATOM     23  H   UNL     1     -34.880  25.404   0.600  0.00  0.00    +0.292 HD
ENDBRANCH  10  22
BRANCH  11  24
ATOM     24  O   UNL     1     -35.506  20.952   4.663  0.00  0.00    -0.506 OA
ATOM     25  H   UNL     1     -34.842  20.325   4.876  0.00  0.00    +0.292 HD
ENDBRANCH  11  24
BRANCH  16  26
ATOM     26  O   UNL     1     -34.264  27.293   4.796  0.00  0.00    -0.468 OA
ATOM     27  C   UNL     1     -32.917  27.487   5.180  0.00  0.00    +0.253 C 
ENDBRANCH  16  26
TORSDOF 5
ENDMDL
MODEL 2
REMARK VINA RESULT:      -5.9      3.399      4.036
REMARK  Name = 5459130
REMARK  5 active torsions:
REMARK  status: ('A' for Active; 'I' for Inactive)
REMARK    1  A    between atoms: C_3  and  O_18
REMARK    2  A    between atoms: C_6  and  O_20
REMARK    3  A    between atoms: C_10  and  O_22
REMARK    4  A    between atoms: C_11  and  O_24
REMARK    5  A    between atoms: C_16  and  O_26
REMARK                            x       y       z     vdW  Elec       q    Type
REMARK                         _______ _______ _______ _____ _____    ______ ____
ROOT
ATOM      1  O   UNL     1     -34.867  28.216   3.583  0.00  0.00    -0.283 OA
ATOM      2  O   UNL     1     -35.280  23.160   5.258  0.00  0.00    -0.286 OA
ATOM      3  C   UNL     1     -39.923  25.496   0.378  0.00  0.00    +0.095 C 
ATOM      4  C   UNL     1     -39.547  24.007   0.331  0.00  0.00    +0.061 C 
ATOM      5  C   UNL     1     -38.685  26.349   0.697  0.00  0.00    +0.056 C 
ATOM      6  C   UNL     1     -38.946  23.518   1.654  0.00  0.00    +0.138 C 
ATOM      7  C   UNL     1     -37.812  25.791   1.799  0.00  0.00    +0.015 A 
ATOM      8  C   UNL     1     -37.912  24.455   2.224  0.00  0.00    +0.037 A 
ATOM      9  C   UNL     1     -40.539  25.938  -0.952  0.00  0.00    +0.030 C 
ATOM     10  C   UNL     1     -36.839  26.628   2.370  0.00  0.00    +0.133 A 
ATOM     11  C   UNL     1     -37.053  23.988   3.233  0.00  0.00    +0.135 A 
ATOM     12  C   UNL     1     -35.984  26.151   3.371  0.00  0.00    +0.081 A 
ATOM     13  C   UNL     1     -36.093  24.832   3.803  0.00  0.00    +0.079 A 
ATOM     14  C   UNL     1     -34.972  27.054   3.957  0.00  0.00    +0.232 C 
ATOM     15  C   UNL     1     -35.202  24.314   4.858  0.00  0.00    +0.202 C 
ATOM     16  C   UNL     1     -34.087  26.507   5.013  0.00  0.00    +0.181 C 
ATOM     17  C   UNL     1     -34.200  25.240   5.424  0.00  0.00    +0.082 C 
ENDROOT
BRANCH   3  18
ATOM     18  O   UNL     1     -40.897  25.727   1.398  0.00  0.00    -0.386 OA
ATOM     19  H   UNL     1     -41.669  26.170   1.014  0.00  0.00    +0.210 HD
ENDBRANCH   3  18
BRANCH   6  20
ATOM     20  O   UNL     1     -39.974  23.353   2.629  0.00  0.00    -0.380 OA
ATOM     21  H   UNL     1     -40.040  22.417   2.875  0.00  0.00    +0.211 HD
ENDBRANCH   6  20
BRANCH  10  22
ATOM     22  O   UNL     1     -36.741  27.912   1.913  0.00  0.00    -0.506 OA
ATOM     23  H   UNL     1     -37.395  28.542   2.144  0.00  0.00    +0.292 HD
ENDBRANCH  10  22
BRANCH  11  24
ATOM     24  O   UNL     1     -37.181  22.690   3.644  0.00  0.00    -0.506 OA
ATOM     25  H   UNL     1     -37.761  22.110   3.189  0.00  0.00    +0.292 HD
ENDBRANCH  11  24
BRANCH  16  26
ATOM     26  O   UNL     1     -33.152  27.373   5.542  0.00  0.00    -0.468 OA
ATOM     27  C   UNL     1     -32.828  27.011   6.870  0.00  0.00    +0.253 C 
ENDBRANCH  16  26
TORSDOF 5
ENDMDL
MODEL 3
REMARK VINA RESULT:      -5.8      3.603      6.209
REMARK  Name = 5459130
REMARK  5 active torsions:
REMARK  status: ('A' for Active; 'I' for Inactive)
REMARK    1  A    between atoms: C_3  and  O_18
REMARK    2  A    between atoms: C_6  and  O_20
REMARK    3  A    between atoms: C_10  and  O_22
REMARK    4  A    between atoms: C_11  and  O_24
REMARK    5  A    between atoms: C_16  and  O_26
REMARK                            x       y       z     vdW  Elec       q    Type
REMARK                         _______ _______ _______ _____ _____    ______ ____
ROOT
ATOM      1  O   UNL     1     -37.492  23.575   3.727  0.00  0.00    -0.283 OA
ATOM      2  O   UNL     1     -33.398  26.489   5.540  0.00  0.00    -0.286 OA
ATOM      3  C   UNL     1     -36.954  28.840  -0.175  0.00  0.00    +0.095 C 
ATOM      4  C   UNL     1     -36.336  29.899   0.750  0.00  0.00    +0.061 C 
ATOM      5  C   UNL     1     -37.551  27.691   0.653  0.00  0.00    +0.056 C 
ATOM      6  C   UNL     1     -35.233  29.318   1.643  0.00  0.00    +0.138 C 
ATOM      7  C   UNL     1     -36.675  27.227   1.795  0.00  0.00    +0.015 A 
ATOM      8  C   UNL     1     -35.610  28.005   2.280  0.00  0.00    +0.037 A 
ATOM      9  C   UNL     1     -38.032  29.464  -1.064  0.00  0.00    +0.030 C 
ATOM     10  C   UNL     1     -36.978  26.005   2.418  0.00  0.00    +0.133 A 
ATOM     11  C   UNL     1     -34.850  27.533   3.364  0.00  0.00    +0.135 A 
ATOM     12  C   UNL     1     -36.218  25.545   3.500  0.00  0.00    +0.081 A 
ATOM     13  C   UNL     1     -35.154  26.309   3.971  0.00  0.00    +0.079 A 
ATOM     14  C   UNL     1     -36.557  24.254   4.133  0.00  0.00    +0.232 C 
ATOM     15  C   UNL     1     -34.342  25.838   5.109  0.00  0.00    +0.202 C 
ATOM     16  C   UNL     1     -35.727  23.806   5.277  0.00  0.00    +0.181 C 
ATOM     17  C   UNL     1     -34.705  24.544   5.722  0.00  0.00    +0.082 C 
ENDROOT
BRANCH   3  18
ATOM     18  O   UNL     1     -35.953  28.294  -1.037  0.00  0.00    -0.386 OA
ATOM     19  H   UNL     1     -36.261  28.333  -1.956  0.00  0.00    +0.210 HD
ENDBRANCH   3  18
BRANCH   6  20
ATOM     20  O   UNL     1     -34.044  29.113   0.883  0.00  0.00    -0.380 OA
ATOM     21  H   UNL     1     -34.249  29.180  -0.063  0.00  0.00    +0.211 HD
ENDBRANCH   6  20
BRANCH  10  22
ATOM     22  O   UNL     1     -38.041  25.285   1.947  0.00  0.00    -0.506 OA
ATOM     23  H   UNL     1     -38.140  24.385   2.187  0.00  0.00    +0.292 HD
ENDBRANCH  10  22
BRANCH  11  24
ATOM     24  O   UNL     1     -33.806  28.297   3.807  0.00  0.00    -0.506 OA
ATOM     25  H   UNL     1     -33.939  29.206   3.995  0.00  0.00    +0.292 HD
ENDBRANCH  11  24
BRANCH  16  26
ATOM     26  O   UNL     1     -36.067  22.597   5.848  0.00  0.00    -0.468 OA
ATOM     27  C   UNL     1     -34.918  21.794   6.040  0.00  0.00    +0.253 C 
ENDBRANCH  16  26
TORSDOF 5
ENDMDL
MODEL 4
REMARK VINA RESULT:      -5.8      3.005      7.535
REMARK  Name = 5459130
REMARK  5 active torsions:
REMARK  status: ('A' for Active; 'I' for Inactive)
REMARK    1  A    between atoms: C_3  and  O_18
REMARK    2  A    between atoms: C_6  and  O_20
REMARK    3  A    between atoms: C_10  and  O_22
REMARK    4  A    between atoms: C_11  and  O_24
REMARK    5  A    between atoms: C_16  and  O_26
REMARK                            x       y       z     vdW  Elec       q    Type
REMARK                         _______ _______ _______ _____ _____    ______ ____
ROOT
ATOM      1  O   UNL     1     -35.175  23.659   4.341  0.00  0.00    -0.283 OA
ATOM      2  O   UNL     1     -38.145  27.145   1.590  0.00  0.00    -0.286 OA
ATOM      3  C   UNL     1     -31.956  29.392   4.323  0.00  0.00    +0.095 C 
ATOM      4  C   UNL     1     -32.427  30.053   3.019  0.00  0.00    +0.061 C 
ATOM      5  C   UNL     1     -32.254  27.884   4.294  0.00  0.00    +0.056 C 
ATOM      6  C   UNL     1     -33.929  29.859   2.779  0.00  0.00    +0.138 C 
ATOM      7  C   UNL     1     -33.624  27.531   3.762  0.00  0.00    +0.015 A 
ATOM      8  C   UNL     1     -34.395  28.446   3.024  0.00  0.00    +0.037 A 
ATOM      9  C   UNL     1     -30.458  29.629   4.537  0.00  0.00    +0.030 C 
ATOM     10  C   UNL     1     -34.109  26.230   3.972  0.00  0.00    +0.133 A 
ATOM     11  C   UNL     1     -35.649  28.049   2.530  0.00  0.00    +0.135 A 
ATOM     12  C   UNL     1     -35.358  25.842   3.472  0.00  0.00    +0.081 A 
ATOM     13  C   UNL     1     -36.128  26.753   2.753  0.00  0.00    +0.079 A 
ATOM     14  C   UNL     1     -35.845  24.469   3.711  0.00  0.00    +0.232 C 
ATOM     15  C   UNL     1     -37.447  26.362   2.222  0.00  0.00    +0.202 C 
ATOM     16  C   UNL     1     -37.173  24.100   3.163  0.00  0.00    +0.181 C 
ATOM     17  C   UNL     1     -37.907  24.982   2.476  0.00  0.00    +0.082 C 
ENDROOT
BRANCH   3  18
ATOM     18  O   UNL     1     -32.642  29.960   5.441  0.00  0.00    -0.386 OA
ATOM     19  H   UNL     1     -32.539  29.381   6.212  0.00  0.00    +0.210 HD
ENDBRANCH   3  18
BRANCH   6  20
ATOM     20  O   UNL     1     -34.678  30.723   3.631  0.00  0.00    -0.380 OA
ATOM     21  H   UNL     1     -35.507  30.288   3.886  0.00  0.00    +0.211 HD
ENDBRANCH   6  20
BRANCH  10  22
ATOM     22  O   UNL     1     -33.324  25.351   4.664  0.00  0.00    -0.506 OA
ATOM     23  H   UNL     1     -32.402  25.503   4.736  0.00  0.00    +0.292 HD
ENDBRANCH  10  22
BRANCH  11  24
ATOM     24  O   UNL     1     -36.390  28.962   1.831  0.00  0.00    -0.506 OA
ATOM     25  H   UNL     1     -35.997  29.443   1.129  0.00  0.00    +0.292 HD
ENDBRANCH  11  24
BRANCH  16  26
ATOM     26  O   UNL     1     -37.601  22.811   3.401  0.00  0.00    -0.468 OA
ATOM     27  C   UNL     1     -38.165  22.246   2.234  0.00  0.00    +0.253 C 
ENDBRANCH  16  26
TORSDOF 5
ENDMDL
MODEL 5
REMARK VINA RESULT:      -5.8      4.311      6.387
REMARK  Name = 5459130
REMARK  5 active torsions:
REMARK  status: ('A' for Active; 'I' for Inactive)
REMARK    1  A    between atoms: C_3  and  O_18
REMARK    2  A    between atoms: C_6  and  O_20
REMARK    3  A    between atoms: C_10  and  O_22
REMARK    4  A    between atoms: C_11  and  O_24
REMARK    5  A    between atoms: C_16  and  O_26
REMARK                            x       y       z     vdW  Elec       q    Type
REMARK                         _______ _______ _______ _____ _____    ______ ____
ROOT
ATOM      1  O   UNL     1     -40.601  26.526   1.843  0.00  0.00    -0.283 OA
ATOM      2  O   UNL     1     -39.971  21.316   0.844  0.00  0.00    -0.286 OA
ATOM      3  C   UNL     1     -35.015  24.635   4.749  0.00  0.00    +0.095 C 
ATOM      4  C   UNL     1     -35.262  23.148   5.047  0.00  0.00    +0.061 C 
ATOM      5  C   UNL     1     -36.346  25.351   4.470  0.00  0.00    +0.056 C 
ATOM      6  C   UNL     1     -35.965  22.432   3.888  0.00  0.00    +0.138 C 
ATOM      7  C   UNL     1     -37.289  24.583   3.571  0.00  0.00    +0.015 A 
ATOM      8  C   UNL     1     -37.129  23.208   3.325  0.00  0.00    +0.037 A 
ATOM      9  C   UNL     1     -34.291  25.306   5.920  0.00  0.00    +0.030 C 
ATOM     10  C   UNL     1     -38.384  25.262   3.013  0.00  0.00    +0.133 A 
ATOM     11  C   UNL     1     -38.055  22.544   2.503  0.00  0.00    +0.135 A 
ATOM     12  C   UNL     1     -39.305  24.590   2.200  0.00  0.00    +0.081 A 
ATOM     13  C   UNL     1     -39.138  23.232   1.944  0.00  0.00    +0.079 A 
ATOM     14  C   UNL     1     -40.445  25.331   1.623  0.00  0.00    +0.232 C 
ATOM     15  C   UNL     1     -40.097  22.509   1.088  0.00  0.00    +0.202 C 
ATOM     16  C   UNL     1     -41.396  24.580   0.769  0.00  0.00    +0.181 C 
ATOM     17  C   UNL     1     -41.228  23.276   0.526  0.00  0.00    +0.082 C 
ENDROOT
BRANCH   3  18
ATOM     18  O   UNL     1     -34.183  24.775   3.595  0.00  0.00    -0.386 OA
ATOM     19  H   UNL     1     -34.653  24.442   2.815  0.00  0.00    +0.210 HD
ENDBRANCH   3  18
BRANCH   6  20
ATOM     20  O   UNL     1     -35.043  22.192   2.827  0.00  0.00    -0.380 OA
ATOM     21  H   UNL     1     -34.216  22.668   3.003  0.00  0.00    +0.211 HD
ENDBRANCH   6  20
BRANCH  10  22
ATOM     22  O   UNL     1     -38.533  26.591   3.297  0.00  0.00    -0.506 OA
ATOM     23  H   UNL     1     -39.367  26.921   3.569  0.00  0.00    +0.292 HD
ENDBRANCH  10  22
BRANCH  11  24
ATOM     24  O   UNL     1     -37.869  21.210   2.262  0.00  0.00    -0.506 OA
ATOM     25  H   UNL     1     -37.275  20.718   2.794  0.00  0.00    +0.292 HD
ENDBRANCH  11  24
BRANCH  16  26
ATOM     26  O   UNL     1     -42.452  25.297   0.244  0.00  0.00    -0.468 OA
ATOM     27  C   UNL     1     -43.683  24.816   0.746  0.00  0.00    +0.253 C 
ENDBRANCH  16  26
TORSDOF 5
ENDMDL
MODEL 6
REMARK VINA RESULT:      -5.7      3.452      4.911
REMARK  Name = 5459130
REMARK  5 active torsions:
REMARK  status: ('A' for Active; 'I' for Inactive)
REMARK    1  A    between atoms: C_3  and  O_18
REMARK    2  A    between atoms: C_6  and  O_20
REMARK    3  A    between atoms: C_10  and  O_22
REMARK    4  A    between atoms: C_11  and  O_24
REMARK    5  A    between atoms: C_16  and  O_26
REMARK                            x       y       z     vdW  Elec       q    Type
REMARK                         _______ _______ _______ _____ _____    ______ ____
ROOT
ATOM      1  O   UNL     1     -35.202  30.236   1.896  0.00  0.00    -0.283 OA
ATOM      2  O   UNL     1     -31.974  27.375   5.047  0.00  0.00    -0.286 OA
ATOM      3  C   UNL     1     -38.086  24.410   2.882  0.00  0.00    +0.095 C 
ATOM      4  C   UNL     1     -36.897  23.468   3.123  0.00  0.00    +0.061 C 
ATOM      5  C   UNL     1     -37.610  25.709   2.213  0.00  0.00    +0.056 C 
ATOM      6  C   UNL     1     -35.820  24.106   4.009  0.00  0.00    +0.138 C 
ATOM      7  C   UNL     1     -36.343  26.285   2.803  0.00  0.00    +0.015 A 
ATOM      8  C   UNL     1     -35.487  25.523   3.618  0.00  0.00    +0.037 A 
ATOM      9  C   UNL     1     -39.147  23.728   2.014  0.00  0.00    +0.030 C 
ATOM     10  C   UNL     1     -35.992  27.606   2.477  0.00  0.00    +0.133 A 
ATOM     11  C   UNL     1     -34.308  26.106   4.113  0.00  0.00    +0.135 A 
ATOM     12  C   UNL     1     -34.812  28.175   2.972  0.00  0.00    +0.081 A 
ATOM     13  C   UNL     1     -33.973  27.426   3.791  0.00  0.00    +0.079 A 
ATOM     14  C   UNL     1     -34.471  29.568   2.617  0.00  0.00    +0.232 C 
ATOM     15  C   UNL     1     -32.728  28.012   4.322  0.00  0.00    +0.202 C 
ATOM     16  C   UNL     1     -33.212  30.132   3.161  0.00  0.00    +0.181 C 
ATOM     17  C   UNL     1     -32.412  29.405   3.949  0.00  0.00    +0.082 C 
ENDROOT
BRANCH   3  18
ATOM     18  O   UNL     1     -38.705  24.750   4.125  0.00  0.00    -0.386 OA
ATOM     19  H   UNL     1     -38.151  25.391   4.598  0.00  0.00    +0.210 HD
ENDBRANCH   3  18
BRANCH   6  20
ATOM     20  O   UNL     1     -36.246  24.113   5.370  0.00  0.00    -0.380 OA
ATOM     21  H   UNL     1     -35.566  24.532   5.920  0.00  0.00    +0.211 HD
ENDBRANCH   6  20
BRANCH  10  22
ATOM     22  O   UNL     1     -36.825  28.312   1.656  0.00  0.00    -0.506 OA
ATOM     23  H   UNL     1     -37.132  29.159   1.916  0.00  0.00    +0.292 HD
ENDBRANCH  10  22
BRANCH  11  24
ATOM     24  O   UNL     1     -33.501  25.352   4.919  0.00  0.00    -0.506 OA
ATOM     25  H   UNL     1     -33.723  24.459   5.099  0.00  0.00    +0.292 HD
ENDBRANCH  11  24
BRANCH  16  26
ATOM     26  O   UNL     1     -32.919  31.434   2.812  0.00  0.00    -0.468 OA
ATOM     27  C   UNL     1     -31.755  31.881   3.480  0.00  0.00    +0.253 C 
ENDBRANCH  16  26
TORSDOF 5
ENDMDL
MODEL 7
REMARK VINA RESULT:      -5.7      4.824      5.994
REMARK  Name = 5459130
REMARK  5 active torsions:
REMARK  status: ('A' for Active; 'I' for Inactive)
REMARK    1  A    between atoms: C_3  and  O_18
REMARK    2  A    between atoms: C_6  and  O_20
REMARK    3  A    between atoms: C_10  and  O_22
REMARK    4  A    between atoms: C_11  and  O_24
REMARK    5  A    between atoms: C_16  and  O_26
REMARK                            x       y       z     vdW  Elec       q    Type
REMARK                         _______ _______ _______ _____ _____    ______ ____
ROOT
ATOM      1  O   UNL     1     -41.805  23.259  -0.271  0.00  0.00    -0.283 OA
ATOM      2  O   UNL     1     -40.067  26.343   3.731  0.00  0.00    -0.286 OA
ATOM      3  C   UNL     1     -36.114  20.723   1.828  0.00  0.00    +0.095 C 
ATOM      4  C   UNL     1     -35.370  21.947   2.385  0.00  0.00    +0.061 C 
ATOM      5  C   UNL     1     -37.264  21.170   0.911  0.00  0.00    +0.056 C 
ATOM      6  C   UNL     1     -36.295  22.876   3.181  0.00  0.00    +0.138 C 
ATOM      7  C   UNL     1     -38.078  22.323   1.452  0.00  0.00    +0.015 A 
ATOM      8  C   UNL     1     -37.609  23.143   2.493  0.00  0.00    +0.037 A 
ATOM      9  C   UNL     1     -35.152  19.811   1.061  0.00  0.00    +0.030 C 
ATOM     10  C   UNL     1     -39.316  22.608   0.852  0.00  0.00    +0.133 A 
ATOM     11  C   UNL     1     -38.400  24.218   2.932  0.00  0.00    +0.135 A 
ATOM     12  C   UNL     1     -40.094  23.685   1.294  0.00  0.00    +0.081 A 
ATOM     13  C   UNL     1     -39.637  24.488   2.335  0.00  0.00    +0.079 A 
ATOM     14  C   UNL     1     -41.394  23.958   0.647  0.00  0.00    +0.232 C 
ATOM     15  C   UNL     1     -40.445  25.624   2.814  0.00  0.00    +0.202 C 
ATOM     16  C   UNL     1     -42.186  25.109   1.145  0.00  0.00    +0.181 C 
ATOM     17  C   UNL     1     -41.740  25.874   2.148  0.00  0.00    +0.082 C 
ENDROOT
BRANCH   3  18
ATOM     18  O   UNL     1     -36.670  19.955   2.898  0.00  0.00    -0.386 OA
ATOM     19  H   UNL     1     -36.050  19.944   3.644  0.00  0.00    +0.210 HD
ENDBRANCH   3  18
BRANCH   6  20
ATOM     20  O   UNL     1     -36.574  22.311   4.460  0.00  0.00    -0.380 OA
ATOM     21  H   UNL     1     -36.558  23.010   5.133  0.00  0.00    +0.211 HD
ENDBRANCH   6  20
BRANCH  10  22
ATOM     22  O   UNL     1     -39.732  21.815  -0.181  0.00  0.00    -0.506 OA
ATOM     23  H   UNL     1     -39.114  21.516  -0.819  0.00  0.00    +0.292 HD
ENDBRANCH  10  22
BRANCH  11  24
ATOM     24  O   UNL     1     -37.933  24.990   3.960  0.00  0.00    -0.506 OA
ATOM     25  H   UNL     1     -37.209  24.692   4.477  0.00  0.00    +0.292 HD
ENDBRANCH  11  24
BRANCH  16  26
ATOM     26  O   UNL     1     -43.395  25.341   0.523  0.00  0.00    -0.468 OA
ATOM     27  C   UNL     1     -44.467  25.161   1.428  0.00  0.00    +0.253 C 
ENDBRANCH  16  26
TORSDOF 5
ENDMDL
MODEL 8
REMARK VINA RESULT:      -5.7      2.111      3.469
REMARK  Name = 5459130
REMARK  5 active torsions:
REMARK  status: ('A' for Active; 'I' for Inactive)
REMARK    1  A    between atoms: C_3  and  O_18
REMARK    2  A    between atoms: C_6  and  O_20
REMARK    3  A    between atoms: C_10  and  O_22
REMARK    4  A    between atoms: C_11  and  O_24
REMARK    5  A    between atoms: C_16  and  O_26
REMARK                            x       y       z     vdW  Elec       q    Type
REMARK                         _______ _______ _______ _____ _____    ______ ____
ROOT
ATOM      1  O   UNL     1     -35.527  26.628   5.323  0.00  0.00    -0.283 OA
ATOM      2  O   UNL     1     -32.131  25.408   1.384  0.00  0.00    -0.286 OA
ATOM      3  C   UNL     1     -38.255  21.783   1.814  0.00  0.00    +0.095 C 
ATOM      4  C   UNL     1     -37.659  21.988   0.414  0.00  0.00    +0.061 C 
ATOM      5  C   UNL     1     -38.081  23.055   2.659  0.00  0.00    +0.056 C 
ATOM      6  C   UNL     1     -36.167  22.340   0.462  0.00  0.00    +0.138 C 
ATOM      7  C   UNL     1     -36.717  23.698   2.543  0.00  0.00    +0.015 A 
ATOM      8  C   UNL     1     -35.834  23.386   1.495  0.00  0.00    +0.037 A 
ATOM      9  C   UNL     1     -39.737  21.411   1.721  0.00  0.00    +0.030 C 
ATOM     10  C   UNL     1     -36.354  24.673   3.487  0.00  0.00    +0.133 A 
ATOM     11  C   UNL     1     -34.592  24.039   1.425  0.00  0.00    +0.135 A 
ATOM     12  C   UNL     1     -35.116  25.321   3.405  0.00  0.00    +0.081 A 
ATOM     13  C   UNL     1     -34.235  25.002   2.376  0.00  0.00    +0.079 A 
ATOM     14  C   UNL     1     -34.758  26.339   4.414  0.00  0.00    +0.232 C 
ATOM     15  C   UNL     1     -32.925  25.673   2.277  0.00  0.00    +0.202 C 
ATOM     16  C   UNL     1     -33.437  27.002   4.290  0.00  0.00    +0.181 C 
ATOM     17  C   UNL     1     -32.596  26.688   3.299  0.00  0.00    +0.082 C 
ENDROOT
BRANCH   3  18
ATOM     18  O   UNL     1     -37.587  20.710   2.483  0.00  0.00    -0.386 OA
ATOM     19  H   UNL     1     -36.680  20.978   2.699  0.00  0.00    +0.210 HD
ENDBRANCH   3  18
BRANCH   6  20
ATOM     20  O   UNL     1     -35.398  21.175   0.753  0.00  0.00    -0.380 OA
ATOM     21  H   UNL     1     -34.978  20.853  -0.061  0.00  0.00    +0.211 HD
ENDBRANCH   6  20
BRANCH  10  22
ATOM     22  O   UNL     1     -37.246  24.980   4.476  0.00  0.00    -0.506 OA
ATOM     23  H   UNL     1     -37.212  24.526   5.295  0.00  0.00    +0.292 HD
ENDBRANCH  10  22
BRANCH  11  24
ATOM     24  O   UNL     1     -33.740  23.706   0.408  0.00  0.00    -0.506 OA
ATOM     25  H   UNL     1     -33.354  22.852   0.382  0.00  0.00    +0.292 HD
ENDBRANCH  11  24
BRANCH  16  26
ATOM     26  O   UNL     1     -33.131  27.948   5.245  0.00  0.00    -0.468 OA
ATOM     27  C   UNL     1     -31.807  28.418   5.078  0.00  0.00    +0.253 C 
ENDBRANCH  16  26
TORSDOF 5
ENDMDL
MODEL 9
REMARK VINA RESULT:      -5.7      3.855      6.240
REMARK  Name = 5459130
REMARK  5 active torsions:
REMARK  status: ('A' for Active; 'I' for Inactive)
REMARK    1  A    between atoms: C_3  and  O_18
REMARK    2  A    between atoms: C_6  and  O_20
REMARK    3  A    between atoms: C_10  and  O_22
REMARK    4  A    between atoms: C_11  and  O_24
REMARK    5  A    between atoms: C_16  and  O_26
REMARK                            x       y       z     vdW  Elec       q    Type
REMARK                         _______ _______ _______ _____ _____    ______ ____
ROOT
ATOM      1  O   UNL     1     -38.706  27.731   0.529  0.00  0.00    -0.283 OA
ATOM      2  O   UNL     1     -39.748  22.549   1.303  0.00  0.00    -0.286 OA
ATOM      3  C   UNL     1     -34.455  25.529   5.036  0.00  0.00    +0.095 C 
ATOM      4  C   UNL     1     -35.220  24.375   5.702  0.00  0.00    +0.061 C 
ATOM      5  C   UNL     1     -35.427  26.438   4.266  0.00  0.00    +0.056 C 
ATOM      6  C   UNL     1     -35.983  23.519   4.684  0.00  0.00    +0.138 C 
ATOM      7  C   UNL     1     -36.461  25.693   3.452  0.00  0.00    +0.015 A 
ATOM      8  C   UNL     1     -36.745  24.334   3.671  0.00  0.00    +0.037 A 
ATOM      9  C   UNL     1     -33.690  26.344   6.082  0.00  0.00    +0.030 C 
ATOM     10  C   UNL     1     -37.193  26.405   2.487  0.00  0.00    +0.133 A 
ATOM     11  C   UNL     1     -37.738  23.705   2.901  0.00  0.00    +0.135 A 
ATOM     12  C   UNL     1     -38.185  25.771   1.729  0.00  0.00    +0.081 A 
ATOM     13  C   UNL     1     -38.455  24.421   1.935  0.00  0.00    +0.079 A 
ATOM     14  C   UNL     1     -38.935  26.543   0.718  0.00  0.00    +0.232 C 
ATOM     15  C   UNL     1     -39.494  23.737   1.143  0.00  0.00    +0.202 C 
ATOM     16  C   UNL     1     -39.977  25.832  -0.062  0.00  0.00    +0.181 C 
ATOM     17  C   UNL     1     -40.229  24.534   0.141  0.00  0.00    +0.082 C 
ENDROOT
BRANCH   3  18
ATOM     18  O   UNL     1     -33.496  25.015   4.109  0.00  0.00    -0.386 OA
ATOM     19  H   UNL     1     -32.666  24.826   4.573  0.00  0.00    +0.210 HD
ENDBRANCH   3  18
BRANCH   6  20
ATOM     20  O   UNL     1     -35.077  22.674   3.978  0.00  0.00    -0.380 OA
ATOM     21  H   UNL     1     -35.126  22.868   3.029  0.00  0.00    +0.211 HD
ENDBRANCH   6  20
BRANCH  10  22
ATOM     22  O   UNL     1     -36.920  27.734   2.318  0.00  0.00    -0.506 OA
ATOM     23  H   UNL     1     -37.588  28.373   2.472  0.00  0.00    +0.292 HD
ENDBRANCH  10  22
BRANCH  11  24
ATOM     24  O   UNL     1     -37.983  22.377   3.118  0.00  0.00    -0.506 OA
ATOM     25  H   UNL     1     -37.418  21.883   3.680  0.00  0.00    +0.292 HD
ENDBRANCH  11  24
BRANCH  16  26
ATOM     26  O   UNL     1     -40.662  26.578  -0.999  0.00  0.00    -0.468 OA
ATOM     27  C   UNL     1     -42.038  26.647  -0.676  0.00  0.00    +0.253 C 
ENDBRANCH  16  26
TORSDOF 5
ENDMDL
