MODEL 1
REMARK VINA RESULT:      -6.2      0.000      0.000
REMARK  Name = 512709
REMARK  4 active torsions:
REMARK  status: ('A' for Active; 'I' for Inactive)
REMARK    1  A    between atoms: C_6  and  C_16
REMARK    2  A    between atoms: C_15  and  O_21
REMARK    3  A    between atoms: C_17  and  O_23
REMARK    4  A    between atoms: C_18  and  C_20
REMARK                            x       y       z     vdW  Elec       q    Type
REMARK                         _______ _______ _______ _____ _____    ______ ____
ROOT
ATOM      1  N   UNL     1     -36.169  22.215   5.063  0.00  0.00    -0.251 N 
ATOM      2  N   UNL     1     -35.880  23.421   5.592  0.00  0.00    -0.181 NA
ATOM      3  N   UNL     1     -34.685  23.611   2.244  0.00  0.00    -0.245 NA
ATOM      4  N   UNL     1     -34.222  25.785   3.365  0.00  0.00    -0.229 NA
ATOM      5  N   UNL     1     -34.807  26.262   5.657  0.00  0.00    -0.342 N 
ATOM      6  C   UNL     1     -35.792  22.063   3.765  0.00  0.00    +0.158 C 
ATOM      7  C   UNL     1     -35.221  23.254   3.432  0.00  0.00    +0.099 C 
ATOM      8  C   UNL     1     -35.285  24.097   4.593  0.00  0.00    +0.144 C 
ATOM      9  C   UNL     1     -34.769  25.398   4.551  0.00  0.00    +0.143 C 
ATOM     10  C   UNL     1     -34.217  24.891   2.322  0.00  0.00    +0.252 C 
ATOM     11  H   UNL     1     -36.615  21.502   5.576  0.00  0.00    +0.169 HD
ATOM     12  H   UNL     1     -34.432  27.170   5.585  0.00  0.00    +0.144 HD
ATOM     13  H   UNL     1     -35.208  25.960   6.504  0.00  0.00    +0.144 HD
ENDROOT
BRANCH   6  16
ATOM     14  O   UNL     1     -34.755  20.246   2.581  0.00  0.00    -0.350 OA
ATOM     15  C   UNL     1     -36.839  20.974   1.726  0.00  0.00    +0.169 C 
ATOM     16  C   UNL     1     -36.027  20.784   2.998  0.00  0.00    +0.169 C 
ATOM     17  C   UNL     1     -36.350  19.826   0.864  0.00  0.00    +0.168 C 
ATOM     18  C   UNL     1     -34.871  19.747   1.228  0.00  0.00    +0.161 C 
BRANCH  18  20
ATOM     19 CL   UNL     1     -32.299  20.086   0.452  0.00  0.00    -0.111 Cl
ATOM     20  C   UNL     1     -33.991  20.601   0.327  0.00  0.00    +0.127 C 
ENDBRANCH  18  20
BRANCH  15  21
ATOM     21  O   UNL     1     -38.229  20.921   1.976  0.00  0.00    -0.379 OA
ATOM     22  H   UNL     1     -38.476  21.636   2.583  0.00  0.00    +0.211 HD
ENDBRANCH  15  21
BRANCH  17  23
ATOM     23  O   UNL     1     -36.993  18.606   1.230  0.00  0.00    -0.379 OA
ATOM     24  H   UNL     1     -36.380  17.866   1.097  0.00  0.00    +0.211 HD
ENDBRANCH  17  23
ENDBRANCH   6  16
TORSDOF 4
ENDMDL
MODEL 2
REMARK VINA RESULT:      -6.1      4.488      5.912
REMARK  Name = 512709
REMARK  4 active torsions:
REMARK  status: ('A' for Active; 'I' for Inactive)
REMARK    1  A    between atoms: C_6  and  C_16
REMARK    2  A    between atoms: C_15  and  O_21
REMARK    3  A    between atoms: C_17  and  O_23
REMARK    4  A    between atoms: C_18  and  C_20
REMARK                            x       y       z     vdW  Elec       q    Type
REMARK                         _______ _______ _______ _____ _____    ______ ____
ROOT
ATOM      1  N   UNL     1     -38.401  26.367   2.887  0.00  0.00    -0.251 N 
ATOM      2  N   UNL     1     -39.623  26.172   2.351  0.00  0.00    -0.181 NA
ATOM      3  N   UNL     1     -38.184  22.919   2.483  0.00  0.00    -0.245 NA
ATOM      4  N   UNL     1     -40.467  22.727   1.508  0.00  0.00    -0.229 NA
ATOM      5  N   UNL     1     -41.940  24.607   1.166  0.00  0.00    -0.342 N 
ATOM      6  C   UNL     1     -37.661  25.234   3.032  0.00  0.00    +0.158 C 
ATOM      7  C   UNL     1     -38.461  24.239   2.557  0.00  0.00    +0.099 C 
ATOM      8  C   UNL     1     -39.692  24.847   2.133  0.00  0.00    +0.144 C 
ATOM      9  C   UNL     1     -40.719  24.063   1.594  0.00  0.00    +0.143 C 
ATOM     10  C   UNL     1     -39.251  22.259   1.945  0.00  0.00    +0.252 C 
ATOM     11  H   UNL     1     -38.071  27.256   3.151  0.00  0.00    +0.169 HD
ATOM     12  H   UNL     1     -42.637  24.019   0.791  0.00  0.00    +0.144 HD
ATOM     13  H   UNL     1     -42.100  25.575   1.238  0.00  0.00    +0.144 HD
ENDROOT
BRANCH   6  16
ATOM     14  O   UNL     1     -35.593  24.027   3.235  0.00  0.00    -0.350 OA
ATOM     15  C   UNL     1     -36.237  25.291   5.131  0.00  0.00    +0.169 C 
ATOM     16  C   UNL     1     -36.268  25.246   3.611  0.00  0.00    +0.169 C 
ATOM     17  C   UNL     1     -34.915  24.615   5.441  0.00  0.00    +0.168 C 
ATOM     18  C   UNL     1     -34.837  23.535   4.366  0.00  0.00    +0.161 C 
BRANCH  18  20
ATOM     19 CL   UNL     1     -35.402  22.077   6.577  0.00  0.00    -0.111 Cl
ATOM     20  C   UNL     1     -35.446  22.212   4.809  0.00  0.00    +0.127 C 
ENDBRANCH  18  20
BRANCH  15  21
ATOM     21  O   UNL     1     -36.306  26.615   5.620  0.00  0.00    -0.379 OA
ATOM     22  H   UNL     1     -35.413  26.993   5.656  0.00  0.00    +0.211 HD
ENDBRANCH  15  21
BRANCH  17  23
ATOM     23  O   UNL     1     -33.828  25.525   5.277  0.00  0.00    -0.379 OA
ATOM     24  H   UNL     1     -34.156  26.435   5.347  0.00  0.00    +0.211 HD
ENDBRANCH  17  23
ENDBRANCH   6  16
TORSDOF 4
ENDMDL
MODEL 3
REMARK VINA RESULT:      -6.1      4.751      5.894
REMARK  Name = 512709
REMARK  4 active torsions:
REMARK  status: ('A' for Active; 'I' for Inactive)
REMARK    1  A    between atoms: C_6  and  C_16
REMARK    2  A    between atoms: C_15  and  O_21
REMARK    3  A    between atoms: C_17  and  O_23
REMARK    4  A    between atoms: C_18  and  C_20
REMARK                            x       y       z     vdW  Elec       q    Type
REMARK                         _______ _______ _______ _____ _____    ______ ____
ROOT
ATOM      1  N   UNL     1     -38.440  24.632   3.957  0.00  0.00    -0.251 N 
ATOM      2  N   UNL     1     -39.728  24.826   3.609  0.00  0.00    -0.181 NA
ATOM      3  N   UNL     1     -37.889  26.938   1.413  0.00  0.00    -0.245 NA
ATOM      4  N   UNL     1     -40.310  27.184   0.890  0.00  0.00    -0.229 NA
ATOM      5  N   UNL     1     -42.059  25.996   2.051  0.00  0.00    -0.342 N 
ATOM      6  C   UNL     1     -37.545  25.356   3.232  0.00  0.00    +0.158 C 
ATOM      7  C   UNL     1     -38.307  26.065   2.354  0.00  0.00    +0.099 C 
ATOM      8  C   UNL     1     -39.679  25.719   2.605  0.00  0.00    +0.144 C 
ATOM      9  C   UNL     1     -40.704  26.300   1.847  0.00  0.00    +0.143 C 
ATOM     10  C   UNL     1     -38.968  27.437   0.741  0.00  0.00    +0.252 C 
ATOM     11  H   UNL     1     -38.170  24.018   4.678  0.00  0.00    +0.169 HD
ATOM     12  H   UNL     1     -42.750  26.427   1.497  0.00  0.00    +0.144 HD
ATOM     13  H   UNL     1     -42.320  25.353   2.750  0.00  0.00    +0.144 HD
ENDROOT
BRANCH   6  16
ATOM     14  O   UNL     1     -35.689  23.901   3.700  0.00  0.00    -0.350 OA
ATOM     15  C   UNL     1     -35.595  26.044   4.702  0.00  0.00    +0.169 C 
ATOM     16  C   UNL     1     -36.057  25.278   3.472  0.00  0.00    +0.169 C 
ATOM     17  C   UNL     1     -34.345  25.281   5.100  0.00  0.00    +0.168 C 
ATOM     18  C   UNL     1     -34.721  23.840   4.773  0.00  0.00    +0.161 C 
BRANCH  18  20
ATOM     19 CL   UNL     1     -35.082  21.366   5.813  0.00  0.00    -0.111 Cl
ATOM     20  C   UNL     1     -35.357  23.112   5.949  0.00  0.00    +0.127 C 
ENDBRANCH  18  20
BRANCH  15  21
ATOM     21  O   UNL     1     -35.341  27.403   4.411  0.00  0.00    -0.379 OA
ATOM     22  H   UNL     1     -35.473  27.561   3.463  0.00  0.00    +0.211 HD
ENDBRANCH  15  21
BRANCH  17  23
ATOM     23  O   UNL     1     -33.233  25.674   4.295  0.00  0.00    -0.379 OA
ATOM     24  H   UNL     1     -32.704  26.329   4.775  0.00  0.00    +0.211 HD
ENDBRANCH  17  23
ENDBRANCH   6  16
TORSDOF 4
ENDMDL
MODEL 4
REMARK VINA RESULT:      -6.0      1.528      2.042
REMARK  Name = 512709
REMARK  4 active torsions:
REMARK  status: ('A' for Active; 'I' for Inactive)
REMARK    1  A    between atoms: C_6  and  C_16
REMARK    2  A    between atoms: C_15  and  O_21
REMARK    3  A    between atoms: C_17  and  O_23
REMARK    4  A    between atoms: C_18  and  C_20
REMARK                            x       y       z     vdW  Elec       q    Type
REMARK                         _______ _______ _______ _____ _____    ______ ____
ROOT
ATOM      1  N   UNL     1     -37.494  23.029   2.000  0.00  0.00    -0.251 N 
ATOM      2  N   UNL     1     -37.459  24.229   2.612  0.00  0.00    -0.181 NA
ATOM      3  N   UNL     1     -35.524  22.106   4.713  0.00  0.00    -0.245 NA
ATOM      4  N   UNL     1     -35.556  24.383   5.718  0.00  0.00    -0.229 NA
ATOM      5  N   UNL     1     -36.713  26.262   4.743  0.00  0.00    -0.342 N 
ATOM      6  C   UNL     1     -36.805  22.047   2.643  0.00  0.00    +0.158 C 
ATOM      7  C   UNL     1     -36.290  22.656   3.747  0.00  0.00    +0.099 C 
ATOM      8  C   UNL     1     -36.711  24.029   3.711  0.00  0.00    +0.144 C 
ATOM      9  C   UNL     1     -36.329  24.912   4.730  0.00  0.00    +0.143 C 
ATOM     10  C   UNL     1     -35.214  23.054   5.646  0.00  0.00    +0.252 C 
ATOM     11  H   UNL     1     -37.979  22.875   1.157  0.00  0.00    +0.169 HD
ATOM     12  H   UNL     1     -36.423  26.849   5.478  0.00  0.00    +0.144 HD
ATOM     13  H   UNL     1     -37.273  26.622   4.017  0.00  0.00    +0.144 HD
ENDROOT
BRANCH   6  16
ATOM     14  O   UNL     1     -35.340  20.249   2.013  0.00  0.00    -0.350 OA
ATOM     15  C   UNL     1     -37.313  20.468   0.722  0.00  0.00    +0.169 C 
ATOM     16  C   UNL     1     -36.727  20.635   2.116  0.00  0.00    +0.169 C 
ATOM     17  C   UNL     1     -36.529  19.285   0.188  0.00  0.00    +0.168 C 
ATOM     18  C   UNL     1     -35.143  19.512   0.783  0.00  0.00    +0.161 C 
BRANCH  18  20
ATOM     19 CL   UNL     1     -32.553  20.213   0.422  0.00  0.00    -0.111 Cl
ATOM     20  C   UNL     1     -34.236  20.331  -0.124  0.00  0.00    +0.127 C 
ENDBRANCH  18  20
BRANCH  15  21
ATOM     21  O   UNL     1     -38.706  20.232   0.763  0.00  0.00    -0.379 OA
ATOM     22  H   UNL     1     -38.871  19.279   0.838  0.00  0.00    +0.211 HD
ENDBRANCH  15  21
BRANCH  17  23
ATOM     23  O   UNL     1     -37.061  18.057   0.685  0.00  0.00    -0.379 OA
ATOM     24  H   UNL     1     -37.955  17.926   0.332  0.00  0.00    +0.211 HD
ENDBRANCH  17  23
ENDBRANCH   6  16
TORSDOF 4
ENDMDL
MODEL 5
REMARK VINA RESULT:      -5.8      4.157      5.886
REMARK  Name = 512709
REMARK  4 active torsions:
REMARK  status: ('A' for Active; 'I' for Inactive)
REMARK    1  A    between atoms: C_6  and  C_16
REMARK    2  A    between atoms: C_15  and  O_21
REMARK    3  A    between atoms: C_17  and  O_23
REMARK    4  A    between atoms: C_18  and  C_20
REMARK                            x       y       z     vdW  Elec       q    Type
REMARK                         _______ _______ _______ _____ _____    ______ ____
ROOT
ATOM      1  N   UNL     1     -37.185  22.100   2.638  0.00  0.00    -0.251 N 
ATOM      2  N   UNL     1     -38.181  21.458   1.994  0.00  0.00    -0.181 NA
ATOM      3  N   UNL     1     -39.135  24.886   1.907  0.00  0.00    -0.245 NA
ATOM      4  N   UNL     1     -40.888  23.556   0.745  0.00  0.00    -0.229 NA
ATOM      5  N   UNL     1     -40.797  21.160   0.480  0.00  0.00    -0.342 N 
ATOM      6  C   UNL     1     -37.346  23.449   2.725  0.00  0.00    +0.158 C 
ATOM      7  C   UNL     1     -38.528  23.694   2.092  0.00  0.00    +0.099 C 
ATOM      8  C   UNL     1     -39.038  22.431   1.638  0.00  0.00    +0.144 C 
ATOM      9  C   UNL     1     -40.255  22.368   0.946  0.00  0.00    +0.143 C 
ATOM     10  C   UNL     1     -40.303  24.703   1.225  0.00  0.00    +0.252 C 
ATOM     11  H   UNL     1     -36.406  21.632   3.016  0.00  0.00    +0.169 HD
ATOM     12  H   UNL     1     -41.656  21.159  -0.002  0.00  0.00    +0.144 HD
ATOM     13  H   UNL     1     -40.321  20.313   0.637  0.00  0.00    +0.144 HD
ENDROOT
BRANCH   6  16
ATOM     14  O   UNL     1     -35.267  23.530   3.927  0.00  0.00    -0.350 OA
ATOM     15  C   UNL     1     -36.907  25.098   4.602  0.00  0.00    +0.169 C 
ATOM     16  C   UNL     1     -36.341  24.342   3.409  0.00  0.00    +0.169 C 
ATOM     17  C   UNL     1     -35.673  25.308   5.458  0.00  0.00    +0.168 C 
ATOM     18  C   UNL     1     -34.896  24.013   5.239  0.00  0.00    +0.161 C 
BRANCH  18  20
ATOM     19 CL   UNL     1     -35.100  21.329   5.524  0.00  0.00    -0.111 Cl
ATOM     20  C   UNL     1     -35.238  22.937   6.259  0.00  0.00    +0.127 C 
ENDBRANCH  18  20
BRANCH  15  21
ATOM     21  O   UNL     1     -37.519  26.311   4.213  0.00  0.00    -0.379 OA
ATOM     22  H   UNL     1     -37.656  26.870   4.995  0.00  0.00    +0.211 HD
ENDBRANCH  15  21
BRANCH  17  23
ATOM     23  O   UNL     1     -34.902  26.409   4.979  0.00  0.00    -0.379 OA
ATOM     24  H   UNL     1     -34.469  26.850   5.726  0.00  0.00    +0.211 HD
ENDBRANCH  17  23
ENDBRANCH   6  16
TORSDOF 4
ENDMDL
MODEL 6
REMARK VINA RESULT:      -5.7      1.876      1.915
REMARK  Name = 512709
REMARK  4 active torsions:
REMARK  status: ('A' for Active; 'I' for Inactive)
REMARK    1  A    between atoms: C_6  and  C_16
REMARK    2  A    between atoms: C_15  and  O_21
REMARK    3  A    between atoms: C_17  and  O_23
REMARK    4  A    between atoms: C_18  and  C_20
REMARK                            x       y       z     vdW  Elec       q    Type
REMARK                         _______ _______ _______ _____ _____    ______ ____
ROOT
ATOM      1  N   UNL     1     -36.712  22.575   3.858  0.00  0.00    -0.251 N 
ATOM      2  N   UNL     1     -36.898  23.747   4.499  0.00  0.00    -0.181 NA
ATOM      3  N   UNL     1     -34.163  24.360   2.304  0.00  0.00    -0.245 NA
ATOM      4  N   UNL     1     -34.634  26.450   3.571  0.00  0.00    -0.229 NA
ATOM      5  N   UNL     1     -36.386  26.654   5.217  0.00  0.00    -0.342 N 
ATOM      6  C   UNL     1     -35.696  22.581   2.953  0.00  0.00    +0.158 C 
ATOM      7  C   UNL     1     -35.191  23.845   3.013  0.00  0.00    +0.099 C 
ATOM      8  C   UNL     1     -35.959  24.565   3.991  0.00  0.00    +0.144 C 
ATOM      9  C   UNL     1     -35.667  25.905   4.272  0.00  0.00    +0.143 C 
ATOM     10  C   UNL     1     -33.971  25.664   2.660  0.00  0.00    +0.252 C 
ATOM     11  H   UNL     1     -37.266  21.780   4.032  0.00  0.00    +0.169 HD
ATOM     12  H   UNL     1     -36.148  27.594   5.386  0.00  0.00    +0.144 HD
ATOM     13  H   UNL     1     -37.129  26.238   5.712  0.00  0.00    +0.144 HD
ENDROOT
BRANCH   6  16
ATOM     14  O   UNL     1     -34.687  21.794   0.919  0.00  0.00    -0.350 OA
ATOM     15  C   UNL     1     -36.531  20.535   1.706  0.00  0.00    +0.169 C 
ATOM     16  C   UNL     1     -35.331  21.366   2.137  0.00  0.00    +0.169 C 
ATOM     17  C   UNL     1     -36.026  19.886   0.432  0.00  0.00    +0.168 C 
ATOM     18  C   UNL     1     -35.168  20.987  -0.182  0.00  0.00    +0.161 C 
BRANCH  18  20
ATOM     19 CL   UNL     1     -37.199  20.956  -1.971  0.00  0.00    -0.111 Cl
ATOM     20  C   UNL     1     -35.948  21.888  -1.128  0.00  0.00    +0.127 C 
ENDBRANCH  18  20
BRANCH  15  21
ATOM     21  O   UNL     1     -36.901  19.594   2.694  0.00  0.00    -0.379 OA
ATOM     22  H   UNL     1     -36.211  18.916   2.770  0.00  0.00    +0.211 HD
ENDBRANCH  15  21
BRANCH  17  23
ATOM     23  O   UNL     1     -35.204  18.757   0.729  0.00  0.00    -0.379 OA
ATOM     24  H   UNL     1     -35.291  18.100   0.021  0.00  0.00    +0.211 HD
ENDBRANCH  17  23
ENDBRANCH   6  16
TORSDOF 4
ENDMDL
MODEL 7
REMARK VINA RESULT:      -5.6      1.587      2.245
REMARK  Name = 512709
REMARK  4 active torsions:
REMARK  status: ('A' for Active; 'I' for Inactive)
REMARK    1  A    between atoms: C_6  and  C_16
REMARK    2  A    between atoms: C_15  and  O_21
REMARK    3  A    between atoms: C_17  and  O_23
REMARK    4  A    between atoms: C_18  and  C_20
REMARK                            x       y       z     vdW  Elec       q    Type
REMARK                         _______ _______ _______ _____ _____    ______ ____
ROOT
ATOM      1  N   UNL     1     -36.705  24.641   2.029  0.00  0.00    -0.251 N 
ATOM      2  N   UNL     1     -36.495  25.970   2.120  0.00  0.00    -0.181 NA
ATOM      3  N   UNL     1     -34.520  24.578   4.734  0.00  0.00    -0.245 NA
ATOM      4  N   UNL     1     -34.235  27.050   4.770  0.00  0.00    -0.229 NA
ATOM      5  N   UNL     1     -35.330  28.548   3.227  0.00  0.00    -0.342 N 
ATOM      6  C   UNL     1     -36.034  23.899   2.951  0.00  0.00    +0.158 C 
ATOM      7  C   UNL     1     -35.343  24.811   3.689  0.00  0.00    +0.099 C 
ATOM      8  C   UNL     1     -35.644  26.109   3.152  0.00  0.00    +0.144 C 
ATOM      9  C   UNL     1     -35.070  27.257   3.714  0.00  0.00    +0.143 C 
ATOM     10  C   UNL     1     -34.022  25.762   5.197  0.00  0.00    +0.252 C 
ATOM     11  H   UNL     1     -37.297  24.241   1.351  0.00  0.00    +0.169 HD
ATOM     12  H   UNL     1     -34.906  29.329   3.652  0.00  0.00    +0.144 HD
ATOM     13  H   UNL     1     -35.937  28.673   2.462  0.00  0.00    +0.144 HD
ENDROOT
BRANCH   6  16
ATOM     14  O   UNL     1     -34.835  21.822   2.796  0.00  0.00    -0.350 OA
ATOM     15  C   UNL     1     -37.043  21.801   1.942  0.00  0.00    +0.169 C 
ATOM     16  C   UNL     1     -36.141  22.395   3.013  0.00  0.00    +0.169 C 
ATOM     17  C   UNL     1     -36.457  20.413   1.767  0.00  0.00    +0.168 C 
ATOM     18  C   UNL     1     -34.962  20.663   1.939  0.00  0.00    +0.161 C 
BRANCH  18  20
ATOM     19 CL   UNL     1     -32.759  20.022   0.502  0.00  0.00    -0.111 Cl
ATOM     20  C   UNL     1     -34.257  20.963   0.624  0.00  0.00    +0.127 C 
ENDBRANCH  18  20
BRANCH  15  21
ATOM     21  O   UNL     1     -38.397  21.780   2.346  0.00  0.00    -0.379 OA
ATOM     22  H   UNL     1     -38.969  21.820   1.564  0.00  0.00    +0.211 HD
ENDBRANCH  15  21
BRANCH  17  23
ATOM     23  O   UNL     1     -36.911  19.537   2.799  0.00  0.00    -0.379 OA
ATOM     24  H   UNL     1     -36.319  19.606   3.564  0.00  0.00    +0.211 HD
ENDBRANCH  17  23
ENDBRANCH   6  16
TORSDOF 4
ENDMDL
MODEL 8
REMARK VINA RESULT:      -5.6      4.545      5.785
REMARK  Name = 512709
REMARK  4 active torsions:
REMARK  status: ('A' for Active; 'I' for Inactive)
REMARK    1  A    between atoms: C_6  and  C_16
REMARK    2  A    between atoms: C_15  and  O_21
REMARK    3  A    between atoms: C_17  and  O_23
REMARK    4  A    between atoms: C_18  and  C_20
REMARK                            x       y       z     vdW  Elec       q    Type
REMARK                         _______ _______ _______ _____ _____    ______ ____
ROOT
ATOM      1  N   UNL     1     -37.297  24.643   4.386  0.00  0.00    -0.251 N 
ATOM      2  N   UNL     1     -36.452  23.953   5.178  0.00  0.00    -0.181 NA
ATOM      3  N   UNL     1     -36.785  21.934   2.266  0.00  0.00    -0.245 NA
ATOM      4  N   UNL     1     -35.239  20.786   3.842  0.00  0.00    -0.229 NA
ATOM      5  N   UNL     1     -34.620  21.673   5.999  0.00  0.00    -0.342 N 
ATOM      6  C   UNL     1     -37.571  24.044   3.195  0.00  0.00    +0.158 C 
ATOM      7  C   UNL     1     -36.853  22.887   3.221  0.00  0.00    +0.099 C 
ATOM      8  C   UNL     1     -36.154  22.846   4.475  0.00  0.00    +0.144 C 
ATOM      9  C   UNL     1     -35.325  21.761   4.788  0.00  0.00    +0.143 C 
ATOM     10  C   UNL     1     -35.954  20.933   2.678  0.00  0.00    +0.252 C 
ATOM     11  H   UNL     1     -37.685  25.509   4.648  0.00  0.00    +0.169 HD
ATOM     12  H   UNL     1     -34.048  20.892   6.180  0.00  0.00    +0.144 HD
ATOM     13  H   UNL     1     -34.699  22.391   6.668  0.00  0.00    +0.144 HD
ENDROOT
BRANCH   6  16
ATOM     14  O   UNL     1     -38.931  25.949   2.649  0.00  0.00    -0.350 OA
ATOM     15  C   UNL     1     -39.764  23.852   1.932  0.00  0.00    +0.169 C 
ATOM     16  C   UNL     1     -38.496  24.658   2.173  0.00  0.00    +0.169 C 
ATOM     17  C   UNL     1     -40.742  24.924   1.491  0.00  0.00    +0.168 C 
ATOM     18  C   UNL     1     -40.338  26.114   2.355  0.00  0.00    +0.161 C 
BRANCH  18  20
ATOM     19 CL   UNL     1     -42.224  27.544   3.670  0.00  0.00    -0.111 Cl
ATOM     20  C   UNL     1     -41.097  26.175   3.673  0.00  0.00    +0.127 C 
ENDBRANCH  18  20
BRANCH  15  21
ATOM     21  O   UNL     1     -39.570  22.848   0.956  0.00  0.00    -0.379 OA
ATOM     22  H   UNL     1     -40.430  22.576   0.597  0.00  0.00    +0.211 HD
ENDBRANCH  15  21
BRANCH  17  23
ATOM     23  O   UNL     1     -40.550  25.252   0.115  0.00  0.00    -0.379 OA
ATOM     24  H   UNL     1     -40.890  24.532  -0.438  0.00  0.00    +0.211 HD
ENDBRANCH  17  23
ENDBRANCH   6  16
TORSDOF 4
ENDMDL
MODEL 9
REMARK VINA RESULT:      -5.6      3.416      4.967
REMARK  Name = 512709
REMARK  4 active torsions:
REMARK  status: ('A' for Active; 'I' for Inactive)
REMARK    1  A    between atoms: C_6  and  C_16
REMARK    2  A    between atoms: C_15  and  O_21
REMARK    3  A    between atoms: C_17  and  O_23
REMARK    4  A    between atoms: C_18  and  C_20
REMARK                            x       y       z     vdW  Elec       q    Type
REMARK                         _______ _______ _______ _____ _____    ______ ____
ROOT
ATOM      1  N   UNL     1     -34.623  27.160   2.737  0.00  0.00    -0.251 N 
ATOM      2  N   UNL     1     -33.451  27.825   2.786  0.00  0.00    -0.181 NA
ATOM      3  N   UNL     1     -33.884  26.548   6.080  0.00  0.00    -0.245 NA
ATOM      4  N   UNL     1     -31.742  27.812   6.006  0.00  0.00    -0.229 NA
ATOM      5  N   UNL     1     -30.903  28.913   4.030  0.00  0.00    -0.342 N 
ATOM      6  C   UNL     1     -34.993  26.580   3.911  0.00  0.00    +0.158 C 
ATOM      7  C   UNL     1     -33.990  26.892   4.778  0.00  0.00    +0.099 C 
ATOM      8  C   UNL     1     -33.028  27.675   4.053  0.00  0.00    +0.144 C 
ATOM      9  C   UNL     1     -31.873  28.145   4.692  0.00  0.00    +0.143 C 
ATOM     10  C   UNL     1     -32.727  27.057   6.595  0.00  0.00    +0.252 C 
ATOM     11  H   UNL     1     -35.168  27.101   1.919  0.00  0.00    +0.169 HD
ATOM     12  H   UNL     1     -30.105  29.224   4.516  0.00  0.00    +0.144 HD
ATOM     13  H   UNL     1     -31.020  29.141   3.079  0.00  0.00    +0.144 HD
ENDROOT
BRANCH   6  16
ATOM     14  O   UNL     1     -35.950  24.431   4.404  0.00  0.00    -0.350 OA
ATOM     15  C   UNL     1     -37.096  25.720   2.781  0.00  0.00    +0.169 C 
ATOM     16  C   UNL     1     -36.273  25.794   4.059  0.00  0.00    +0.169 C 
ATOM     17  C   UNL     1     -37.847  24.415   2.964  0.00  0.00    +0.168 C 
ATOM     18  C   UNL     1     -36.816  23.537   3.667  0.00  0.00    +0.161 C 
BRANCH  18  20
ATOM     19 CL   UNL     1     -35.462  21.204   3.439  0.00  0.00    -0.111 Cl
ATOM     20  C   UNL     1     -35.961  22.735   2.697  0.00  0.00    +0.127 C 
ENDBRANCH  18  20
BRANCH  15  21
ATOM     21  O   UNL     1     -37.954  26.834   2.643  0.00  0.00    -0.379 OA
ATOM     22  H   UNL     1     -38.630  26.811   3.338  0.00  0.00    +0.211 HD
ENDBRANCH  15  21
BRANCH  17  23
ATOM     23  O   UNL     1     -38.976  24.594   3.819  0.00  0.00    -0.379 OA
ATOM     24  H   UNL     1     -39.227  23.741   4.205  0.00  0.00    +0.211 HD
ENDBRANCH  17  23
ENDBRANCH   6  16
TORSDOF 4
ENDMDL
