MODEL 1
REMARK VINA RESULT:      -5.9      0.000      0.000
REMARK  Name = 194192
REMARK  4 active torsions:
REMARK  status: ('A' for Active; 'I' for Inactive)
REMARK    1  A    between atoms: C_1  and  N_13
REMARK    2  A    between atoms: C_2  and  C_9
REMARK    3  A    between atoms: C_3  and  O_22
REMARK    4  A    between atoms: C_14  and  C_20
REMARK                            x       y       z     vdW  Elec       q    Type
REMARK                         _______ _______ _______ _____ _____    ______ ____
ROOT
ATOM      1  C   UNL     1     -35.012  25.176   4.884  0.00  0.00    +0.058 C 
ATOM      2  C   UNL     1     -36.135  24.841   4.126  0.00  0.00    +0.100 C 
ATOM      3  C   UNL     1     -36.597  23.526   4.108  0.00  0.00    +0.144 C 
ATOM      4  C   UNL     1     -34.353  24.195   5.624  0.00  0.00    +0.015 C 
ATOM      5  C   UNL     1     -35.937  22.545   4.848  0.00  0.00    +0.037 C 
ATOM      6  C   UNL     1     -34.816  22.879   5.606  0.00  0.00    +0.004 C 
ENDROOT
BRANCH   2   9
ATOM      7  O   UNL     1     -36.273  26.450   2.412  0.00  0.00    -0.270 OA
ATOM      8  N   UNL     1     -38.154  26.130   3.684  0.00  0.00    -0.325 N 
ATOM      9  C   UNL     1     -36.834  25.861   3.348  0.00  0.00    +0.247 C 
ATOM     10  H   UNL     1     -38.660  26.811   3.183  0.00  0.00    +0.145 HD
ATOM     11  H   UNL     1     -38.585  25.642   4.423  0.00  0.00    +0.145 HD
ENDBRANCH   2   9
BRANCH   1  13
ATOM     12  O   UNL     1     -32.566  26.349   3.661  0.00  0.00    -0.258 OA
ATOM     13  N   UNL     1     -34.530  26.488   4.920  0.00  0.00    -0.272 N 
ATOM     14  C   UNL     1     -33.365  27.001   4.326  0.00  0.00    +0.316 C 
ATOM     15  H   UNL     1     -35.076  27.134   5.425  0.00  0.00    +0.156 HD
BRANCH  14  20
ATOM     16  N   UNL     1     -32.443  28.899   5.518  0.00  0.00    -0.105 NA
ATOM     17  N   UNL     1     -33.690  29.355   3.684  0.00  0.00    -0.082 NA
ATOM     18  N   UNL     1     -32.562  30.207   5.250  0.00  0.00    -0.140 N 
ATOM     19  N   UNL     1     -33.292  30.523   4.172  0.00  0.00    -0.022 NA
ATOM     20  C   UNL     1     -33.160  28.447   4.515  0.00  0.00    +0.128 C 
ATOM     21  H   UNL     1     -32.139  30.894   5.813  0.00  0.00    +0.197 HD
ENDBRANCH  14  20
ENDBRANCH   1  13
BRANCH   3  22
ATOM     22  O   UNL     1     -37.692  23.176   3.375  0.00  0.00    -0.471 OA
ATOM     23  C   UNL     1     -37.483  22.276   2.288  0.00  0.00    +0.252 C 
ENDBRANCH   3  22
TORSDOF 4
ENDMDL
MODEL 2
REMARK VINA RESULT:      -5.8      3.212      6.633
REMARK  Name = 194192
REMARK  4 active torsions:
REMARK  status: ('A' for Active; 'I' for Inactive)
REMARK    1  A    between atoms: C_1  and  N_13
REMARK    2  A    between atoms: C_2  and  C_9
REMARK    3  A    between atoms: C_3  and  O_22
REMARK    4  A    between atoms: C_14  and  C_20
REMARK                            x       y       z     vdW  Elec       q    Type
REMARK                         _______ _______ _______ _____ _____    ______ ____
ROOT
ATOM      1  C   UNL     1     -36.507  23.272   4.061  0.00  0.00    +0.058 C 
ATOM      2  C   UNL     1     -36.289  24.649   4.026  0.00  0.00    +0.100 C 
ATOM      3  C   UNL     1     -35.316  25.222   4.843  0.00  0.00    +0.144 C 
ATOM      4  C   UNL     1     -35.751  22.467   4.912  0.00  0.00    +0.015 C 
ATOM      5  C   UNL     1     -34.559  24.418   5.695  0.00  0.00    +0.037 C 
ATOM      6  C   UNL     1     -34.776  23.041   5.730  0.00  0.00    +0.004 C 
ENDROOT
BRANCH   2   9
ATOM      7  O   UNL     1     -36.850  25.537   1.917  0.00  0.00    -0.270 OA
ATOM      8  N   UNL     1     -38.095  26.253   3.706  0.00  0.00    -0.325 N 
ATOM      9  C   UNL     1     -37.075  25.501   3.137  0.00  0.00    +0.247 C 
ATOM     10  H   UNL     1     -38.648  26.839   3.140  0.00  0.00    +0.145 HD
ATOM     11  H   UNL     1     -38.266  26.200   4.674  0.00  0.00    +0.145 HD
ENDBRANCH   2   9
BRANCH   1  13
ATOM     12  O   UNL     1     -36.216  21.847   1.464  0.00  0.00    -0.258 OA
ATOM     13  N   UNL     1     -37.476  22.673   3.250  0.00  0.00    -0.272 N 
ATOM     14  C   UNL     1     -37.295  22.007   2.027  0.00  0.00    +0.316 C 
ATOM     15  H   UNL     1     -38.404  22.722   3.580  0.00  0.00    +0.156 HD
BRANCH  14  20
ATOM     16  N   UNL     1     -38.472  20.692   0.366  0.00  0.00    -0.105 NA
ATOM     17  N   UNL     1     -39.733  21.676   1.968  0.00  0.00    -0.082 NA
ATOM     18  N   UNL     1     -39.786  20.454   0.251  0.00  0.00    -0.140 N 
ATOM     19  N   UNL     1     -40.571  21.017   1.178  0.00  0.00    -0.022 NA
ATOM     20  C   UNL     1     -38.523  21.445   1.440  0.00  0.00    +0.128 C 
ATOM     21  H   UNL     1     -40.153  19.898  -0.475  0.00  0.00    +0.197 HD
ENDBRANCH  14  20
ENDBRANCH   1  13
BRANCH   3  22
ATOM     22  O   UNL     1     -35.085  26.566   4.826  0.00  0.00    -0.471 OA
ATOM     23  C   UNL     1     -33.820  26.999   4.332  0.00  0.00    +0.252 C 
ENDBRANCH   3  22
TORSDOF 4
ENDMDL
MODEL 3
REMARK VINA RESULT:      -5.8      2.140      2.934
REMARK  Name = 194192
REMARK  4 active torsions:
REMARK  status: ('A' for Active; 'I' for Inactive)
REMARK    1  A    between atoms: C_1  and  N_13
REMARK    2  A    between atoms: C_2  and  C_9
REMARK    3  A    between atoms: C_3  and  O_22
REMARK    4  A    between atoms: C_14  and  C_20
REMARK                            x       y       z     vdW  Elec       q    Type
REMARK                         _______ _______ _______ _____ _____    ______ ____
ROOT
ATOM      1  C   UNL     1     -34.535  24.375   2.926  0.00  0.00    +0.058 C 
ATOM      2  C   UNL     1     -35.558  23.489   3.261  0.00  0.00    +0.100 C 
ATOM      3  C   UNL     1     -36.145  22.695   2.276  0.00  0.00    +0.144 C 
ATOM      4  C   UNL     1     -34.098  24.468   1.605  0.00  0.00    +0.015 C 
ATOM      5  C   UNL     1     -35.709  22.788   0.955  0.00  0.00    +0.037 C 
ATOM      6  C   UNL     1     -34.685  23.674   0.619  0.00  0.00    +0.004 C 
ENDROOT
BRANCH   2   9
ATOM      7  O   UNL     1     -36.489  24.365   5.240  0.00  0.00    -0.270 OA
ATOM      8  N   UNL     1     -35.940  22.138   5.253  0.00  0.00    -0.325 N 
ATOM      9  C   UNL     1     -36.023  23.383   4.642  0.00  0.00    +0.247 C 
ATOM     10  H   UNL     1     -36.244  22.025   6.183  0.00  0.00    +0.145 HD
ATOM     11  H   UNL     1     -35.579  21.368   4.757  0.00  0.00    +0.145 HD
ENDBRANCH   2   9
BRANCH   1  13
ATOM     12  O   UNL     1     -34.896  27.272   3.503  0.00  0.00    -0.258 OA
ATOM     13  N   UNL     1     -33.930  25.181   3.895  0.00  0.00    -0.272 N 
ATOM     14  C   UNL     1     -34.130  26.550   4.135  0.00  0.00    +0.316 C 
ATOM     15  H   UNL     1     -33.282  24.731   4.486  0.00  0.00    +0.156 HD
BRANCH  14  20
ATOM     16  N   UNL     1     -33.266  26.434   6.396  0.00  0.00    -0.105 NA
ATOM     17  N   UNL     1     -32.748  28.286   5.200  0.00  0.00    -0.082 NA
ATOM     18  N   UNL     1     -32.510  27.320   7.060  0.00  0.00    -0.140 N 
ATOM     19  N   UNL     1     -32.180  28.432   6.390  0.00  0.00    -0.022 NA
ATOM     20  C   UNL     1     -33.366  27.099   5.268  0.00  0.00    +0.128 C 
ATOM     21  H   UNL     1     -32.217  27.163   7.987  0.00  0.00    +0.197 HD
ENDBRANCH  14  20
ENDBRANCH   1  13
BRANCH   3  22
ATOM     22  O   UNL     1     -37.146  21.821   2.581  0.00  0.00    -0.471 OA
ATOM     23  C   UNL     1     -38.434  22.096   2.034  0.00  0.00    +0.252 C 
ENDBRANCH   3  22
TORSDOF 4
ENDMDL
MODEL 4
REMARK VINA RESULT:      -5.7      2.567      6.115
REMARK  Name = 194192
REMARK  4 active torsions:
REMARK  status: ('A' for Active; 'I' for Inactive)
REMARK    1  A    between atoms: C_1  and  N_13
REMARK    2  A    between atoms: C_2  and  C_9
REMARK    3  A    between atoms: C_3  and  O_22
REMARK    4  A    between atoms: C_14  and  C_20
REMARK                            x       y       z     vdW  Elec       q    Type
REMARK                         _______ _______ _______ _____ _____    ______ ____
ROOT
ATOM      1  C   UNL     1     -33.203  27.075   5.455  0.00  0.00    +0.058 C 
ATOM      2  C   UNL     1     -33.261  27.996   4.408  0.00  0.00    +0.100 C 
ATOM      3  C   UNL     1     -32.583  29.210   4.509  0.00  0.00    +0.144 C 
ATOM      4  C   UNL     1     -32.467  27.369   6.602  0.00  0.00    +0.015 C 
ATOM      5  C   UNL     1     -31.847  29.504   5.657  0.00  0.00    +0.037 C 
ATOM      6  C   UNL     1     -31.788  28.583   6.703  0.00  0.00    +0.004 C 
ENDROOT
BRANCH   2   9
ATOM      7  O   UNL     1     -33.618  26.879   2.365  0.00  0.00    -0.270 OA
ATOM      8  N   UNL     1     -35.242  28.353   3.036  0.00  0.00    -0.325 N 
ATOM      9  C   UNL     1     -34.028  27.698   3.201  0.00  0.00    +0.247 C 
ATOM     10  H   UNL     1     -35.789  28.180   2.236  0.00  0.00    +0.145 HD
ATOM     11  H   UNL     1     -35.556  28.990   3.718  0.00  0.00    +0.145 HD
ENDBRANCH   2   9
BRANCH   1  13
ATOM     12  O   UNL     1     -36.111  26.470   5.646  0.00  0.00    -0.258 OA
ATOM     13  N   UNL     1     -33.874  25.851   5.377  0.00  0.00    -0.272 N 
ATOM     14  C   UNL     1     -35.254  25.608   5.473  0.00  0.00    +0.316 C 
ATOM     15  H   UNL     1     -33.306  25.057   5.237  0.00  0.00    +0.156 HD
BRANCH  14  20
ATOM     16  N   UNL     1     -36.522  23.849   4.390  0.00  0.00    -0.105 NA
ATOM     17  N   UNL     1     -35.139  23.223   6.071  0.00  0.00    -0.082 NA
ATOM     18  N   UNL     1     -36.528  22.533   4.642  0.00  0.00    -0.140 N 
ATOM     19  N   UNL     1     -35.725  22.117   5.629  0.00  0.00    -0.022 NA
ATOM     20  C   UNL     1     -35.648  24.199   5.305  0.00  0.00    +0.128 C 
ATOM     21  H   UNL     1     -37.092  21.908   4.130  0.00  0.00    +0.197 HD
ENDBRANCH  14  20
ENDBRANCH   1  13
BRANCH   3  22
ATOM     22  O   UNL     1     -32.624  30.124   3.499  0.00  0.00    -0.471 OA
ATOM     23  C   UNL     1     -31.780  31.267   3.625  0.00  0.00    +0.252 C 
ENDBRANCH   3  22
TORSDOF 4
ENDMDL
MODEL 5
REMARK VINA RESULT:      -5.6      2.178      3.489
REMARK  Name = 194192
REMARK  4 active torsions:
REMARK  status: ('A' for Active; 'I' for Inactive)
REMARK    1  A    between atoms: C_1  and  N_13
REMARK    2  A    between atoms: C_2  and  C_9
REMARK    3  A    between atoms: C_3  and  O_22
REMARK    4  A    between atoms: C_14  and  C_20
REMARK                            x       y       z     vdW  Elec       q    Type
REMARK                         _______ _______ _______ _____ _____    ______ ____
ROOT
ATOM      1  C   UNL     1     -37.354  24.526   3.561  0.00  0.00    +0.058 C 
ATOM      2  C   UNL     1     -37.223  23.238   3.041  0.00  0.00    +0.100 C 
ATOM      3  C   UNL     1     -38.313  22.618   2.431  0.00  0.00    +0.144 C 
ATOM      4  C   UNL     1     -38.575  25.194   3.469  0.00  0.00    +0.015 C 
ATOM      5  C   UNL     1     -39.534  23.286   2.340  0.00  0.00    +0.037 C 
ATOM      6  C   UNL     1     -39.664  24.574   2.858  0.00  0.00    +0.004 C 
ENDROOT
BRANCH   2   9
ATOM      7  O   UNL     1     -34.959  22.904   2.485  0.00  0.00    -0.270 OA
ATOM      8  N   UNL     1     -35.884  21.433   3.981  0.00  0.00    -0.325 N 
ATOM      9  C   UNL     1     -35.949  22.529   3.131  0.00  0.00    +0.247 C 
ATOM     10  H   UNL     1     -35.043  20.928   4.069  0.00  0.00    +0.145 HD
ATOM     11  H   UNL     1     -36.678  21.159   4.495  0.00  0.00    +0.145 HD
ENDBRANCH   2   9
BRANCH   1  13
ATOM     12  O   UNL     1     -35.571  26.676   2.535  0.00  0.00    -0.258 OA
ATOM     13  N   UNL     1     -36.276  25.170   4.176  0.00  0.00    -0.272 N 
ATOM     14  C   UNL     1     -35.458  26.185   3.654  0.00  0.00    +0.316 C 
ATOM     15  H   UNL     1     -36.065  24.876   5.093  0.00  0.00    +0.156 HD
BRANCH  14  20
ATOM     16  N   UNL     1     -33.630  27.669   4.230  0.00  0.00    -0.105 NA
ATOM     17  N   UNL     1     -34.258  26.167   5.804  0.00  0.00    -0.082 NA
ATOM     18  N   UNL     1     -32.919  27.736   5.364  0.00  0.00    -0.140 N 
ATOM     19  N   UNL     1     -33.257  26.865   6.324  0.00  0.00    -0.022 NA
ATOM     20  C   UNL     1     -34.427  26.686   4.580  0.00  0.00    +0.128 C 
ATOM     21  H   UNL     1     -32.191  28.388   5.484  0.00  0.00    +0.197 HD
ENDBRANCH  14  20
ENDBRANCH   1  13
BRANCH   3  22
ATOM     22  O   UNL     1     -38.208  21.360   1.916  0.00  0.00    -0.471 OA
ATOM     23  C   UNL     1     -38.904  21.099   0.699  0.00  0.00    +0.252 C 
ENDBRANCH   3  22
TORSDOF 4
ENDMDL
MODEL 6
REMARK VINA RESULT:      -5.6      1.849      2.149
REMARK  Name = 194192
REMARK  4 active torsions:
REMARK  status: ('A' for Active; 'I' for Inactive)
REMARK    1  A    between atoms: C_1  and  N_13
REMARK    2  A    between atoms: C_2  and  C_9
REMARK    3  A    between atoms: C_3  and  O_22
REMARK    4  A    between atoms: C_14  and  C_20
REMARK                            x       y       z     vdW  Elec       q    Type
REMARK                         _______ _______ _______ _____ _____    ______ ____
ROOT
ATOM      1  C   UNL     1     -35.051  24.264   4.474  0.00  0.00    +0.058 C 
ATOM      2  C   UNL     1     -35.382  23.461   3.382  0.00  0.00    +0.100 C 
ATOM      3  C   UNL     1     -35.571  22.090   3.557  0.00  0.00    +0.144 C 
ATOM      4  C   UNL     1     -34.911  23.697   5.740  0.00  0.00    +0.015 C 
ATOM      5  C   UNL     1     -35.431  21.522   4.823  0.00  0.00    +0.037 C 
ATOM      6  C   UNL     1     -35.101  22.326   5.914  0.00  0.00    +0.004 C 
ENDROOT
BRANCH   2   9
ATOM      7  O   UNL     1     -36.467  24.819   1.792  0.00  0.00    -0.270 OA
ATOM      8  N   UNL     1     -34.580  23.715   1.096  0.00  0.00    -0.325 N 
ATOM      9  C   UNL     1     -35.533  24.045   2.052  0.00  0.00    +0.247 C 
ATOM     10  H   UNL     1     -34.646  24.088   0.187  0.00  0.00    +0.145 HD
ATOM     11  H   UNL     1     -33.839  23.109   1.326  0.00  0.00    +0.145 HD
ENDBRANCH   2   9
BRANCH   1  13
ATOM     12  O   UNL     1     -32.641  25.773   3.597  0.00  0.00    -0.258 OA
ATOM     13  N   UNL     1     -34.857  25.641   4.325  0.00  0.00    -0.272 N 
ATOM     14  C   UNL     1     -33.698  26.314   3.906  0.00  0.00    +0.316 C 
ATOM     15  H   UNL     1     -35.632  26.210   4.541  0.00  0.00    +0.156 HD
BRANCH  14  20
ATOM     16  N   UNL     1     -34.863  28.321   3.206  0.00  0.00    -0.105 NA
ATOM     17  N   UNL     1     -32.920  28.610   4.334  0.00  0.00    -0.082 NA
ATOM     18  N   UNL     1     -34.523  29.605   3.390  0.00  0.00    -0.140 N 
ATOM     19  N   UNL     1     -33.380  29.823   4.053  0.00  0.00    -0.022 NA
ATOM     20  C   UNL     1     -33.833  27.778   3.813  0.00  0.00    +0.128 C 
ATOM     21  H   UNL     1     -35.081  30.344   3.056  0.00  0.00    +0.197 HD
ENDBRANCH  14  20
ENDBRANCH   1  13
BRANCH   3  22
ATOM     22  O   UNL     1     -35.895  21.286   2.505  0.00  0.00    -0.471 OA
ATOM     23  C   UNL     1     -34.996  20.221   2.202  0.00  0.00    +0.252 C 
ENDBRANCH   3  22
TORSDOF 4
ENDMDL
MODEL 7
REMARK VINA RESULT:      -5.6      1.807      2.503
REMARK  Name = 194192
REMARK  4 active torsions:
REMARK  status: ('A' for Active; 'I' for Inactive)
REMARK    1  A    between atoms: C_1  and  N_13
REMARK    2  A    between atoms: C_2  and  C_9
REMARK    3  A    between atoms: C_3  and  O_22
REMARK    4  A    between atoms: C_14  and  C_20
REMARK                            x       y       z     vdW  Elec       q    Type
REMARK                         _______ _______ _______ _____ _____    ______ ____
ROOT
ATOM      1  C   UNL     1     -35.965  23.791   3.035  0.00  0.00    +0.058 C 
ATOM      2  C   UNL     1     -37.347  23.826   2.849  0.00  0.00    +0.100 C 
ATOM      3  C   UNL     1     -38.021  22.688   2.409  0.00  0.00    +0.144 C 
ATOM      4  C   UNL     1     -35.257  22.617   2.781  0.00  0.00    +0.015 C 
ATOM      5  C   UNL     1     -37.313  21.513   2.155  0.00  0.00    +0.037 C 
ATOM      6  C   UNL     1     -35.931  21.478   2.341  0.00  0.00    +0.004 C 
ENDROOT
BRANCH   2   9
ATOM      7  O   UNL     1     -37.770  26.130   2.597  0.00  0.00    -0.270 OA
ATOM      8  N   UNL     1     -39.205  24.956   3.948  0.00  0.00    -0.325 N 
ATOM      9  C   UNL     1     -38.099  25.050   3.113  0.00  0.00    +0.247 C 
ATOM     10  H   UNL     1     -39.739  25.759   4.150  0.00  0.00    +0.145 HD
ATOM     11  H   UNL     1     -39.457  24.087   4.337  0.00  0.00    +0.145 HD
ENDBRANCH   2   9
BRANCH   1  13
ATOM     12  O   UNL     1     -34.915  24.454   5.739  0.00  0.00    -0.258 OA
ATOM     13  N   UNL     1     -35.267  24.919   3.477  0.00  0.00    -0.272 N 
ATOM     14  C   UNL     1     -34.787  25.193   4.768  0.00  0.00    +0.316 C 
ATOM     15  H   UNL     1     -35.087  25.609   2.796  0.00  0.00    +0.156 HD
BRANCH  14  20
ATOM     16  N   UNL     1     -33.257  26.675   5.924  0.00  0.00    -0.105 NA
ATOM     17  N   UNL     1     -34.147  27.438   3.986  0.00  0.00    -0.082 NA
ATOM     18  N   UNL     1     -32.849  27.906   5.581  0.00  0.00    -0.140 N 
ATOM     19  N   UNL     1     -33.351  28.397   4.441  0.00  0.00    -0.022 NA
ATOM     20  C   UNL     1     -34.047  26.460   4.897  0.00  0.00    +0.128 C 
ATOM     21  H   UNL     1     -32.218  28.418   6.137  0.00  0.00    +0.197 HD
ENDBRANCH  14  20
ENDBRANCH   1  13
BRANCH   3  22
ATOM     22  O   UNL     1     -39.371  22.698   2.221  0.00  0.00    -0.471 OA
ATOM     23  C   UNL     1     -39.873  21.989   1.090  0.00  0.00    +0.252 C 
ENDBRANCH   3  22
TORSDOF 4
ENDMDL
MODEL 8
REMARK VINA RESULT:      -5.6      3.060      6.215
REMARK  Name = 194192
REMARK  4 active torsions:
REMARK  status: ('A' for Active; 'I' for Inactive)
REMARK    1  A    between atoms: C_1  and  N_13
REMARK    2  A    between atoms: C_2  and  C_9
REMARK    3  A    between atoms: C_3  and  O_22
REMARK    4  A    between atoms: C_14  and  C_20
REMARK                            x       y       z     vdW  Elec       q    Type
REMARK                         _______ _______ _______ _____ _____    ______ ____
ROOT
ATOM      1  C   UNL     1     -35.524  26.114   2.942  0.00  0.00    +0.058 C 
ATOM      2  C   UNL     1     -34.818  27.217   3.423  0.00  0.00    +0.100 C 
ATOM      3  C   UNL     1     -34.983  28.465   2.825  0.00  0.00    +0.144 C 
ATOM      4  C   UNL     1     -36.396  26.260   1.864  0.00  0.00    +0.015 C 
ATOM      5  C   UNL     1     -35.855  28.612   1.746  0.00  0.00    +0.037 C 
ATOM      6  C   UNL     1     -36.562  27.509   1.266  0.00  0.00    +0.004 C 
ENDROOT
BRANCH   2   9
ATOM      7  O   UNL     1     -34.293  26.639   5.645  0.00  0.00    -0.270 OA
ATOM      8  N   UNL     1     -32.574  27.430   4.349  0.00  0.00    -0.325 N 
ATOM      9  C   UNL     1     -33.902  27.075   4.552  0.00  0.00    +0.247 C 
ATOM     10  H   UNL     1     -31.926  27.348   5.086  0.00  0.00    +0.145 HD
ATOM     11  H   UNL     1     -32.281  27.762   3.470  0.00  0.00    +0.145 HD
ENDBRANCH   2   9
BRANCH   1  13
ATOM     12  O   UNL     1     -37.463  24.493   4.512  0.00  0.00    -0.258 OA
ATOM     13  N   UNL     1     -35.376  24.851   3.525  0.00  0.00    -0.272 N 
ATOM     14  C   UNL     1     -36.322  24.119   4.261  0.00  0.00    +0.316 C 
ATOM     15  H   UNL     1     -34.498  24.421   3.403  0.00  0.00    +0.156 HD
BRANCH  14  20
ATOM     16  N   UNL     1     -35.827  22.485   5.982  0.00  0.00    -0.105 NA
ATOM     17  N   UNL     1     -35.474  21.847   3.838  0.00  0.00    -0.082 NA
ATOM     18  N   UNL     1     -35.365  21.233   5.853  0.00  0.00    -0.140 N 
ATOM     19  N   UNL     1     -35.142  20.813   4.601  0.00  0.00    -0.022 NA
ATOM     20  C   UNL     1     -35.866  22.791   4.705  0.00  0.00    +0.128 C 
ATOM     21  H   UNL     1     -35.200  20.657   6.634  0.00  0.00    +0.197 HD
ENDBRANCH  14  20
ENDBRANCH   1  13
BRANCH   3  22
ATOM     22  O   UNL     1     -34.304  29.557   3.278  0.00  0.00    -0.471 OA
ATOM     23  C   UNL     1     -33.560  30.302   2.316  0.00  0.00    +0.252 C 
ENDBRANCH   3  22
TORSDOF 4
ENDMDL
MODEL 9
REMARK VINA RESULT:      -5.5      2.876      6.455
REMARK  Name = 194192
REMARK  4 active torsions:
REMARK  status: ('A' for Active; 'I' for Inactive)
REMARK    1  A    between atoms: C_1  and  N_13
REMARK    2  A    between atoms: C_2  and  C_9
REMARK    3  A    between atoms: C_3  and  O_22
REMARK    4  A    between atoms: C_14  and  C_20
REMARK                            x       y       z     vdW  Elec       q    Type
REMARK                         _______ _______ _______ _____ _____    ______ ____
ROOT
ATOM      1  C   UNL     1     -35.064  24.653   2.812  0.00  0.00    +0.058 C 
ATOM      2  C   UNL     1     -34.914  25.432   3.959  0.00  0.00    +0.100 C 
ATOM      3  C   UNL     1     -33.845  26.321   4.063  0.00  0.00    +0.144 C 
ATOM      4  C   UNL     1     -34.146  24.763   1.768  0.00  0.00    +0.015 C 
ATOM      5  C   UNL     1     -32.926  26.432   3.020  0.00  0.00    +0.037 C 
ATOM      6  C   UNL     1     -33.077  25.653   1.872  0.00  0.00    +0.004 C 
ENDROOT
BRANCH   2   9
ATOM      7  O   UNL     1     -36.083  24.240   5.621  0.00  0.00    -0.270 OA
ATOM      8  N   UNL     1     -36.520  26.486   5.458  0.00  0.00    -0.325 N 
ATOM      9  C   UNL     1     -35.871  25.324   5.057  0.00  0.00    +0.247 C 
ATOM     10  H   UNL     1     -37.172  26.455   6.195  0.00  0.00    +0.145 HD
ATOM     11  H   UNL     1     -36.328  27.339   5.006  0.00  0.00    +0.145 HD
ENDBRANCH   2   9
BRANCH   1  13
ATOM     12  O   UNL     1     -37.883  25.131   1.986  0.00  0.00    -0.258 OA
ATOM     13  N   UNL     1     -36.128  23.754   2.682  0.00  0.00    -0.272 N 
ATOM     14  C   UNL     1     -37.449  24.023   2.287  0.00  0.00    +0.316 C 
ATOM     15  H   UNL     1     -35.926  22.813   2.894  0.00  0.00    +0.156 HD
BRANCH  14  20
ATOM     16  N   UNL     1     -37.818  21.630   2.174  0.00  0.00    -0.105 NA
ATOM     17  N   UNL     1     -39.660  22.948   2.169  0.00  0.00    -0.082 NA
ATOM     18  N   UNL     1     -38.973  20.954   2.108  0.00  0.00    -0.140 N 
ATOM     19  N   UNL     1     -40.090  21.694   2.102  0.00  0.00    -0.022 NA
ATOM     20  C   UNL     1     -38.324  22.841   2.209  0.00  0.00    +0.128 C 
ATOM     21  H   UNL     1     -38.999  19.971   2.064  0.00  0.00    +0.197 HD
ENDBRANCH  14  20
ENDBRANCH   1  13
BRANCH   3  22
ATOM     22  O   UNL     1     -33.679  27.093   5.174  0.00  0.00    -0.471 OA
ATOM     23  C   UNL     1     -32.449  27.805   5.290  0.00  0.00    +0.252 C 
ENDBRANCH   3  22
TORSDOF 4
ENDMDL
