MODEL 1
REMARK VINA RESULT:      -4.7      0.000      0.000
REMARK  Name = 50287
REMARK  8 active torsions:
REMARK  status: ('A' for Active; 'I' for Inactive)
REMARK    1  A    between atoms: C_1  and  C_4
REMARK    2  A    between atoms: C_1  and  S_15
REMARK    3  A    between atoms: C_6  and  N_7
REMARK    4  A    between atoms: N_7  and  C_10
REMARK    5  A    between atoms: S_15  and  C_16
REMARK    6  A    between atoms: C_16  and  C_17
REMARK    7  A    between atoms: C_17  and  N_18
REMARK    8  A    between atoms: N_19  and  C_26
REMARK                            x       y       z     vdW  Elec       q    Type
REMARK                         _______ _______ _______ _____ _____    ______ ____
ROOT
ATOM      1  C   UNL     1     -35.810  27.725   1.989  0.00  0.00    +0.113 C 
ENDROOT
BRANCH   1   4
ATOM      2  S   UNL     1     -38.806  26.490  -0.323  0.00  0.00    -0.055 S 
ATOM      3  N   UNL     1     -38.076  26.793   2.138  0.00  0.00    -0.384 NA
ATOM      4  C   UNL     1     -37.049  27.215   1.330  0.00  0.00    +0.111 C 
ATOM      5  C   UNL     1     -37.244  27.134  -0.023  0.00  0.00    +0.121 C 
ATOM      6  C   UNL     1     -39.062  26.386   1.370  0.00  0.00    +0.243 C 
BRANCH   6   7
ATOM      7  N   UNL     1     -40.253  25.897   1.800  0.00  0.00    -0.178 NA
BRANCH   7  10
ATOM      8  N   UNL     1     -39.881  24.845   3.945  0.00  0.00    -0.370 N 
ATOM      9  N   UNL     1     -41.252  26.657   3.766  0.00  0.00    -0.370 N 
ATOM     10  C   UNL     1     -40.431  25.781   3.095  0.00  0.00    +0.196 C 
ATOM     11  H   UNL     1     -39.272  24.156   3.591  0.00  0.00    +0.159 HD
ATOM     12  H   UNL     1     -40.095  24.865   4.906  0.00  0.00    +0.159 HD
ATOM     13  H   UNL     1     -41.710  27.377   3.275  0.00  0.00    +0.159 HD
ATOM     14  H   UNL     1     -41.383  26.565   4.737  0.00  0.00    +0.159 HD
ENDBRANCH   7  10
ENDBRANCH   6   7
ENDBRANCH   1   4
BRANCH   1  15
ATOM     15  S   UNL     1     -34.642  26.390   2.330  0.00  0.00    -0.131 S 
BRANCH  15  16
ATOM     16  C   UNL     1     -34.559  26.573   4.140  0.00  0.00    +0.082 C 
BRANCH  16  17
ATOM     17  C   UNL     1     -35.830  26.094   4.829  0.00  0.00    +0.112 C 
BRANCH  17  18
ATOM     18  N   UNL     1     -36.338  24.886   4.218  0.00  0.00    -0.344 N 
ATOM     19  N   UNL     1     -36.693  22.519   3.960  0.00  0.00    -0.263 N 
ATOM     20  N   UNL     1     -35.395  23.400   5.772  0.00  0.00    -0.237 NA
ATOM     21  C   UNL     1     -36.103  23.610   4.705  0.00  0.00    +0.208 C 
ATOM     22  C   UNL     1     -35.179  22.040   6.239  0.00  0.00    +0.155 C 
ATOM     23  H   UNL     1     -36.886  24.977   3.404  0.00  0.00    +0.163 HD
ATOM     24  H   UNL     1     -36.565  21.588   4.254  0.00  0.00    +0.181 HD
BRANCH  19  26
ATOM     25  N   UNL     1     -38.035  23.028   1.908  0.00  0.00    -0.171 NA
ATOM     26  C   UNL     1     -37.417  22.791   2.862  0.00  0.00    +0.184 C 
ENDBRANCH  19  26
ENDBRANCH  17  18
ENDBRANCH  16  17
ENDBRANCH  15  16
ENDBRANCH   1  15
TORSDOF 8
ENDMDL
MODEL 2
REMARK VINA RESULT:      -4.6      5.739      7.297
REMARK  Name = 50287
REMARK  8 active torsions:
REMARK  status: ('A' for Active; 'I' for Inactive)
REMARK    1  A    between atoms: C_1  and  C_4
REMARK    2  A    between atoms: C_1  and  S_15
REMARK    3  A    between atoms: C_6  and  N_7
REMARK    4  A    between atoms: N_7  and  C_10
REMARK    5  A    between atoms: S_15  and  C_16
REMARK    6  A    between atoms: C_16  and  C_17
REMARK    7  A    between atoms: C_17  and  N_18
REMARK    8  A    between atoms: N_19  and  C_26
REMARK                            x       y       z     vdW  Elec       q    Type
REMARK                         _______ _______ _______ _____ _____    ______ ____
ROOT
ATOM      1  C   UNL     1     -35.892  21.723   1.739  0.00  0.00    +0.113 C 
ENDROOT
BRANCH   1   4
ATOM      2  S   UNL     1     -35.310  22.185   5.650  0.00  0.00    -0.055 S 
ATOM      3  N   UNL     1     -36.135  23.394   3.519  0.00  0.00    -0.384 NA
ATOM      4  C   UNL     1     -35.758  22.120   3.172  0.00  0.00    +0.111 C 
ATOM      5  C   UNL     1     -35.287  21.313   4.173  0.00  0.00    +0.121 C 
ATOM      6  C   UNL     1     -35.941  23.542   4.811  0.00  0.00    +0.243 C 
BRANCH   6   7
ATOM      7  N   UNL     1     -36.196  24.666   5.528  0.00  0.00    -0.178 NA
BRANCH   7  10
ATOM      8  N   UNL     1     -37.493  26.101   4.079  0.00  0.00    -0.370 N 
ATOM      9  N   UNL     1     -35.483  26.797   4.900  0.00  0.00    -0.370 N 
ATOM     10  C   UNL     1     -36.407  25.778   4.864  0.00  0.00    +0.196 C 
ATOM     11  H   UNL     1     -38.230  25.457   3.968  0.00  0.00    +0.159 HD
ATOM     12  H   UNL     1     -37.534  26.977   3.629  0.00  0.00    +0.159 HD
ATOM     13  H   UNL     1     -34.658  26.695   5.427  0.00  0.00    +0.159 HD
ATOM     14  H   UNL     1     -35.647  27.629   4.400  0.00  0.00    +0.159 HD
ENDBRANCH   7  10
ENDBRANCH   6   7
ENDBRANCH   1   4
BRANCH   1  15
ATOM     15  S   UNL     1     -35.724  19.936   1.528  0.00  0.00    -0.131 S 
BRANCH  15  16
ATOM     16  C   UNL     1     -34.006  19.905   0.927  0.00  0.00    +0.082 C 
BRANCH  16  17
ATOM     17  C   UNL     1     -33.268  18.641   1.351  0.00  0.00    +0.112 C 
BRANCH  17  18
ATOM     18  N   UNL     1     -33.875  17.460   0.782  0.00  0.00    -0.344 N 
ATOM     19  N   UNL     1     -33.939  15.296  -0.273  0.00  0.00    -0.263 N 
ATOM     20  N   UNL     1     -31.863  16.379   0.236  0.00  0.00    -0.237 NA
ATOM     21  C   UNL     1     -33.160  16.395   0.256  0.00  0.00    +0.208 C 
ATOM     22  C   UNL     1     -31.163  15.236  -0.328  0.00  0.00    +0.155 C 
ATOM     23  H   UNL     1     -34.859  17.408   0.766  0.00  0.00    +0.163 HD
ATOM     24  H   UNL     1     -33.492  14.509  -0.660  0.00  0.00    +0.181 HD
BRANCH  19  26
ATOM     25  N   UNL     1     -36.439  15.428  -0.197  0.00  0.00    -0.171 NA
ATOM     26  C   UNL     1     -35.280  15.362  -0.229  0.00  0.00    +0.184 C 
ENDBRANCH  19  26
ENDBRANCH  17  18
ENDBRANCH  16  17
ENDBRANCH  15  16
ENDBRANCH   1  15
TORSDOF 8
ENDMDL
MODEL 3
REMARK VINA RESULT:      -4.6      2.607      6.906
REMARK  Name = 50287
REMARK  8 active torsions:
REMARK  status: ('A' for Active; 'I' for Inactive)
REMARK    1  A    between atoms: C_1  and  C_4
REMARK    2  A    between atoms: C_1  and  S_15
REMARK    3  A    between atoms: C_6  and  N_7
REMARK    4  A    between atoms: N_7  and  C_10
REMARK    5  A    between atoms: S_15  and  C_16
REMARK    6  A    between atoms: C_16  and  C_17
REMARK    7  A    between atoms: C_17  and  N_18
REMARK    8  A    between atoms: N_19  and  C_26
REMARK                            x       y       z     vdW  Elec       q    Type
REMARK                         _______ _______ _______ _____ _____    ______ ____
ROOT
ATOM      1  C   UNL     1     -38.518  25.990   2.507  0.00  0.00    +0.113 C 
ENDROOT
BRANCH   1   4
ATOM      2  S   UNL     1     -35.004  25.433   4.292  0.00  0.00    -0.055 S 
ATOM      3  N   UNL     1     -37.435  24.560   4.182  0.00  0.00    -0.384 NA
ATOM      4  C   UNL     1     -37.311  25.602   3.295  0.00  0.00    +0.111 C 
ATOM      5  C   UNL     1     -36.085  26.205   3.206  0.00  0.00    +0.121 C 
ATOM      6  C   UNL     1     -36.272  24.381   4.769  0.00  0.00    +0.243 C 
BRANCH   6   7
ATOM      7  N   UNL     1     -35.994  23.442   5.709  0.00  0.00    -0.178 NA
BRANCH   7  10
ATOM      8  N   UNL     1     -34.744  21.389   5.967  0.00  0.00    -0.370 N 
ATOM      9  N   UNL     1     -35.909  21.803   4.051  0.00  0.00    -0.370 N 
ATOM     10  C   UNL     1     -35.559  22.275   5.295  0.00  0.00    +0.196 C 
ATOM     11  H   UNL     1     -34.420  21.606   6.871  0.00  0.00    +0.159 HD
ATOM     12  H   UNL     1     -34.487  20.538   5.544  0.00  0.00    +0.159 HD
ATOM     13  H   UNL     1     -36.490  22.340   3.466  0.00  0.00    +0.159 HD
ATOM     14  H   UNL     1     -35.580  20.927   3.746  0.00  0.00    +0.159 HD
ENDBRANCH   7  10
ENDBRANCH   6   7
ENDBRANCH   1   4
BRANCH   1  15
ATOM     15  S   UNL     1     -40.006  25.176   3.130  0.00  0.00    -0.131 S 
BRANCH  15  16
ATOM     16  C   UNL     1     -40.671  24.596   1.537  0.00  0.00    +0.082 C 
BRANCH  16  17
ATOM     17  C   UNL     1     -42.043  25.187   1.234  0.00  0.00    +0.112 C 
BRANCH  17  18
ATOM     18  N   UNL     1     -42.436  26.149   2.238  0.00  0.00    -0.344 N 
ATOM     19  N   UNL     1     -43.937  27.307   3.722  0.00  0.00    -0.263 N 
ATOM     20  N   UNL     1     -44.706  25.547   2.288  0.00  0.00    -0.237 NA
ATOM     21  C   UNL     1     -43.730  26.288   2.716  0.00  0.00    +0.208 C 
ATOM     22  C   UNL     1     -46.044  25.736   2.824  0.00  0.00    +0.155 C 
ATOM     23  H   UNL     1     -41.742  26.743   2.605  0.00  0.00    +0.163 HD
ATOM     24  H   UNL     1     -44.832  27.456   4.103  0.00  0.00    +0.181 HD
BRANCH  19  26
ATOM     25  N   UNL     1     -41.998  28.694   4.486  0.00  0.00    -0.171 NA
ATOM     26  C   UNL     1     -42.894  28.048   4.129  0.00  0.00    +0.184 C 
ENDBRANCH  19  26
ENDBRANCH  17  18
ENDBRANCH  16  17
ENDBRANCH  15  16
ENDBRANCH   1  15
TORSDOF 8
ENDMDL
MODEL 4
REMARK VINA RESULT:      -4.6      3.345      5.838
REMARK  Name = 50287
REMARK  8 active torsions:
REMARK  status: ('A' for Active; 'I' for Inactive)
REMARK    1  A    between atoms: C_1  and  C_4
REMARK    2  A    between atoms: C_1  and  S_15
REMARK    3  A    between atoms: C_6  and  N_7
REMARK    4  A    between atoms: N_7  and  C_10
REMARK    5  A    between atoms: S_15  and  C_16
REMARK    6  A    between atoms: C_16  and  C_17
REMARK    7  A    between atoms: C_17  and  N_18
REMARK    8  A    between atoms: N_19  and  C_26
REMARK                            x       y       z     vdW  Elec       q    Type
REMARK                         _______ _______ _______ _____ _____    ______ ____
ROOT
ATOM      1  C   UNL     1     -35.353  25.944   3.501  0.00  0.00    +0.113 C 
ENDROOT
BRANCH   1   4
ATOM      2  S   UNL     1     -31.803  27.696   3.085  0.00  0.00    -0.055 S 
ATOM      3  N   UNL     1     -33.859  27.522   4.642  0.00  0.00    -0.384 NA
ATOM      4  C   UNL     1     -34.071  26.707   3.556  0.00  0.00    +0.111 C 
ATOM      5  C   UNL     1     -33.085  26.662   2.607  0.00  0.00    +0.121 C 
ATOM      6  C   UNL     1     -32.686  28.098   4.500  0.00  0.00    +0.243 C 
BRANCH   6   7
ATOM      7  N   UNL     1     -32.122  28.974   5.369  0.00  0.00    -0.178 NA
BRANCH   7  10
ATOM      8  N   UNL     1     -32.308  27.367   7.166  0.00  0.00    -0.370 N 
ATOM      9  N   UNL     1     -31.417  29.431   7.546  0.00  0.00    -0.370 N 
ATOM     10  C   UNL     1     -31.971  28.585   6.614  0.00  0.00    +0.196 C 
ATOM     11  H   UNL     1     -32.715  26.667   6.605  0.00  0.00    +0.159 HD
ATOM     12  H   UNL     1     -32.142  27.197   8.122  0.00  0.00    +0.159 HD
ATOM     13  H   UNL     1     -31.131  30.336   7.282  0.00  0.00    +0.159 HD
ATOM     14  H   UNL     1     -31.306  29.134   8.478  0.00  0.00    +0.159 HD
ENDBRANCH   7  10
ENDBRANCH   6   7
ENDBRANCH   1   4
BRANCH   1  15
ATOM     15  S   UNL     1     -35.930  25.496   5.154  0.00  0.00    -0.131 S 
BRANCH  15  16
ATOM     16  C   UNL     1     -34.920  23.998   5.385  0.00  0.00    +0.082 C 
BRANCH  16  17
ATOM     17  C   UNL     1     -35.767  22.732   5.435  0.00  0.00    +0.112 C 
BRANCH  17  18
ATOM     18  N   UNL     1     -35.700  22.004   4.189  0.00  0.00    -0.344 N 
ATOM     19  N   UNL     1     -36.388  21.328   1.982  0.00  0.00    -0.263 N 
ATOM     20  N   UNL     1     -37.624  22.955   3.236  0.00  0.00    -0.237 NA
ATOM     21  C   UNL     1     -36.616  22.141   3.157  0.00  0.00    +0.208 C 
ATOM     22  C   UNL     1     -38.555  23.060   2.124  0.00  0.00    +0.155 C 
ATOM     23  H   UNL     1     -34.957  21.369   4.065  0.00  0.00    +0.163 HD
ATOM     24  H   UNL     1     -37.002  21.379   1.215  0.00  0.00    +0.181 HD
BRANCH  19  26
ATOM     25  N   UNL     1     -34.414  19.789   1.936  0.00  0.00    -0.171 NA
ATOM     26  C   UNL     1     -35.330  20.501   1.952  0.00  0.00    +0.184 C 
ENDBRANCH  19  26
ENDBRANCH  17  18
ENDBRANCH  16  17
ENDBRANCH  15  16
ENDBRANCH   1  15
TORSDOF 8
ENDMDL
MODEL 5
REMARK VINA RESULT:      -4.6      1.544      5.016
REMARK  Name = 50287
REMARK  8 active torsions:
REMARK  status: ('A' for Active; 'I' for Inactive)
REMARK    1  A    between atoms: C_1  and  C_4
REMARK    2  A    between atoms: C_1  and  S_15
REMARK    3  A    between atoms: C_6  and  N_7
REMARK    4  A    between atoms: N_7  and  C_10
REMARK    5  A    between atoms: S_15  and  C_16
REMARK    6  A    between atoms: C_16  and  C_17
REMARK    7  A    between atoms: C_17  and  N_18
REMARK    8  A    between atoms: N_19  and  C_26
REMARK                            x       y       z     vdW  Elec       q    Type
REMARK                         _______ _______ _______ _____ _____    ______ ____
ROOT
ATOM      1  C   UNL     1     -34.036  25.946   1.690  0.00  0.00    +0.113 C 
ENDROOT
BRANCH   1   4
ATOM      2  S   UNL     1     -34.627  25.666   5.616  0.00  0.00    -0.055 S 
ATOM      3  N   UNL     1     -35.109  24.502   3.359  0.00  0.00    -0.384 NA
ATOM      4  C   UNL     1     -34.378  25.638   3.110  0.00  0.00    +0.111 C 
ATOM      5  C   UNL     1     -34.020  26.400   4.190  0.00  0.00    +0.121 C 
ATOM      6  C   UNL     1     -35.302  24.415   4.656  0.00  0.00    +0.243 C 
BRANCH   6   7
ATOM      7  N   UNL     1     -35.981  23.427   5.293  0.00  0.00    -0.178 NA
BRANCH   7  10
ATOM      8  N   UNL     1     -35.598  21.357   4.105  0.00  0.00    -0.370 N 
ATOM      9  N   UNL     1     -34.856  21.619   6.245  0.00  0.00    -0.370 N 
ATOM     10  C   UNL     1     -35.517  22.204   5.190  0.00  0.00    +0.196 C 
ATOM     11  H   UNL     1     -36.048  21.654   3.281  0.00  0.00    +0.159 HD
ATOM     12  H   UNL     1     -35.205  20.455   4.153  0.00  0.00    +0.159 HD
ATOM     13  H   UNL     1     -34.729  22.118   7.084  0.00  0.00    +0.159 HD
ATOM     14  H   UNL     1     -34.509  20.701   6.162  0.00  0.00    +0.159 HD
ENDBRANCH   7  10
ENDBRANCH   6   7
ENDBRANCH   1   4
BRANCH   1  15
ATOM     15  S   UNL     1     -35.296  25.323   0.554  0.00  0.00    -0.131 S 
BRANCH  15  16
ATOM     16  C   UNL     1     -36.251  26.860   0.357  0.00  0.00    +0.082 C 
BRANCH  16  17
ATOM     17  C   UNL     1     -37.317  27.020   1.434  0.00  0.00    +0.112 C 
BRANCH  17  18
ATOM     18  N   UNL     1     -37.824  25.738   1.869  0.00  0.00    -0.344 N 
ATOM     19  N   UNL     1     -39.392  24.200   2.855  0.00  0.00    -0.263 N 
ATOM     20  N   UNL     1     -39.854  26.548   2.729  0.00  0.00    -0.237 NA
ATOM     21  C   UNL     1     -39.051  25.557   2.489  0.00  0.00    +0.208 C 
ATOM     22  C   UNL     1     -41.129  26.301   3.383  0.00  0.00    +0.155 C 
ATOM     23  H   UNL     1     -37.263  24.944   1.715  0.00  0.00    +0.163 HD
ATOM     24  H   UNL     1     -40.248  24.003   3.298  0.00  0.00    +0.181 HD
BRANCH  19  26
ATOM     25  N   UNL     1     -37.783  22.349   2.347  0.00  0.00    -0.171 NA
ATOM     26  C   UNL     1     -38.525  23.210   2.585  0.00  0.00    +0.184 C 
ENDBRANCH  19  26
ENDBRANCH  17  18
ENDBRANCH  16  17
ENDBRANCH  15  16
ENDBRANCH   1  15
TORSDOF 8
ENDMDL
MODEL 6
REMARK VINA RESULT:      -4.5      3.008      5.582
REMARK  Name = 50287
REMARK  8 active torsions:
REMARK  status: ('A' for Active; 'I' for Inactive)
REMARK    1  A    between atoms: C_1  and  C_4
REMARK    2  A    between atoms: C_1  and  S_15
REMARK    3  A    between atoms: C_6  and  N_7
REMARK    4  A    between atoms: N_7  and  C_10
REMARK    5  A    between atoms: S_15  and  C_16
REMARK    6  A    between atoms: C_16  and  C_17
REMARK    7  A    between atoms: C_17  and  N_18
REMARK    8  A    between atoms: N_19  and  C_26
REMARK                            x       y       z     vdW  Elec       q    Type
REMARK                         _______ _______ _______ _____ _____    ______ ____
ROOT
ATOM      1  C   UNL     1     -36.582  26.538   2.484  0.00  0.00    +0.113 C 
ENDROOT
BRANCH   1   4
ATOM      2  S   UNL     1     -34.373  25.875   5.728  0.00  0.00    -0.055 S 
ATOM      3  N   UNL     1     -34.381  27.065   3.433  0.00  0.00    -0.384 NA
ATOM      4  C   UNL     1     -35.586  26.425   3.591  0.00  0.00    +0.111 C 
ATOM      5  C   UNL     1     -35.778  25.730   4.755  0.00  0.00    +0.121 C 
ATOM      6  C   UNL     1     -33.656  26.842   4.507  0.00  0.00    +0.243 C 
BRANCH   6   7
ATOM      7  N   UNL     1     -32.401  27.310   4.727  0.00  0.00    -0.178 NA
BRANCH   7  10
ATOM      8  N   UNL     1     -31.530  29.013   6.205  0.00  0.00    -0.370 N 
ATOM      9  N   UNL     1     -32.937  29.568   4.500  0.00  0.00    -0.370 N 
ATOM     10  C   UNL     1     -32.276  28.548   5.143  0.00  0.00    +0.196 C 
ATOM     11  H   UNL     1     -31.006  28.384   6.752  0.00  0.00    +0.159 HD
ATOM     12  H   UNL     1     -31.519  29.975   6.416  0.00  0.00    +0.159 HD
ATOM     13  H   UNL     1     -33.508  29.372   3.721  0.00  0.00    +0.159 HD
ATOM     14  H   UNL     1     -32.840  30.496   4.816  0.00  0.00    +0.159 HD
ENDBRANCH   7  10
ENDBRANCH   6   7
ENDBRANCH   1   4
BRANCH   1  15
ATOM     15  S   UNL     1     -38.094  25.620   2.855  0.00  0.00    -0.131 S 
BRANCH  15  16
ATOM     16  C   UNL     1     -37.828  24.216   1.727  0.00  0.00    +0.082 C 
BRANCH  16  17
ATOM     17  C   UNL     1     -38.191  22.882   2.369  0.00  0.00    +0.112 C 
BRANCH  17  18
ATOM     18  N   UNL     1     -37.225  22.501   3.375  0.00  0.00    -0.344 N 
ATOM     19  N   UNL     1     -35.295  21.376   4.273  0.00  0.00    -0.263 N 
ATOM     20  N   UNL     1     -35.945  21.109   1.982  0.00  0.00    -0.237 NA
ATOM     21  C   UNL     1     -36.160  21.644   3.144  0.00  0.00    +0.208 C 
ATOM     22  C   UNL     1     -34.813  20.216   1.796  0.00  0.00    +0.155 C 
ATOM     23  H   UNL     1     -37.331  22.874   4.280  0.00  0.00    +0.163 HD
ATOM     24  H   UNL     1     -34.521  20.777   4.176  0.00  0.00    +0.181 HD
BRANCH  19  26
ATOM     25  N   UNL     1     -35.786  22.461   6.476  0.00  0.00    -0.171 NA
ATOM     26  C   UNL     1     -35.562  21.954   5.455  0.00  0.00    +0.184 C 
ENDBRANCH  19  26
ENDBRANCH  17  18
ENDBRANCH  16  17
ENDBRANCH  15  16
ENDBRANCH   1  15
TORSDOF 8
ENDMDL
MODEL 7
REMARK VINA RESULT:      -4.5      2.953      5.400
REMARK  Name = 50287
REMARK  8 active torsions:
REMARK  status: ('A' for Active; 'I' for Inactive)
REMARK    1  A    between atoms: C_1  and  C_4
REMARK    2  A    between atoms: C_1  and  S_15
REMARK    3  A    between atoms: C_6  and  N_7
REMARK    4  A    between atoms: N_7  and  C_10
REMARK    5  A    between atoms: S_15  and  C_16
REMARK    6  A    between atoms: C_16  and  C_17
REMARK    7  A    between atoms: C_17  and  N_18
REMARK    8  A    between atoms: N_19  and  C_26
REMARK                            x       y       z     vdW  Elec       q    Type
REMARK                         _______ _______ _______ _____ _____    ______ ____
ROOT
ATOM      1  C   UNL     1     -39.232  25.164   2.443  0.00  0.00    +0.113 C 
ENDROOT
BRANCH   1   4
ATOM      2  S   UNL     1     -35.576  25.810   3.880  0.00  0.00    -0.055 S 
ATOM      3  N   UNL     1     -37.667  24.310   4.130  0.00  0.00    -0.384 NA
ATOM      4  C   UNL     1     -37.908  25.221   3.131  0.00  0.00    +0.111 C 
ATOM      5  C   UNL     1     -36.909  26.114   2.845  0.00  0.00    +0.121 C 
ATOM      6  C   UNL     1     -36.459  24.528   4.602  0.00  0.00    +0.243 C 
BRANCH   6   7
ATOM      7  N   UNL     1     -35.859  23.830   5.599  0.00  0.00    -0.178 NA
BRANCH   7  10
ATOM      8  N   UNL     1     -35.130  21.630   6.286  0.00  0.00    -0.370 N 
ATOM      9  N   UNL     1     -35.793  22.013   4.138  0.00  0.00    -0.370 N 
ATOM     10  C   UNL     1     -35.600  22.562   5.385  0.00  0.00    +0.196 C 
ATOM     11  H   UNL     1     -34.950  21.893   7.218  0.00  0.00    +0.159 HD
ATOM     12  H   UNL     1     -34.976  20.700   5.999  0.00  0.00    +0.159 HD
ATOM     13  H   UNL     1     -36.128  22.572   3.400  0.00  0.00    +0.159 HD
ATOM     14  H   UNL     1     -35.598  21.060   3.983  0.00  0.00    +0.159 HD
ENDBRANCH   7  10
ENDBRANCH   6   7
ENDBRANCH   1   4
BRANCH   1  15
ATOM     15  S   UNL     1     -39.136  24.237   0.896  0.00  0.00    -0.131 S 
BRANCH  15  16
ATOM     16  C   UNL     1     -39.774  22.645   1.506  0.00  0.00    +0.082 C 
BRANCH  16  17
ATOM     17  C   UNL     1     -38.666  21.740   2.030  0.00  0.00    +0.112 C 
BRANCH  17  18
ATOM     18  N   UNL     1     -38.439  20.619   1.147  0.00  0.00    -0.344 N 
ATOM     19  N   UNL     1     -37.171  18.894   0.045  0.00  0.00    -0.263 N 
ATOM     20  N   UNL     1     -36.146  20.396   1.607  0.00  0.00    -0.237 NA
ATOM     21  C   UNL     1     -37.209  20.003   0.973  0.00  0.00    +0.208 C 
ATOM     22  C   UNL     1     -34.881  19.714   1.387  0.00  0.00    +0.155 C 
ATOM     23  H   UNL     1     -39.206  20.271   0.636  0.00  0.00    +0.163 HD
ATOM     24  H   UNL     1     -36.329  18.413  -0.122  0.00  0.00    +0.181 HD
BRANCH  19  26
ATOM     25  N   UNL     1     -39.275  18.203  -1.124  0.00  0.00    -0.171 NA
ATOM     26  C   UNL     1     -38.299  18.528  -0.585  0.00  0.00    +0.184 C 
ENDBRANCH  19  26
ENDBRANCH  17  18
ENDBRANCH  16  17
ENDBRANCH  15  16
ENDBRANCH   1  15
TORSDOF 8
ENDMDL
MODEL 8
REMARK VINA RESULT:      -4.5      3.231      5.650
REMARK  Name = 50287
REMARK  8 active torsions:
REMARK  status: ('A' for Active; 'I' for Inactive)
REMARK    1  A    between atoms: C_1  and  C_4
REMARK    2  A    between atoms: C_1  and  S_15
REMARK    3  A    between atoms: C_6  and  N_7
REMARK    4  A    between atoms: N_7  and  C_10
REMARK    5  A    between atoms: S_15  and  C_16
REMARK    6  A    between atoms: C_16  and  C_17
REMARK    7  A    between atoms: C_17  and  N_18
REMARK    8  A    between atoms: N_19  and  C_26
REMARK                            x       y       z     vdW  Elec       q    Type
REMARK                         _______ _______ _______ _____ _____    ______ ____
ROOT
ATOM      1  C   UNL     1     -35.489  26.131   3.609  0.00  0.00    +0.113 C 
ENDROOT
BRANCH   1   4
ATOM      2  S   UNL     1     -32.793  29.029   3.190  0.00  0.00    -0.055 S 
ATOM      3  N   UNL     1     -33.480  27.037   4.688  0.00  0.00    -0.384 NA
ATOM      4  C   UNL     1     -34.379  27.128   3.654  0.00  0.00    +0.111 C 
ATOM      5  C   UNL     1     -34.185  28.132   2.742  0.00  0.00    +0.121 C 
ATOM      6  C   UNL     1     -32.592  27.996   4.545  0.00  0.00    +0.243 C 
BRANCH   6   7
ATOM      7  N   UNL     1     -31.541  28.234   5.371  0.00  0.00    -0.178 NA
BRANCH   7  10
ATOM      8  N   UNL     1     -31.532  29.471   7.448  0.00  0.00    -0.370 N 
ATOM      9  N   UNL     1     -32.386  27.359   7.361  0.00  0.00    -0.370 N 
ATOM     10  C   UNL     1     -31.793  28.376   6.651  0.00  0.00    +0.196 C 
ATOM     11  H   UNL     1     -31.108  30.271   7.062  0.00  0.00    +0.159 HD
ATOM     12  H   UNL     1     -31.772  29.453   8.403  0.00  0.00    +0.159 HD
ATOM     13  H   UNL     1     -32.625  26.517   6.910  0.00  0.00    +0.159 HD
ATOM     14  H   UNL     1     -32.572  27.471   8.321  0.00  0.00    +0.159 HD
ENDBRANCH   7  10
ENDBRANCH   6   7
ENDBRANCH   1   4
BRANCH   1  15
ATOM     15  S   UNL     1     -35.940  25.565   5.265  0.00  0.00    -0.131 S 
BRANCH  15  16
ATOM     16  C   UNL     1     -34.815  24.137   5.367  0.00  0.00    +0.082 C 
BRANCH  16  17
ATOM     17  C   UNL     1     -35.567  22.813   5.423  0.00  0.00    +0.112 C 
BRANCH  17  18
ATOM     18  N   UNL     1     -36.562  22.727   4.379  0.00  0.00    -0.344 N 
ATOM     19  N   UNL     1     -37.565  21.930   2.340  0.00  0.00    -0.263 N 
ATOM     20  N   UNL     1     -35.463  21.080   3.116  0.00  0.00    -0.237 NA
ATOM     21  C   UNL     1     -36.471  21.879   3.286  0.00  0.00    +0.208 C 
ATOM     22  C   UNL     1     -35.418  20.212   1.950  0.00  0.00    +0.155 C 
ATOM     23  H   UNL     1     -37.355  23.307   4.448  0.00  0.00    +0.163 HD
ATOM     24  H   UNL     1     -37.562  21.353   1.543  0.00  0.00    +0.181 HD
BRANCH  19  26
ATOM     25  N   UNL     1     -39.467  23.502   2.763  0.00  0.00    -0.171 NA
ATOM     26  C   UNL     1     -38.585  22.775   2.562  0.00  0.00    +0.184 C 
ENDBRANCH  19  26
ENDBRANCH  17  18
ENDBRANCH  16  17
ENDBRANCH  15  16
ENDBRANCH   1  15
TORSDOF 8
ENDMDL
MODEL 9
REMARK VINA RESULT:      -4.5      3.927      6.338
REMARK  Name = 50287
REMARK  8 active torsions:
REMARK  status: ('A' for Active; 'I' for Inactive)
REMARK    1  A    between atoms: C_1  and  C_4
REMARK    2  A    between atoms: C_1  and  S_15
REMARK    3  A    between atoms: C_6  and  N_7
REMARK    4  A    between atoms: N_7  and  C_10
REMARK    5  A    between atoms: S_15  and  C_16
REMARK    6  A    between atoms: C_16  and  C_17
REMARK    7  A    between atoms: C_17  and  N_18
REMARK    8  A    between atoms: N_19  and  C_26
REMARK                            x       y       z     vdW  Elec       q    Type
REMARK                         _______ _______ _______ _____ _____    ______ ____
ROOT
ATOM      1  C   UNL     1     -34.119  25.861   4.813  0.00  0.00    +0.113 C 
ENDROOT
BRANCH   1   4
ATOM      2  S   UNL     1     -32.344  29.187   3.537  0.00  0.00    -0.055 S 
ATOM      3  N   UNL     1     -32.215  27.322   5.323  0.00  0.00    -0.384 NA
ATOM      4  C   UNL     1     -33.298  27.071   4.516  0.00  0.00    +0.111 C 
ATOM      5  C   UNL     1     -33.537  27.955   3.498  0.00  0.00    +0.121 C 
ATOM      6  C   UNL     1     -31.633  28.422   4.898  0.00  0.00    +0.243 C 
BRANCH   6   7
ATOM      7  N   UNL     1     -30.528  28.995   5.439  0.00  0.00    -0.178 NA
BRANCH   7  10
ATOM      8  N   UNL     1     -31.605  29.393   7.566  0.00  0.00    -0.370 N 
ATOM      9  N   UNL     1     -29.334  29.247   7.427  0.00  0.00    -0.370 N 
ATOM     10  C   UNL     1     -30.522  29.201   6.735  0.00  0.00    +0.196 C 
ATOM     11  H   UNL     1     -32.518  29.384   7.197  0.00  0.00    +0.159 HD
ATOM     12  H   UNL     1     -31.467  29.539   8.531  0.00  0.00    +0.159 HD
ATOM     13  H   UNL     1     -28.481  29.124   6.951  0.00  0.00    +0.159 HD
ATOM     14  H   UNL     1     -29.335  29.402   8.399  0.00  0.00    +0.159 HD
ENDBRANCH   7  10
ENDBRANCH   6   7
ENDBRANCH   1   4
BRANCH   1  15
ATOM     15  S   UNL     1     -35.886  26.241   4.811  0.00  0.00    -0.131 S 
BRANCH  15  16
ATOM     16  C   UNL     1     -36.313  25.485   3.211  0.00  0.00    +0.082 C 
BRANCH  16  17
ATOM     17  C   UNL     1     -37.317  24.349   3.359  0.00  0.00    +0.112 C 
BRANCH  17  18
ATOM     18  N   UNL     1     -36.689  23.061   3.166  0.00  0.00    -0.344 N 
ATOM     19  N   UNL     1     -35.496  21.066   3.794  0.00  0.00    -0.263 N 
ATOM     20  N   UNL     1     -36.015  22.771   5.397  0.00  0.00    -0.237 NA
ATOM     21  C   UNL     1     -36.073  22.337   4.175  0.00  0.00    +0.208 C 
ATOM     22  C   UNL     1     -35.356  21.971   6.416  0.00  0.00    +0.155 C 
ATOM     23  H   UNL     1     -36.699  22.675   2.260  0.00  0.00    +0.163 HD
ATOM     24  H   UNL     1     -35.046  20.503   4.463  0.00  0.00    +0.181 HD
BRANCH  19  26
ATOM     25  N   UNL     1     -35.649  20.315   1.410  0.00  0.00    -0.171 NA
ATOM     26  C   UNL     1     -35.583  20.664   2.515  0.00  0.00    +0.184 C 
ENDBRANCH  19  26
ENDBRANCH  17  18
ENDBRANCH  16  17
ENDBRANCH  15  16
ENDBRANCH   1  15
TORSDOF 8
ENDMDL
