MODEL 1
REMARK VINA RESULT:      -6.2      0.000      0.000
REMARK  Name = 5387080
REMARK  4 active torsions:
REMARK  status: ('A' for Active; 'I' for Inactive)
REMARK    1  A    between atoms: C_9  and  C_16
REMARK    2  A    between atoms: N_15  and  N_18
REMARK    3  A    between atoms: N_18  and  C_21
REMARK    4  A    between atoms: C_21  and  N_22
REMARK                            x       y       z     vdW  Elec       q    Type
REMARK                         _______ _______ _______ _____ _____    ______ ____
ROOT
ATOM      1  N   UNL     1     -36.414  27.056   2.846  0.00  0.00    -0.355 N 
ATOM      2  N   UNL     1     -36.981  23.561   3.878  0.00  0.00    -0.267 NA
ATOM      3  C   UNL     1     -35.038  25.564   3.771  0.00  0.00    -0.001 A 
ATOM      4  C   UNL     1     -34.320  26.785   3.566  0.00  0.00    +0.013 A 
ATOM      5  C   UNL     1     -36.340  25.767   3.311  0.00  0.00    +0.055 A 
ATOM      6  C   UNL     1     -35.205  27.696   2.988  0.00  0.00    +0.056 A 
ATOM      7  C   UNL     1     -34.706  24.309   4.302  0.00  0.00    +0.074 C 
ATOM      8  C   UNL     1     -32.996  27.199   3.820  0.00  0.00    +0.001 C 
ATOM      9  C   UNL     1     -35.720  23.361   4.324  0.00  0.00    +0.073 C 
ATOM     10  C   UNL     1     -34.833  29.003   2.651  0.00  0.00    +0.017 C 
ATOM     11  C   UNL     1     -37.306  24.770   3.365  0.00  0.00    +0.168 C 
ATOM     12  C   UNL     1     -32.609  28.502   3.487  0.00  0.00    +0.000 C 
ATOM     13  C   UNL     1     -33.515  29.389   2.912  0.00  0.00    +0.001 C 
ATOM     14  H   UNL     1     -37.223  27.468   2.463  0.00  0.00    +0.166 HD
ENDROOT
BRANCH   9  16
ATOM     15  N   UNL     1     -35.343  21.019   4.027  0.00  0.00    -0.183 NA
ATOM     16  C   UNL     1     -35.454  22.036   4.858  0.00  0.00    +0.090 C 
ATOM     17  C   UNL     1     -35.309  21.863   6.374  0.00  0.00    +0.055 C 
BRANCH  15  18
ATOM     18  N   UNL     1     -35.479  21.228   2.698  0.00  0.00    -0.218 N 
ATOM     19  H   UNL     1     -34.871  21.850   2.238  0.00  0.00    +0.176 HD
BRANCH  18  21
ATOM     20  S   UNL     1     -36.075  19.515   0.751  0.00  0.00    -0.017 S 
ATOM     21  C   UNL     1     -36.455  20.579   1.983  0.00  0.00    +0.147 C 
BRANCH  21  22
ATOM     22  N   UNL     1     -37.754  20.843   2.326  0.00  0.00    -0.339 N 
ATOM     23  H   UNL     1     -38.280  21.489   1.800  0.00  0.00    +0.144 HD
ATOM     24  H   UNL     1     -38.162  20.388   3.098  0.00  0.00    +0.144 HD
ENDBRANCH  21  22
ENDBRANCH  18  21
ENDBRANCH  15  18
ENDBRANCH   9  16
TORSDOF 4
ENDMDL
MODEL 2
REMARK VINA RESULT:      -6.2      2.842      6.539
REMARK  Name = 5387080
REMARK  4 active torsions:
REMARK  status: ('A' for Active; 'I' for Inactive)
REMARK    1  A    between atoms: C_9  and  C_16
REMARK    2  A    between atoms: N_15  and  N_18
REMARK    3  A    between atoms: N_18  and  C_21
REMARK    4  A    between atoms: C_21  and  N_22
REMARK                            x       y       z     vdW  Elec       q    Type
REMARK                         _______ _______ _______ _____ _____    ______ ____
ROOT
ATOM      1  N   UNL     1     -36.842  20.647   0.651  0.00  0.00    -0.355 N 
ATOM      2  N   UNL     1     -36.982  22.825   3.625  0.00  0.00    -0.267 NA
ATOM      3  C   UNL     1     -35.437  20.866   2.370  0.00  0.00    -0.001 A 
ATOM      4  C   UNL     1     -34.917  19.878   1.476  0.00  0.00    +0.013 A 
ATOM      5  C   UNL     1     -36.637  21.326   1.827  0.00  0.00    +0.055 A 
ATOM      6  C   UNL     1     -35.815  19.763   0.414  0.00  0.00    +0.056 A 
ATOM      7  C   UNL     1     -35.002  21.414   3.587  0.00  0.00    +0.074 C 
ATOM      8  C   UNL     1     -33.762  19.067   1.473  0.00  0.00    +0.001 C 
ATOM      9  C   UNL     1     -35.819  22.382   4.154  0.00  0.00    +0.073 C 
ATOM     10  C   UNL     1     -35.617  18.878  -0.653  0.00  0.00    +0.017 C 
ATOM     11  C   UNL     1     -37.406  22.300   2.452  0.00  0.00    +0.168 C 
ATOM     12  C   UNL     1     -33.551  18.177   0.414  0.00  0.00    +0.000 C 
ATOM     13  C   UNL     1     -34.466  18.086  -0.632  0.00  0.00    +0.001 C 
ATOM     14  H   UNL     1     -37.618  20.775   0.058  0.00  0.00    +0.166 HD
ENDROOT
BRANCH   9  16
ATOM     15  N   UNL     1     -35.075  24.262   5.430  0.00  0.00    -0.183 NA
ATOM     16  C   UNL     1     -35.438  22.996   5.415  0.00  0.00    +0.090 C 
ATOM     17  C   UNL     1     -35.471  22.147   6.691  0.00  0.00    +0.055 C 
BRANCH  15  18
ATOM     18  N   UNL     1     -35.065  24.964   4.274  0.00  0.00    -0.218 N 
ATOM     19  H   UNL     1     -34.695  24.555   3.459  0.00  0.00    +0.176 HD
BRANCH  18  21
ATOM     20  S   UNL     1     -35.079  27.327   3.050  0.00  0.00    -0.017 S 
ATOM     21  C   UNL     1     -35.564  26.243   4.227  0.00  0.00    +0.147 C 
BRANCH  21  22
ATOM     22  N   UNL     1     -36.478  26.588   5.186  0.00  0.00    -0.339 N 
ATOM     23  H   UNL     1     -36.422  26.189   6.085  0.00  0.00    +0.144 HD
ATOM     24  H   UNL     1     -37.190  27.234   4.977  0.00  0.00    +0.144 HD
ENDBRANCH  21  22
ENDBRANCH  18  21
ENDBRANCH  15  18
ENDBRANCH   9  16
TORSDOF 4
ENDMDL
MODEL 3
REMARK VINA RESULT:      -6.0      2.625      3.646
REMARK  Name = 5387080
REMARK  4 active torsions:
REMARK  status: ('A' for Active; 'I' for Inactive)
REMARK    1  A    between atoms: C_9  and  C_16
REMARK    2  A    between atoms: N_15  and  N_18
REMARK    3  A    between atoms: N_18  and  C_21
REMARK    4  A    between atoms: C_21  and  N_22
REMARK                            x       y       z     vdW  Elec       q    Type
REMARK                         _______ _______ _______ _____ _____    ______ ____
ROOT
ATOM      1  N   UNL     1     -32.418  28.118   3.209  0.00  0.00    -0.355 N 
ATOM      2  N   UNL     1     -34.620  25.160   3.164  0.00  0.00    -0.267 NA
ATOM      3  C   UNL     1     -33.291  26.921   4.876  0.00  0.00    -0.001 A 
ATOM      4  C   UNL     1     -32.501  27.975   5.434  0.00  0.00    +0.013 A 
ATOM      5  C   UNL     1     -33.218  27.038   3.488  0.00  0.00    +0.055 A 
ATOM      6  C   UNL     1     -31.969  28.704   4.370  0.00  0.00    +0.056 A 
ATOM      7  C   UNL     1     -34.061  25.880   5.418  0.00  0.00    +0.074 C 
ATOM      8  C   UNL     1     -32.188  28.376   6.750  0.00  0.00    +0.001 C 
ATOM      9  C   UNL     1     -34.694  25.043   4.509  0.00  0.00    +0.073 C 
ATOM     10  C   UNL     1     -31.139  29.816   4.554  0.00  0.00    +0.017 C 
ATOM     11  C   UNL     1     -33.880  26.162   2.636  0.00  0.00    +0.168 C 
ATOM     12  C   UNL     1     -31.359  29.485   6.950  0.00  0.00    +0.000 C 
ATOM     13  C   UNL     1     -30.844  30.194   5.867  0.00  0.00    +0.001 C 
ATOM     14  H   UNL     1     -32.195  28.431   2.302  0.00  0.00    +0.166 HD
ENDROOT
BRANCH   9  16
ATOM     15  N   UNL     1     -36.818  24.010   4.876  0.00  0.00    -0.183 NA
ATOM     16  C   UNL     1     -35.508  23.941   4.992  0.00  0.00    +0.090 C 
ATOM     17  C   UNL     1     -34.813  22.728   5.624  0.00  0.00    +0.055 C 
BRANCH  15  18
ATOM     18  N   UNL     1     -37.379  25.102   4.309  0.00  0.00    -0.218 N 
ATOM     19  H   UNL     1     -37.098  26.000   4.600  0.00  0.00    +0.176 HD
BRANCH  18  21
ATOM     20  S   UNL     1     -37.948  25.081   1.711  0.00  0.00    -0.017 S 
ATOM     21  C   UNL     1     -38.336  24.973   3.333  0.00  0.00    +0.147 C 
BRANCH  21  22
ATOM     22  N   UNL     1     -39.620  24.750   3.750  0.00  0.00    -0.339 N 
ATOM     23  H   UNL     1     -39.858  24.871   4.698  0.00  0.00    +0.144 HD
ATOM     24  H   UNL     1     -40.306  24.469   3.102  0.00  0.00    +0.144 HD
ENDBRANCH  21  22
ENDBRANCH  18  21
ENDBRANCH  15  18
ENDBRANCH   9  16
TORSDOF 4
ENDMDL
MODEL 4
REMARK VINA RESULT:      -6.0      3.644      6.599
REMARK  Name = 5387080
REMARK  4 active torsions:
REMARK  status: ('A' for Active; 'I' for Inactive)
REMARK    1  A    between atoms: C_9  and  C_16
REMARK    2  A    between atoms: N_15  and  N_18
REMARK    3  A    between atoms: N_18  and  C_21
REMARK    4  A    between atoms: C_21  and  N_22
REMARK                            x       y       z     vdW  Elec       q    Type
REMARK                         _______ _______ _______ _____ _____    ______ ____
ROOT
ATOM      1  N   UNL     1     -32.948  21.906  -0.122  0.00  0.00    -0.355 N 
ATOM      2  N   UNL     1     -36.133  23.386   1.005  0.00  0.00    -0.267 NA
ATOM      3  C   UNL     1     -34.566  21.081   1.172  0.00  0.00    -0.001 A 
ATOM      4  C   UNL     1     -33.537  20.095   1.041  0.00  0.00    +0.013 A 
ATOM      5  C   UNL     1     -34.169  22.196   0.436  0.00  0.00    +0.055 A 
ATOM      6  C   UNL     1     -32.542  20.639   0.227  0.00  0.00    +0.056 A 
ATOM      7  C   UNL     1     -35.796  21.130   1.848  0.00  0.00    +0.074 C 
ATOM      8  C   UNL     1     -33.361  18.787   1.539  0.00  0.00    +0.001 C 
ATOM      9  C   UNL     1     -36.522  22.306   1.720  0.00  0.00    +0.073 C 
ATOM     10  C   UNL     1     -31.377  19.941  -0.113  0.00  0.00    +0.017 C 
ATOM     11  C   UNL     1     -34.948  23.343   0.352  0.00  0.00    +0.168 C 
ATOM     12  C   UNL     1     -32.202  18.077   1.206  0.00  0.00    +0.000 C 
ATOM     13  C   UNL     1     -31.226  18.647   0.393  0.00  0.00    +0.001 C 
ATOM     14  H   UNL     1     -32.434  22.520  -0.695  0.00  0.00    +0.166 HD
ENDROOT
BRANCH   9  16
ATOM     15  N   UNL     1     -37.904  23.208   3.449  0.00  0.00    -0.183 NA
ATOM     16  C   UNL     1     -37.806  22.434   2.388  0.00  0.00    +0.090 C 
ATOM     17  C   UNL     1     -39.009  21.661   1.833  0.00  0.00    +0.055 C 
BRANCH  15  18
ATOM     18  N   UNL     1     -36.812  23.867   3.895  0.00  0.00    -0.218 N 
ATOM     19  H   UNL     1     -35.942  23.406   3.923  0.00  0.00    +0.176 HD
BRANCH  18  21
ATOM     20  S   UNL     1     -35.807  25.822   5.395  0.00  0.00    -0.017 S 
ATOM     21  C   UNL     1     -36.902  25.172   4.311  0.00  0.00    +0.147 C 
BRANCH  21  22
ATOM     22  N   UNL     1     -37.927  25.918   3.795  0.00  0.00    -0.339 N 
ATOM     23  H   UNL     1     -38.843  25.554   3.783  0.00  0.00    +0.144 HD
ATOM     24  H   UNL     1     -37.750  26.818   3.437  0.00  0.00    +0.144 HD
ENDBRANCH  21  22
ENDBRANCH  18  21
ENDBRANCH  15  18
ENDBRANCH   9  16
TORSDOF 4
ENDMDL
MODEL 5
REMARK VINA RESULT:      -6.0      3.682      6.745
REMARK  Name = 5387080
REMARK  4 active torsions:
REMARK  status: ('A' for Active; 'I' for Inactive)
REMARK    1  A    between atoms: C_9  and  C_16
REMARK    2  A    between atoms: N_15  and  N_18
REMARK    3  A    between atoms: N_18  and  C_21
REMARK    4  A    between atoms: C_21  and  N_22
REMARK                            x       y       z     vdW  Elec       q    Type
REMARK                         _______ _______ _______ _____ _____    ______ ____
ROOT
ATOM      1  N   UNL     1     -35.900  23.010   4.687  0.00  0.00    -0.355 N 
ATOM      2  N   UNL     1     -35.194  26.606   5.109  0.00  0.00    -0.267 NA
ATOM      3  C   UNL     1     -34.980  24.492   3.297  0.00  0.00    -0.001 A 
ATOM      4  C   UNL     1     -35.027  23.220   2.644  0.00  0.00    +0.013 A 
ATOM      5  C   UNL     1     -35.531  24.327   4.568  0.00  0.00    +0.055 A 
ATOM      6  C   UNL     1     -35.606  22.316   3.536  0.00  0.00    +0.056 A 
ATOM      7  C   UNL     1     -34.521  25.767   2.928  0.00  0.00    +0.074 C 
ATOM      8  C   UNL     1     -34.629  22.753   1.374  0.00  0.00    +0.001 C 
ATOM      9  C   UNL     1     -34.659  26.769   3.878  0.00  0.00    +0.073 C 
ATOM     10  C   UNL     1     -35.808  20.967   3.222  0.00  0.00    +0.017 C 
ATOM     11  C   UNL     1     -35.637  25.379   5.469  0.00  0.00    +0.168 C 
ATOM     12  C   UNL     1     -34.824  21.406   1.046  0.00  0.00    +0.000 C 
ATOM     13  C   UNL     1     -35.406  20.529   1.957  0.00  0.00    +0.001 C 
ATOM     14  H   UNL     1     -36.318  22.616   5.487  0.00  0.00    +0.166 HD
ENDROOT
BRANCH   9  16
ATOM     15  N   UNL     1     -33.088  28.556   4.112  0.00  0.00    -0.183 NA
ATOM     16  C   UNL     1     -34.206  28.116   3.573  0.00  0.00    +0.090 C 
ATOM     17  C   UNL     1     -35.047  28.984   2.629  0.00  0.00    +0.055 C 
BRANCH  15  18
ATOM     18  N   UNL     1     -32.385  27.748   4.937  0.00  0.00    -0.218 N 
ATOM     19  H   UNL     1     -32.005  26.909   4.590  0.00  0.00    +0.176 HD
BRANCH  18  21
ATOM     20  S   UNL     1     -31.469  29.528   6.690  0.00  0.00    -0.017 S 
ATOM     21  C   UNL     1     -32.195  28.086   6.255  0.00  0.00    +0.147 C 
BRANCH  21  22
ATOM     22  N   UNL     1     -32.627  27.189   7.194  0.00  0.00    -0.339 N 
ATOM     23  H   UNL     1     -32.019  26.898   7.913  0.00  0.00    +0.144 HD
ATOM     24  H   UNL     1     -33.544  26.835   7.151  0.00  0.00    +0.144 HD
ENDBRANCH  21  22
ENDBRANCH  18  21
ENDBRANCH  15  18
ENDBRANCH   9  16
TORSDOF 4
ENDMDL
MODEL 6
REMARK VINA RESULT:      -5.7      2.875      6.444
REMARK  Name = 5387080
REMARK  4 active torsions:
REMARK  status: ('A' for Active; 'I' for Inactive)
REMARK    1  A    between atoms: C_9  and  C_16
REMARK    2  A    between atoms: N_15  and  N_18
REMARK    3  A    between atoms: N_18  and  C_21
REMARK    4  A    between atoms: C_21  and  N_22
REMARK                            x       y       z     vdW  Elec       q    Type
REMARK                         _______ _______ _______ _____ _____    ______ ____
ROOT
ATOM      1  N   UNL     1     -38.872  22.378   1.182  0.00  0.00    -0.355 N 
ATOM      2  N   UNL     1     -37.092  23.940   4.009  0.00  0.00    -0.267 NA
ATOM      3  C   UNL     1     -37.041  21.743   2.286  0.00  0.00    -0.001 A 
ATOM      4  C   UNL     1     -37.318  20.779   1.266  0.00  0.00    +0.013 A 
ATOM      5  C   UNL     1     -38.028  22.726   2.207  0.00  0.00    +0.055 A 
ATOM      6  C   UNL     1     -38.466  21.202   0.595  0.00  0.00    +0.056 A 
ATOM      7  C   UNL     1     -36.046  21.874   3.268  0.00  0.00    +0.074 C 
ATOM      8  C   UNL     1     -36.697  19.582   0.852  0.00  0.00    +0.001 C 
ATOM      9  C   UNL     1     -36.134  22.989   4.089  0.00  0.00    +0.073 C 
ATOM     10  C   UNL     1     -39.025  20.489  -0.473  0.00  0.00    +0.017 C 
ATOM     11  C   UNL     1     -38.053  23.819   3.065  0.00  0.00    +0.168 C 
ATOM     12  C   UNL     1     -37.244  18.858  -0.213  0.00  0.00    +0.000 C 
ATOM     13  C   UNL     1     -38.391  19.307  -0.864  0.00  0.00    +0.001 C 
ATOM     14  H   UNL     1     -39.661  22.898   0.905  0.00  0.00    +0.166 HD
ENDROOT
BRANCH   9  16
ATOM     15  N   UNL     1     -34.307  24.208   5.033  0.00  0.00    -0.183 NA
ATOM     16  C   UNL     1     -35.142  23.194   5.132  0.00  0.00    +0.090 C 
ATOM     17  C   UNL     1     -35.100  22.221   6.316  0.00  0.00    +0.055 C 
BRANCH  15  18
ATOM     18  N   UNL     1     -34.388  25.036   3.968  0.00  0.00    -0.218 N 
ATOM     19  H   UNL     1     -34.317  24.668   3.058  0.00  0.00    +0.176 HD
BRANCH  18  21
ATOM     20  S   UNL     1     -33.382  27.487   3.727  0.00  0.00    -0.017 S 
ATOM     21  C   UNL     1     -34.570  26.386   4.141  0.00  0.00    +0.147 C 
BRANCH  21  22
ATOM     22  N   UNL     1     -35.767  26.788   4.668  0.00  0.00    -0.339 N 
ATOM     23  H   UNL     1     -36.530  26.165   4.689  0.00  0.00    +0.144 HD
ATOM     24  H   UNL     1     -35.866  27.700   5.026  0.00  0.00    +0.144 HD
ENDBRANCH  21  22
ENDBRANCH  18  21
ENDBRANCH  15  18
ENDBRANCH   9  16
TORSDOF 4
ENDMDL
MODEL 7
REMARK VINA RESULT:      -5.5      9.801     12.495
REMARK  Name = 5387080
REMARK  4 active torsions:
REMARK  status: ('A' for Active; 'I' for Inactive)
REMARK    1  A    between atoms: C_9  and  C_16
REMARK    2  A    between atoms: N_15  and  N_18
REMARK    3  A    between atoms: N_18  and  C_21
REMARK    4  A    between atoms: C_21  and  N_22
REMARK                            x       y       z     vdW  Elec       q    Type
REMARK                         _______ _______ _______ _____ _____    ______ ____
ROOT
ATOM      1  N   UNL     1     -44.094  26.559   3.223  0.00  0.00    -0.355 N 
ATOM      2  N   UNL     1     -42.995  29.539   5.098  0.00  0.00    -0.267 NA
ATOM      3  C   UNL     1     -45.014  27.615   4.959  0.00  0.00    -0.001 A 
ATOM      4  C   UNL     1     -45.845  26.505   4.605  0.00  0.00    +0.013 A 
ATOM      5  C   UNL     1     -43.932  27.621   4.078  0.00  0.00    +0.055 A 
ATOM      6  C   UNL     1     -45.245  25.867   3.519  0.00  0.00    +0.056 A 
ATOM      7  C   UNL     1     -45.079  28.614   5.943  0.00  0.00    +0.074 C 
ATOM      8  C   UNL     1     -47.055  25.985   5.109  0.00  0.00    +0.001 C 
ATOM      9  C   UNL     1     -44.043  29.537   5.954  0.00  0.00    +0.073 C 
ATOM     10  C   UNL     1     -45.794  24.731   2.911  0.00  0.00    +0.017 C 
ATOM     11  C   UNL     1     -42.928  28.578   4.148  0.00  0.00    +0.168 C 
ATOM     12  C   UNL     1     -47.617  24.851   4.511  0.00  0.00    +0.000 C 
ATOM     13  C   UNL     1     -46.993  24.235   3.429  0.00  0.00    +0.001 C 
ATOM     14  H   UNL     1     -43.471  26.326   2.496  0.00  0.00    +0.166 HD
ENDROOT
BRANCH   9  16
ATOM     15  N   UNL     1     -44.311  31.834   6.559  0.00  0.00    -0.183 NA
ATOM     16  C   UNL     1     -44.039  30.603   6.941  0.00  0.00    +0.090 C 
ATOM     17  C   UNL     1     -43.719  30.259   8.401  0.00  0.00    +0.055 C 
BRANCH  15  18
ATOM     18  N   UNL     1     -44.588  32.081   5.259  0.00  0.00    -0.218 N 
ATOM     19  H   UNL     1     -44.370  31.405   4.577  0.00  0.00    +0.176 HD
BRANCH  18  21
ATOM     20  S   UNL     1     -46.709  33.682   5.383  0.00  0.00    -0.017 S 
ATOM     21  C   UNL     1     -45.171  33.265   4.879  0.00  0.00    +0.147 C 
BRANCH  21  22
ATOM     22  N   UNL     1     -44.434  34.087   4.070  0.00  0.00    -0.339 N 
ATOM     23  H   UNL     1     -43.553  34.410   4.368  0.00  0.00    +0.144 HD
ATOM     24  H   UNL     1     -44.785  34.356   3.190  0.00  0.00    +0.144 HD
ENDBRANCH  21  22
ENDBRANCH  18  21
ENDBRANCH  15  18
ENDBRANCH   9  16
TORSDOF 4
ENDMDL
MODEL 8
REMARK VINA RESULT:      -5.4      3.232      5.339
REMARK  Name = 5387080
REMARK  4 active torsions:
REMARK  status: ('A' for Active; 'I' for Inactive)
REMARK    1  A    between atoms: C_9  and  C_16
REMARK    2  A    between atoms: N_15  and  N_18
REMARK    3  A    between atoms: N_18  and  C_21
REMARK    4  A    between atoms: C_21  and  N_22
REMARK                            x       y       z     vdW  Elec       q    Type
REMARK                         _______ _______ _______ _____ _____    ______ ____
ROOT
ATOM      1  N   UNL     1     -35.683  23.299   1.911  0.00  0.00    -0.355 N 
ATOM      2  N   UNL     1     -34.864  20.420  -0.244  0.00  0.00    -0.267 NA
ATOM      3  C   UNL     1     -35.051  21.222   2.424  0.00  0.00    -0.001 A 
ATOM      4  C   UNL     1     -35.246  21.955   3.637  0.00  0.00    +0.013 A 
ATOM      5  C   UNL     1     -35.331  22.088   1.367  0.00  0.00    +0.055 A 
ATOM      6  C   UNL     1     -35.640  23.246   3.285  0.00  0.00    +0.056 A 
ATOM      7  C   UNL     1     -34.663  19.907   2.124  0.00  0.00    +0.074 C 
ATOM      8  C   UNL     1     -35.122  21.637   5.006  0.00  0.00    +0.001 C 
ATOM      9  C   UNL     1     -34.591  19.577   0.778  0.00  0.00    +0.073 C 
ATOM     10  C   UNL     1     -35.918  24.238   4.233  0.00  0.00    +0.017 C 
ATOM     11  C   UNL     1     -35.239  21.689   0.040  0.00  0.00    +0.168 C 
ATOM     12  C   UNL     1     -35.396  22.618   5.966  0.00  0.00    +0.000 C 
ATOM     13  C   UNL     1     -35.788  23.898   5.583  0.00  0.00    +0.001 C 
ATOM     14  H   UNL     1     -35.933  24.096   1.389  0.00  0.00    +0.166 HD
ENDROOT
BRANCH   9  16
ATOM     15  N   UNL     1     -35.106  17.409  -0.088  0.00  0.00    -0.183 NA
ATOM     16  C   UNL     1     -34.196  18.235   0.386  0.00  0.00    +0.090 C 
ATOM     17  C   UNL     1     -32.727  17.822   0.537  0.00  0.00    +0.055 C 
BRANCH  15  18
ATOM     18  N   UNL     1     -36.387  17.825  -0.201  0.00  0.00    -0.218 N 
ATOM     19  H   UNL     1     -36.583  18.788  -0.261  0.00  0.00    +0.176 HD
BRANCH  18  21
ATOM     20  S   UNL     1     -38.790  17.189  -1.151  0.00  0.00    -0.017 S 
ATOM     21  C   UNL     1     -37.418  16.919  -0.233  0.00  0.00    +0.147 C 
BRANCH  21  22
ATOM     22  N   UNL     1     -37.271  15.785   0.519  0.00  0.00    -0.339 N 
ATOM     23  H   UNL     1     -38.063  15.343   0.903  0.00  0.00    +0.144 HD
ATOM     24  H   UNL     1     -36.374  15.411   0.676  0.00  0.00    +0.144 HD
ENDBRANCH  21  22
ENDBRANCH  18  21
ENDBRANCH  15  18
ENDBRANCH   9  16
TORSDOF 4
ENDMDL
MODEL 9
REMARK VINA RESULT:      -5.4      2.579      2.978
REMARK  Name = 5387080
REMARK  4 active torsions:
REMARK  status: ('A' for Active; 'I' for Inactive)
REMARK    1  A    between atoms: C_9  and  C_16
REMARK    2  A    between atoms: N_15  and  N_18
REMARK    3  A    between atoms: N_18  and  C_21
REMARK    4  A    between atoms: C_21  and  N_22
REMARK                            x       y       z     vdW  Elec       q    Type
REMARK                         _______ _______ _______ _____ _____    ______ ____
ROOT
ATOM      1  N   UNL     1     -34.148  26.644   5.467  0.00  0.00    -0.355 N 
ATOM      2  N   UNL     1     -36.315  23.708   4.927  0.00  0.00    -0.267 NA
ATOM      3  C   UNL     1     -34.262  25.205   3.767  0.00  0.00    -0.001 A 
ATOM      4  C   UNL     1     -33.245  26.170   3.483  0.00  0.00    +0.013 A 
ATOM      5  C   UNL     1     -34.806  25.529   5.010  0.00  0.00    +0.055 A 
ATOM      6  C   UNL     1     -33.198  27.054   4.562  0.00  0.00    +0.056 A 
ATOM      7  C   UNL     1     -34.772  24.088   3.086  0.00  0.00    +0.074 C 
ATOM      8  C   UNL     1     -32.359  26.374   2.404  0.00  0.00    +0.001 C 
ATOM      9  C   UNL     1     -35.791  23.391   3.721  0.00  0.00    +0.073 C 
ATOM     10  C   UNL     1     -32.307  28.133   4.618  0.00  0.00    +0.017 C 
ATOM     11  C   UNL     1     -35.827  24.784   5.587  0.00  0.00    +0.168 C 
ATOM     12  C   UNL     1     -31.464  27.448   2.446  0.00  0.00    +0.000 C 
ATOM     13  C   UNL     1     -31.439  28.313   3.537  0.00  0.00    +0.001 C 
ATOM     14  H   UNL     1     -34.332  27.090   6.326  0.00  0.00    +0.166 HD
ENDROOT
BRANCH   9  16
ATOM     15  N   UNL     1     -37.627  22.268   2.682  0.00  0.00    -0.183 NA
ATOM     16  C   UNL     1     -36.372  22.225   3.079  0.00  0.00    +0.090 C 
ATOM     17  C   UNL     1     -35.503  20.976   2.884  0.00  0.00    +0.055 C 
BRANCH  15  18
ATOM     18  N   UNL     1     -38.348  23.395   2.878  0.00  0.00    -0.218 N 
ATOM     19  H   UNL     1     -37.968  24.130   3.411  0.00  0.00    +0.176 HD
BRANCH  18  21
ATOM     20  S   UNL     1     -40.354  25.015   2.222  0.00  0.00    -0.017 S 
ATOM     21  C   UNL     1     -39.605  23.525   2.341  0.00  0.00    +0.147 C 
BRANCH  21  22
ATOM     22  N   UNL     1     -40.216  22.380   1.908  0.00  0.00    -0.339 N 
ATOM     23  H   UNL     1     -40.082  21.535   2.396  0.00  0.00    +0.144 HD
ATOM     24  H   UNL     1     -40.790  22.401   1.107  0.00  0.00    +0.144 HD
ENDBRANCH  21  22
ENDBRANCH  18  21
ENDBRANCH  15  18
ENDBRANCH   9  16
TORSDOF 4
ENDMDL
