MODEL 1
REMARK VINA RESULT:      -6.1      0.000      0.000
REMARK  Name = 56296
REMARK  10 active torsions:
REMARK  status: ('A' for Active; 'I' for Inactive)
REMARK    1  A    between atoms: C_3  and  C_19
REMARK    2  A    between atoms: C_6  and  O_15
REMARK    3  A    between atoms: C_7  and  O_13
REMARK    4  A    between atoms: C_11  and  O_17
REMARK    5  A    between atoms: C_19  and  S_20
REMARK    6  A    between atoms: S_20  and  C_21
REMARK    7  A    between atoms: C_21  and  C_22
REMARK    8  A    between atoms: C_22  and  N_24
REMARK    9  A    between atoms: C_22  and  C_29
REMARK   10  A    between atoms: C_29  and  O_30
REMARK                            x       y       z     vdW  Elec       q    Type
REMARK                         _______ _______ _______ _____ _____    ______ ____
ROOT
ATOM      1  O   UNK A   1     -30.212  21.733  -0.966  0.00  0.00    -0.286 OA
ATOM      2  O   UNK A   1     -31.731  17.052   1.120  0.00  0.00    -0.283 OA
ATOM      3  C   UNK A   1     -34.118  21.431   0.638  0.00  0.00    +0.056 C 
ATOM      4  C   UNK A   1     -31.949  20.507   0.097  0.00  0.00    +0.076 C 
ATOM      5  C   UNK A   1     -32.337  19.280   0.639  0.00  0.00    +0.051 C 
ATOM      6  C   UNK A   1     -32.842  21.585   0.096  0.00  0.00    +0.136 C 
ATOM      7  C   UNK A   1     -34.506  20.207   1.179  0.00  0.00    +0.139 C 
ATOM      8  C   UNK A   1     -33.619  19.131   1.182  0.00  0.00    +0.040 C 
ATOM      9  C   UNK A   1     -30.602  20.678  -0.477  0.00  0.00    +0.202 C 
ATOM     10  C   UNK A   1     -31.406  18.135   0.647  0.00  0.00    +0.230 C 
ATOM     11  C   UNK A   1     -30.058  18.337   0.060  0.00  0.00    +0.181 C 
ATOM     12  C   UNK A   1     -29.695  19.513  -0.457  0.00  0.00    +0.082 C 
ENDROOT
BRANCH   7  13
ATOM     13  O   UNK A   1     -35.750  20.042   1.714  0.00  0.00    -0.472 OA
ATOM     14  C   UNK A   1     -36.741  19.452   0.876  0.00  0.00    +0.252 C 
ENDBRANCH   7  13
BRANCH   6  15
ATOM     15  O   UNK A   1     -32.505  22.802  -0.423  0.00  0.00    -0.506 OA
ATOM     16  H   UNK A   1     -32.849  23.585  -0.042  0.00  0.00    +0.292 HD
ENDBRANCH   6  15
BRANCH  11  17
ATOM     17  O   UNK A   1     -29.182  17.271   0.062  0.00  0.00    -0.468 OA
ATOM     18  C   UNK A   1     -28.180  17.446   1.045  0.00  0.00    +0.253 C 
ENDBRANCH  11  17
BRANCH   3  19
ATOM     19  C   UNK A   1     -35.078  22.580   0.639  0.00  0.00    +0.090 C 
BRANCH  19  20
ATOM     20  S   UNK A   1     -34.799  23.712   2.033  0.00  0.00    -0.133 S 
BRANCH  20  21
ATOM     21  C   UNK A   1     -36.075  23.077   3.144  0.00  0.00    +0.089 C 
BRANCH  21  22
ATOM     22  C   UNK A   1     -35.753  23.270   4.629  0.00  0.00    +0.182 C 
BRANCH  22  24
ATOM     23  O   UNK A   0     -36.109  25.904   5.796  0.00  0.00    -0.275 OA
ATOM     24  N   UNK A   1     -34.746  24.279   4.834  0.00  0.00    -0.296 N 
ATOM     25  C   UNK A   0     -35.012  25.516   5.404  0.00  0.00    +0.223 C 
ATOM     26  C   UNK A   0     -33.778  26.368   5.525  0.00  0.00    +0.095 C 
ATOM     27  H   UNK A   1     -33.822  24.082   4.557  0.00  0.00    +0.150 HD
ENDBRANCH  22  24
BRANCH  22  29
ATOM     28  O   UNK A   1     -35.088  21.879   6.499  0.00  0.00    -0.248 OA
ATOM     29  C   UNK A   1     -35.396  21.963   5.317  0.00  0.00    +0.333 C 
BRANCH  29  30
ATOM     30  O   UNK A   1     -35.436  20.893   4.487  0.00  0.00    -0.479 OA
ATOM     31  H   UNK A   1     -35.229  20.996   3.579  0.00  0.00    +0.295 HD
ENDBRANCH  29  30
ENDBRANCH  22  29
ENDBRANCH  21  22
ENDBRANCH  20  21
ENDBRANCH  19  20
ENDBRANCH   3  19
TORSDOF 10
ENDMDL
MODEL 2
REMARK VINA RESULT:      -6.1      4.379      8.068
REMARK  Name = 56296
REMARK  10 active torsions:
REMARK  status: ('A' for Active; 'I' for Inactive)
REMARK    1  A    between atoms: C_3  and  C_19
REMARK    2  A    between atoms: C_6  and  O_15
REMARK    3  A    between atoms: C_7  and  O_13
REMARK    4  A    between atoms: C_11  and  O_17
REMARK    5  A    between atoms: C_19  and  S_20
REMARK    6  A    between atoms: S_20  and  C_21
REMARK    7  A    between atoms: C_21  and  C_22
REMARK    8  A    between atoms: C_22  and  N_24
REMARK    9  A    between atoms: C_22  and  C_29
REMARK   10  A    between atoms: C_29  and  O_30
REMARK                            x       y       z     vdW  Elec       q    Type
REMARK                         _______ _______ _______ _____ _____    ______ ____
ROOT
ATOM      1  O   UNK A   1     -39.650  26.586   3.060  0.00  0.00    -0.286 OA
ATOM      2  O   UNK A   1     -39.859  21.750   0.794  0.00  0.00    -0.283 OA
ATOM      3  C   UNK A   1     -36.571  23.823   3.957  0.00  0.00    +0.056 C 
ATOM      4  C   UNK A   1     -38.617  24.458   2.834  0.00  0.00    +0.076 C 
ATOM      5  C   UNK A   1     -38.680  23.197   2.238  0.00  0.00    +0.051 C 
ATOM      6  C   UNK A   1     -37.560  24.771   3.696  0.00  0.00    +0.136 C 
ATOM      7  C   UNK A   1     -36.633  22.564   3.363  0.00  0.00    +0.139 C 
ATOM      8  C   UNK A   1     -37.685  22.248   2.503  0.00  0.00    +0.040 C 
ATOM      9  C   UNK A   1     -39.658  25.466   2.563  0.00  0.00    +0.202 C 
ATOM     10  C   UNK A   1     -39.790  22.852   1.326  0.00  0.00    +0.230 C 
ATOM     11  C   UNK A   1     -40.823  23.887   1.075  0.00  0.00    +0.181 C 
ATOM     12  C   UNK A   1     -40.756  25.090   1.649  0.00  0.00    +0.082 C 
ENDROOT
BRANCH   7  13
ATOM     13  O   UNK A   1     -35.673  21.628   3.607  0.00  0.00    -0.472 OA
ATOM     14  C   UNK A   1     -35.412  20.682   2.572  0.00  0.00    +0.252 C 
ENDBRANCH   7  13
BRANCH   6  15
ATOM     15  O   UNK A   1     -37.458  25.991   4.300  0.00  0.00    -0.506 OA
ATOM     16  H   UNK A   1     -36.788  26.590   4.037  0.00  0.00    +0.292 HD
ENDBRANCH   6  15
BRANCH  11  17
ATOM     17  O   UNK A   1     -41.865  23.573   0.225  0.00  0.00    -0.468 OA
ATOM     18  C   UNK A   1     -42.555  24.740  -0.175  0.00  0.00    +0.253 C 
ENDBRANCH  11  17
BRANCH   3  19
ATOM     19  C   UNK A   1     -35.438  24.152   4.879  0.00  0.00    +0.090 C 
BRANCH  19  20
ATOM     20  S   UNK A   1     -34.017  24.866   3.999  0.00  0.00    -0.133 S 
BRANCH  20  21
ATOM     21  C   UNK A   1     -33.785  26.334   5.027  0.00  0.00    +0.089 C 
BRANCH  21  22
ATOM     22  C   UNK A   1     -33.179  27.524   4.277  0.00  0.00    +0.182 C 
BRANCH  22  24
ATOM     23  O   UNK A   0     -30.759  27.772   5.862  0.00  0.00    -0.275 OA
ATOM     24  N   UNK A   1     -32.823  28.598   5.170  0.00  0.00    -0.296 N 
ATOM     25  C   UNK A   0     -31.638  28.630   5.888  0.00  0.00    +0.223 C 
ATOM     26  C   UNK A   0     -31.506  29.875   6.723  0.00  0.00    +0.095 C 
ATOM     27  H   UNK A   1     -33.453  29.347   5.275  0.00  0.00    +0.150 HD
ENDBRANCH  22  24
BRANCH  22  29
ATOM     28  O   UNK A   1     -33.659  28.217   2.004  0.00  0.00    -0.248 OA
ATOM     29  C   UNK A   1     -34.066  28.002   3.139  0.00  0.00    +0.333 C 
BRANCH  29  30
ATOM     30  O   UNK A   1     -35.357  28.183   3.506  0.00  0.00    -0.479 OA
ATOM     31  H   UNK A   1     -35.607  28.087   4.404  0.00  0.00    +0.295 HD
ENDBRANCH  29  30
ENDBRANCH  22  29
ENDBRANCH  21  22
ENDBRANCH  20  21
ENDBRANCH  19  20
ENDBRANCH   3  19
TORSDOF 10
ENDMDL
MODEL 3
REMARK VINA RESULT:      -6.0      1.327      2.131
REMARK  Name = 56296
REMARK  10 active torsions:
REMARK  status: ('A' for Active; 'I' for Inactive)
REMARK    1  A    between atoms: C_3  and  C_19
REMARK    2  A    between atoms: C_6  and  O_15
REMARK    3  A    between atoms: C_7  and  O_13
REMARK    4  A    between atoms: C_11  and  O_17
REMARK    5  A    between atoms: C_19  and  S_20
REMARK    6  A    between atoms: S_20  and  C_21
REMARK    7  A    between atoms: C_21  and  C_22
REMARK    8  A    between atoms: C_22  and  N_24
REMARK    9  A    between atoms: C_22  and  C_29
REMARK   10  A    between atoms: C_29  and  O_30
REMARK                            x       y       z     vdW  Elec       q    Type
REMARK                         _______ _______ _______ _____ _____    ______ ____
ROOT
ATOM      1  O   UNK A   1     -30.031  21.599  -1.377  0.00  0.00    -0.286 OA
ATOM      2  O   UNK A   1     -31.553  17.329   1.455  0.00  0.00    -0.283 OA
ATOM      3  C   UNK A   1     -33.960  21.541   0.198  0.00  0.00    +0.056 C 
ATOM      4  C   UNK A   1     -31.777  20.557  -0.146  0.00  0.00    +0.076 C 
ATOM      5  C   UNK A   1     -32.166  19.437   0.593  0.00  0.00    +0.051 C 
ATOM      6  C   UNK A   1     -32.676  21.611  -0.343  0.00  0.00    +0.136 C 
ATOM      7  C   UNK A   1     -34.349  20.423   0.935  0.00  0.00    +0.139 C 
ATOM      8  C   UNK A   1     -33.455  19.371   1.134  0.00  0.00    +0.040 C 
ATOM      9  C   UNK A   1     -30.422  20.640  -0.721  0.00  0.00    +0.202 C 
ATOM     10  C   UNK A   1     -31.227  18.318   0.809  0.00  0.00    +0.230 C 
ATOM     11  C   UNK A   1     -29.872  18.430   0.216  0.00  0.00    +0.181 C 
ATOM     12  C   UNK A   1     -29.507  19.503  -0.489  0.00  0.00    +0.082 C 
ENDROOT
BRANCH   7  13
ATOM     13  O   UNK A   1     -35.599  20.341   1.472  0.00  0.00    -0.472 OA
ATOM     14  C   UNK A   1     -36.538  19.504   0.800  0.00  0.00    +0.252 C 
ENDBRANCH   7  13
BRANCH   6  15
ATOM     15  O   UNK A   1     -32.339  22.725  -1.058  0.00  0.00    -0.506 OA
ATOM     16  H   UNK A   1     -32.964  23.120  -1.632  0.00  0.00    +0.292 HD
ENDBRANCH   6  15
BRANCH  11  17
ATOM     17  O   UNK A   1     -28.989  17.387   0.412  0.00  0.00    -0.468 OA
ATOM     18  C   UNK A   1     -28.170  17.628   1.540  0.00  0.00    +0.253 C 
ENDBRANCH  11  17
BRANCH   3  19
ATOM     19  C   UNK A   1     -34.926  22.665  -0.010  0.00  0.00    +0.090 C 
BRANCH  19  20
ATOM     20  S   UNK A   1     -34.836  23.909   1.311  0.00  0.00    -0.133 S 
BRANCH  20  21
ATOM     21  C   UNK A   1     -36.479  23.657   2.019  0.00  0.00    +0.089 C 
BRANCH  21  22
ATOM     22  C   UNK A   1     -36.628  24.200   3.443  0.00  0.00    +0.182 C 
BRANCH  22  24
ATOM     23  O   UNK A   0     -34.743  24.267   5.651  0.00  0.00    -0.275 OA
ATOM     24  N   UNK A   1     -36.404  23.179   4.435  0.00  0.00    -0.296 N 
ATOM     25  C   UNK A   0     -35.477  23.301   5.459  0.00  0.00    +0.223 C 
ATOM     26  C   UNK A   0     -35.464  22.102   6.368  0.00  0.00    +0.095 C 
ATOM     27  H   UNK A   1     -36.936  22.352   4.384  0.00  0.00    +0.150 HD
ENDBRANCH  22  24
BRANCH  22  29
ATOM     28  O   UNK A   1     -39.044  24.382   3.501  0.00  0.00    -0.248 OA
ATOM     29  C   UNK A   1     -37.952  24.915   3.654  0.00  0.00    +0.333 C 
BRANCH  29  30
ATOM     30  O   UNK A   1     -37.808  26.212   4.013  0.00  0.00    -0.479 OA
ATOM     31  H   UNK A   1     -37.864  26.888   3.366  0.00  0.00    +0.295 HD
ENDBRANCH  29  30
ENDBRANCH  22  29
ENDBRANCH  21  22
ENDBRANCH  20  21
ENDBRANCH  19  20
ENDBRANCH   3  19
TORSDOF 10
ENDMDL
MODEL 4
REMARK VINA RESULT:      -6.0      4.825      7.020
REMARK  Name = 56296
REMARK  10 active torsions:
REMARK  status: ('A' for Active; 'I' for Inactive)
REMARK    1  A    between atoms: C_3  and  C_19
REMARK    2  A    between atoms: C_6  and  O_15
REMARK    3  A    between atoms: C_7  and  O_13
REMARK    4  A    between atoms: C_11  and  O_17
REMARK    5  A    between atoms: C_19  and  S_20
REMARK    6  A    between atoms: S_20  and  C_21
REMARK    7  A    between atoms: C_21  and  C_22
REMARK    8  A    between atoms: C_22  and  N_24
REMARK    9  A    between atoms: C_22  and  C_29
REMARK   10  A    between atoms: C_29  and  O_30
REMARK                            x       y       z     vdW  Elec       q    Type
REMARK                         _______ _______ _______ _____ _____    ______ ____
ROOT
ATOM      1  O   UNK A   1     -33.066  26.697   1.454  0.00  0.00    -0.286 OA
ATOM      2  O   UNK A   1     -33.535  26.789   6.777  0.00  0.00    -0.283 OA
ATOM      3  C   UNK A   1     -35.232  23.578   3.325  0.00  0.00    +0.056 C 
ATOM      4  C   UNK A   1     -33.940  25.622   3.385  0.00  0.00    +0.076 C 
ATOM      5  C   UNK A   1     -34.056  25.654   4.776  0.00  0.00    +0.051 C 
ATOM      6  C   UNK A   1     -34.529  24.581   2.658  0.00  0.00    +0.136 C 
ATOM      7  C   UNK A   1     -35.349  23.609   4.714  0.00  0.00    +0.139 C 
ATOM      8  C   UNK A   1     -34.764  24.645   5.441  0.00  0.00    +0.040 C 
ATOM      9  C   UNK A   1     -33.199  26.679   2.672  0.00  0.00    +0.202 C 
ATOM     10  C   UNK A   1     -33.440  26.746   5.556  0.00  0.00    +0.230 C 
ATOM     11  C   UNK A   1     -32.699  27.794   4.810  0.00  0.00    +0.181 C 
ATOM     12  C   UNK A   1     -32.592  27.755   3.480  0.00  0.00    +0.082 C 
ENDROOT
BRANCH   7  13
ATOM     13  O   UNK A   1     -36.034  22.637   5.379  0.00  0.00    -0.472 OA
ATOM     14  C   UNK A   1     -35.281  21.791   6.245  0.00  0.00    +0.252 C 
ENDBRANCH   7  13
BRANCH   6  15
ATOM     15  O   UNK A   1     -34.440  24.510   1.298  0.00  0.00    -0.506 OA
ATOM     16  H   UNK A   1     -34.657  25.255   0.774  0.00  0.00    +0.292 HD
ENDBRANCH   6  15
BRANCH  11  17
ATOM     17  O   UNK A   1     -32.118  28.817   5.532  0.00  0.00    -0.468 OA
ATOM     18  C   UNK A   1     -30.755  28.539   5.789  0.00  0.00    +0.253 C 
ENDBRANCH  11  17
BRANCH   3  19
ATOM     19  C   UNK A   1     -35.864  22.462   2.553  0.00  0.00    +0.090 C 
BRANCH  19  20
ATOM     20  S   UNK A   1     -37.677  22.575   2.533  0.00  0.00    -0.133 S 
BRANCH  20  21
ATOM     21  C   UNK A   1     -37.845  23.829   1.243  0.00  0.00    +0.089 C 
BRANCH  21  22
ATOM     22  C   UNK A   1     -38.238  25.212   1.773  0.00  0.00    +0.182 C 
BRANCH  22  24
ATOM     23  O   UNK A   0     -38.516  27.905   0.724  0.00  0.00    -0.275 OA
ATOM     24  N   UNK A   1     -37.194  26.183   1.567  0.00  0.00    -0.296 N 
ATOM     25  C   UNK A   0     -37.424  27.453   1.058  0.00  0.00    +0.223 C 
ATOM     26  C   UNK A   0     -36.165  28.272   0.970  0.00  0.00    +0.095 C 
ATOM     27  H   UNK A   1     -36.270  25.934   1.800  0.00  0.00    +0.150 HD
ENDBRANCH  22  24
BRANCH  22  29
ATOM     28  O   UNK A   1     -39.715  24.602   3.596  0.00  0.00    -0.248 OA
ATOM     29  C   UNK A   1     -38.695  25.167   3.222  0.00  0.00    +0.333 C 
BRANCH  29  30
ATOM     30  O   UNK A   1     -37.868  25.830   4.064  0.00  0.00    -0.479 OA
ATOM     31  H   UNK A   1     -38.013  25.794   4.989  0.00  0.00    +0.295 HD
ENDBRANCH  29  30
ENDBRANCH  22  29
ENDBRANCH  21  22
ENDBRANCH  20  21
ENDBRANCH  19  20
ENDBRANCH   3  19
TORSDOF 10
ENDMDL
MODEL 5
REMARK VINA RESULT:      -6.0      3.993      8.027
REMARK  Name = 56296
REMARK  10 active torsions:
REMARK  status: ('A' for Active; 'I' for Inactive)
REMARK    1  A    between atoms: C_3  and  C_19
REMARK    2  A    between atoms: C_6  and  O_15
REMARK    3  A    between atoms: C_7  and  O_13
REMARK    4  A    between atoms: C_11  and  O_17
REMARK    5  A    between atoms: C_19  and  S_20
REMARK    6  A    between atoms: S_20  and  C_21
REMARK    7  A    between atoms: C_21  and  C_22
REMARK    8  A    between atoms: C_22  and  N_24
REMARK    9  A    between atoms: C_22  and  C_29
REMARK   10  A    between atoms: C_29  and  O_30
REMARK                            x       y       z     vdW  Elec       q    Type
REMARK                         _______ _______ _______ _____ _____    ______ ____
ROOT
ATOM      1  O   UNK A   1     -35.127  23.526   5.716  0.00  0.00    -0.286 OA
ATOM      2  O   UNK A   1     -34.616  28.285   3.337  0.00  0.00    -0.283 OA
ATOM      3  C   UNK A   1     -37.693  24.426   2.471  0.00  0.00    +0.056 C 
ATOM      4  C   UNK A   1     -35.908  24.981   4.006  0.00  0.00    +0.076 C 
ATOM      5  C   UNK A   1     -35.767  26.227   3.391  0.00  0.00    +0.051 C 
ATOM      6  C   UNK A   1     -36.874  24.079   3.545  0.00  0.00    +0.136 C 
ATOM      7  C   UNK A   1     -37.553  25.669   1.857  0.00  0.00    +0.139 C 
ATOM      8  C   UNK A   1     -36.592  26.571   2.313  0.00  0.00    +0.040 C 
ATOM      9  C   UNK A   1     -35.044  24.605   5.140  0.00  0.00    +0.202 C 
ATOM     10  C   UNK A   1     -34.752  27.188   3.867  0.00  0.00    +0.230 C 
ATOM     11  C   UNK A   1     -33.900  26.782   5.012  0.00  0.00    +0.181 C 
ATOM     12  C   UNK A   1     -34.041  25.590   5.594  0.00  0.00    +0.082 C 
ENDROOT
BRANCH   7  13
ATOM     13  O   UNK A   1     -38.346  26.022   0.805  0.00  0.00    -0.472 OA
ATOM     14  C   UNK A   1     -37.697  26.567  -0.341  0.00  0.00    +0.252 C 
ENDBRANCH   7  13
BRANCH   6  15
ATOM     15  O   UNK A   1     -37.046  22.850   4.115  0.00  0.00    -0.506 OA
ATOM     16  H   UNK A   1     -37.563  22.763   4.891  0.00  0.00    +0.292 HD
ENDBRANCH   6  15
BRANCH  11  17
ATOM     17  O   UNK A   1     -32.951  27.676   5.464  0.00  0.00    -0.468 OA
ATOM     18  C   UNK A   1     -32.563  27.369   6.789  0.00  0.00    +0.253 C 
ENDBRANCH  11  17
BRANCH   3  19
ATOM     19  C   UNK A   1     -38.728  23.466   1.974  0.00  0.00    +0.090 C 
BRANCH  19  20
ATOM     20  S   UNK A   1     -38.112  22.427   0.616  0.00  0.00    -0.133 S 
BRANCH  20  21
ATOM     21  C   UNK A   1     -37.886  20.893   1.544  0.00  0.00    +0.089 C 
BRANCH  21  22
ATOM     22  C   UNK A   1     -36.672  20.073   1.096  0.00  0.00    +0.182 C 
BRANCH  22  24
ATOM     23  O   UNK A   0     -37.750  18.955  -1.358  0.00  0.00    -0.275 OA
ATOM     24  N   UNK A   1     -37.018  18.698   0.838  0.00  0.00    -0.296 N 
ATOM     25  C   UNK A   0     -37.529  18.255  -0.372  0.00  0.00    +0.223 C 
ATOM     26  C   UNK A   0     -37.778  16.770  -0.381  0.00  0.00    +0.095 C 
ATOM     27  H   UNK A   1     -36.884  18.039   1.557  0.00  0.00    +0.150 HD
ENDBRANCH  22  24
BRANCH  22  29
ATOM     28  O   UNK A   1     -34.336  20.015   1.740  0.00  0.00    -0.248 OA
ATOM     29  C   UNK A   1     -35.504  20.194   2.060  0.00  0.00    +0.333 C 
BRANCH  29  30
ATOM     30  O   UNK A   1     -35.883  20.506   3.322  0.00  0.00    -0.479 OA
ATOM     31  H   UNK A   1     -35.571  19.998   4.045  0.00  0.00    +0.295 HD
ENDBRANCH  29  30
ENDBRANCH  22  29
ENDBRANCH  21  22
ENDBRANCH  20  21
ENDBRANCH  19  20
ENDBRANCH   3  19
TORSDOF 10
ENDMDL
MODEL 6
REMARK VINA RESULT:      -5.9      3.537      6.801
REMARK  Name = 56296
REMARK  10 active torsions:
REMARK  status: ('A' for Active; 'I' for Inactive)
REMARK    1  A    between atoms: C_3  and  C_19
REMARK    2  A    between atoms: C_6  and  O_15
REMARK    3  A    between atoms: C_7  and  O_13
REMARK    4  A    between atoms: C_11  and  O_17
REMARK    5  A    between atoms: C_19  and  S_20
REMARK    6  A    between atoms: S_20  and  C_21
REMARK    7  A    between atoms: C_21  and  C_22
REMARK    8  A    between atoms: C_22  and  N_24
REMARK    9  A    between atoms: C_22  and  C_29
REMARK   10  A    between atoms: C_29  and  O_30
REMARK                            x       y       z     vdW  Elec       q    Type
REMARK                         _______ _______ _______ _____ _____    ______ ____
ROOT
ATOM      1  O   UNK A   1     -35.937  22.203   5.707  0.00  0.00    -0.286 OA
ATOM      2  O   UNK A   1     -34.014  26.343   2.926  0.00  0.00    -0.283 OA
ATOM      3  C   UNK A   1     -35.128  21.644   1.589  0.00  0.00    +0.056 C 
ATOM      4  C   UNK A   1     -35.193  22.996   3.593  0.00  0.00    +0.076 C 
ATOM      5  C   UNK A   1     -34.691  24.084   2.875  0.00  0.00    +0.051 C 
ATOM      6  C   UNK A   1     -35.412  21.773   2.948  0.00  0.00    +0.136 C 
ATOM      7  C   UNK A   1     -34.628  22.728   0.871  0.00  0.00    +0.139 C 
ATOM      8  C   UNK A   1     -34.407  23.948   1.511  0.00  0.00    +0.040 C 
ATOM      9  C   UNK A   1     -35.495  23.125   5.031  0.00  0.00    +0.202 C 
ATOM     10  C   UNK A   1     -34.455  25.379   3.543  0.00  0.00    +0.230 C 
ATOM     11  C   UNK A   1     -34.771  25.478   4.989  0.00  0.00    +0.181 C 
ATOM     12  C   UNK A   1     -35.250  24.434   5.669  0.00  0.00    +0.082 C 
ENDROOT
BRANCH   7  13
ATOM     13  O   UNK A   1     -34.344  22.616  -0.457  0.00  0.00    -0.472 OA
ATOM     14  C   UNK A   1     -33.032  22.990  -0.873  0.00  0.00    +0.252 C 
ENDBRANCH   7  13
BRANCH   6  15
ATOM     15  O   UNK A   1     -35.901  20.685   3.611  0.00  0.00    -0.506 OA
ATOM     16  H   UNK A   1     -36.761  20.368   3.421  0.00  0.00    +0.292 HD
ENDBRANCH   6  15
BRANCH  11  17
ATOM     17  O   UNK A   1     -34.554  26.686   5.620  0.00  0.00    -0.468 OA
ATOM     18  C   UNK A   1     -33.347  26.659   6.356  0.00  0.00    +0.253 C 
ENDBRANCH  11  17
BRANCH   3  19
ATOM     19  C   UNK A   1     -35.361  20.339   0.894  0.00  0.00    +0.090 C 
BRANCH  19  20
ATOM     20  S   UNK A   1     -37.128  19.974   0.681  0.00  0.00    -0.133 S 
BRANCH  20  21
ATOM     21  C   UNK A   1     -37.619  21.520  -0.114  0.00  0.00    +0.089 C 
BRANCH  21  22
ATOM     22  C   UNK A   1     -38.829  22.194   0.540  0.00  0.00    +0.182 C 
BRANCH  22  24
ATOM     23  O   UNK A   0     -39.562  24.935   1.155  0.00  0.00    -0.275 OA
ATOM     24  N   UNK A   1     -38.455  22.961   1.702  0.00  0.00    -0.296 N 
ATOM     25  C   UNK A   0     -38.856  24.271   1.911  0.00  0.00    +0.223 C 
ATOM     26  C   UNK A   0     -38.348  24.826   3.214  0.00  0.00    +0.095 C 
ATOM     27  H   UNK A   1     -37.886  22.533   2.382  0.00  0.00    +0.150 HD
ENDBRANCH  22  24
BRANCH  22  29
ATOM     28  O   UNK A   1     -40.581  20.613  -0.016  0.00  0.00    -0.248 OA
ATOM     29  C   UNK A   1     -39.944  21.208   0.845  0.00  0.00    +0.333 C 
BRANCH  29  30
ATOM     30  O   UNK A   1     -40.180  21.060   2.171  0.00  0.00    -0.479 OA
ATOM     31  H   UNK A   1     -40.145  21.804   2.739  0.00  0.00    +0.295 HD
ENDBRANCH  29  30
ENDBRANCH  22  29
ENDBRANCH  21  22
ENDBRANCH  20  21
ENDBRANCH  19  20
ENDBRANCH   3  19
TORSDOF 10
ENDMDL
MODEL 7
REMARK VINA RESULT:      -5.9      2.900      7.572
REMARK  Name = 56296
REMARK  10 active torsions:
REMARK  status: ('A' for Active; 'I' for Inactive)
REMARK    1  A    between atoms: C_3  and  C_19
REMARK    2  A    between atoms: C_6  and  O_15
REMARK    3  A    between atoms: C_7  and  O_13
REMARK    4  A    between atoms: C_11  and  O_17
REMARK    5  A    between atoms: C_19  and  S_20
REMARK    6  A    between atoms: S_20  and  C_21
REMARK    7  A    between atoms: C_21  and  C_22
REMARK    8  A    between atoms: C_22  and  N_24
REMARK    9  A    between atoms: C_22  and  C_29
REMARK   10  A    between atoms: C_29  and  O_30
REMARK                            x       y       z     vdW  Elec       q    Type
REMARK                         _______ _______ _______ _____ _____    ______ ____
ROOT
ATOM      1  O   UNK A   1     -35.183  21.065   5.026  0.00  0.00    -0.286 OA
ATOM      2  O   UNK A   1     -36.750  25.935   3.481  0.00  0.00    -0.283 OA
ATOM      3  C   UNK A   1     -37.135  21.445   1.289  0.00  0.00    +0.056 C 
ATOM      4  C   UNK A   1     -36.245  22.363   3.343  0.00  0.00    +0.076 C 
ATOM      5  C   UNK A   1     -36.651  23.640   2.948  0.00  0.00    +0.051 C 
ATOM      6  C   UNK A   1     -36.488  21.264   2.511  0.00  0.00    +0.136 C 
ATOM      7  C   UNK A   1     -37.541  22.719   0.894  0.00  0.00    +0.139 C 
ATOM      8  C   UNK A   1     -37.300  23.817   1.720  0.00  0.00    +0.040 C 
ATOM      9  C   UNK A   1     -35.559  22.163   4.632  0.00  0.00    +0.202 C 
ATOM     10  C   UNK A   1     -36.401  24.809   3.814  0.00  0.00    +0.230 C 
ATOM     11  C   UNK A   1     -35.711  24.575   5.107  0.00  0.00    +0.181 C 
ATOM     12  C   UNK A   1     -35.326  23.352   5.478  0.00  0.00    +0.082 C 
ENDROOT
BRANCH   7  13
ATOM     13  O   UNK A   1     -38.173  22.912  -0.298  0.00  0.00    -0.472 OA
ATOM     14  C   UNK A   1     -37.988  24.176  -0.932  0.00  0.00    +0.252 C 
ENDBRANCH   7  13
BRANCH   6  15
ATOM     15  O   UNK A   1     -36.108  19.999   2.857  0.00  0.00    -0.506 OA
ATOM     16  H   UNK A   1     -35.202  19.801   2.987  0.00  0.00    +0.292 HD
ENDBRANCH   6  15
BRANCH  11  17
ATOM     17  O   UNK A   1     -35.475  25.662   5.924  0.00  0.00    -0.468 OA
ATOM     18  C   UNK A   1     -34.132  26.093   5.810  0.00  0.00    +0.253 C 
ENDBRANCH  11  17
BRANCH   3  19
ATOM     19  C   UNK A   1     -37.398  20.273   0.396  0.00  0.00    +0.090 C 
BRANCH  19  20
ATOM     20  S   UNK A   1     -36.106  20.060  -0.863  0.00  0.00    -0.133 S 
BRANCH  20  21
ATOM     21  C   UNK A   1     -36.106  18.254  -0.932  0.00  0.00    +0.089 C 
BRANCH  21  22
ATOM     22  C   UNK A   1     -35.011  17.603  -0.081  0.00  0.00    +0.182 C 
BRANCH  22  24
ATOM     23  O   UNK A   0     -33.588  19.107   1.956  0.00  0.00    -0.275 OA
ATOM     24  N   UNK A   1     -33.748  18.284  -0.217  0.00  0.00    -0.296 N 
ATOM     25  C   UNK A   0     -33.142  18.979   0.818  0.00  0.00    +0.223 C 
ATOM     26  C   UNK A   0     -31.819  19.572   0.414  0.00  0.00    +0.095 C 
ATOM     27  H   UNK A   1     -33.291  18.253  -1.089  0.00  0.00    +0.150 HD
ENDBRANCH  22  24
BRANCH  22  29
ATOM     28  O   UNK A   1     -34.046  15.622  -1.090  0.00  0.00    -0.248 OA
ATOM     29  C   UNK A   1     -34.885  16.112  -0.344  0.00  0.00    +0.333 C 
BRANCH  29  30
ATOM     30  O   UNK A   1     -35.805  15.372   0.319  0.00  0.00    -0.479 OA
ATOM     31  H   UNK A   1     -35.835  15.390   1.255  0.00  0.00    +0.295 HD
ENDBRANCH  29  30
ENDBRANCH  22  29
ENDBRANCH  21  22
ENDBRANCH  20  21
ENDBRANCH  19  20
ENDBRANCH   3  19
TORSDOF 10
ENDMDL
MODEL 8
REMARK VINA RESULT:      -5.9      4.790      7.222
REMARK  Name = 56296
REMARK  10 active torsions:
REMARK  status: ('A' for Active; 'I' for Inactive)
REMARK    1  A    between atoms: C_3  and  C_19
REMARK    2  A    between atoms: C_6  and  O_15
REMARK    3  A    between atoms: C_7  and  O_13
REMARK    4  A    between atoms: C_11  and  O_17
REMARK    5  A    between atoms: C_19  and  S_20
REMARK    6  A    between atoms: S_20  and  C_21
REMARK    7  A    between atoms: C_21  and  C_22
REMARK    8  A    between atoms: C_22  and  N_24
REMARK    9  A    between atoms: C_22  and  C_29
REMARK   10  A    between atoms: C_29  and  O_30
REMARK                            x       y       z     vdW  Elec       q    Type
REMARK                         _______ _______ _______ _____ _____    ______ ____
ROOT
ATOM      1  O   UNK A   1     -33.142  26.696   1.378  0.00  0.00    -0.286 OA
ATOM      2  O   UNK A   1     -33.630  26.676   6.701  0.00  0.00    -0.283 OA
ATOM      3  C   UNK A   1     -35.211  23.475   3.185  0.00  0.00    +0.056 C 
ATOM      4  C   UNK A   1     -33.986  25.558   3.287  0.00  0.00    +0.076 C 
ATOM      5  C   UNK A   1     -34.108  25.562   4.678  0.00  0.00    +0.051 C 
ATOM      6  C   UNK A   1     -34.539  24.512   2.539  0.00  0.00    +0.136 C 
ATOM      7  C   UNK A   1     -35.333  23.477   4.573  0.00  0.00    +0.139 C 
ATOM      8  C   UNK A   1     -34.784  24.518   5.322  0.00  0.00    +0.040 C 
ATOM      9  C   UNK A   1     -33.278  26.651   2.595  0.00  0.00    +0.202 C 
ATOM     10  C   UNK A   1     -33.530  26.659   5.479  0.00  0.00    +0.230 C 
ATOM     11  C   UNK A   1     -32.822  27.743   4.755  0.00  0.00    +0.181 C 
ATOM     12  C   UNK A   1     -32.709  27.732   3.425  0.00  0.00    +0.082 C 
ENDROOT
BRANCH   7  13
ATOM     13  O   UNK A   1     -35.988  22.471   5.219  0.00  0.00    -0.472 OA
ATOM     14  C   UNK A   1     -35.228  21.684   6.133  0.00  0.00    +0.252 C 
ENDBRANCH   7  13
BRANCH   6  15
ATOM     15  O   UNK A   1     -34.444  24.468   1.178  0.00  0.00    -0.506 OA
ATOM     16  H   UNK A   1     -34.310  23.649   0.743  0.00  0.00    +0.292 HD
ENDBRANCH   6  15
BRANCH  11  17
ATOM     17  O   UNK A   1     -32.277  28.772   5.497  0.00  0.00    -0.468 OA
ATOM     18  C   UNK A   1     -30.864  28.742   5.434  0.00  0.00    +0.253 C 
ENDBRANCH  11  17
BRANCH   3  19
ATOM     19  C   UNK A   1     -35.804  22.353   2.391  0.00  0.00    +0.090 C 
BRANCH  19  20
ATOM     20  S   UNK A   1     -37.620  22.373   2.415  0.00  0.00    -0.133 S 
BRANCH  20  21
ATOM     21  C   UNK A   1     -37.877  23.880   1.451  0.00  0.00    +0.089 C 
BRANCH  21  22
ATOM     22  C   UNK A   1     -38.629  24.977   2.210  0.00  0.00    +0.182 C 
BRANCH  22  24
ATOM     23  O   UNK A   0     -40.745  26.730   3.150  0.00  0.00    -0.275 OA
ATOM     24  N   UNK A   1     -39.745  25.486   1.453  0.00  0.00    -0.296 N 
ATOM     25  C   UNK A   0     -40.711  26.323   1.991  0.00  0.00    +0.223 C 
ATOM     26  C   UNK A   0     -41.749  26.726   0.978  0.00  0.00    +0.095 C 
ATOM     27  H   UNK A   1     -39.827  25.227   0.507  0.00  0.00    +0.150 HD
ENDBRANCH  22  24
BRANCH  22  29
ATOM     28  O   UNK A   1     -37.040  26.785   1.924  0.00  0.00    -0.248 OA
ATOM     29  C   UNK A   1     -37.707  26.090   2.680  0.00  0.00    +0.333 C 
BRANCH  29  30
ATOM     30  O   UNK A   1     -37.683  26.232   4.026  0.00  0.00    -0.479 OA
ATOM     31  H   UNK A   1     -38.397  26.647   4.468  0.00  0.00    +0.295 HD
ENDBRANCH  29  30
ENDBRANCH  22  29
ENDBRANCH  21  22
ENDBRANCH  20  21
ENDBRANCH  19  20
ENDBRANCH   3  19
TORSDOF 10
ENDMDL
MODEL 9
REMARK VINA RESULT:      -5.9      4.945      7.939
REMARK  Name = 56296
REMARK  10 active torsions:
REMARK  status: ('A' for Active; 'I' for Inactive)
REMARK    1  A    between atoms: C_3  and  C_19
REMARK    2  A    between atoms: C_6  and  O_15
REMARK    3  A    between atoms: C_7  and  O_13
REMARK    4  A    between atoms: C_11  and  O_17
REMARK    5  A    between atoms: C_19  and  S_20
REMARK    6  A    between atoms: S_20  and  C_21
REMARK    7  A    between atoms: C_21  and  C_22
REMARK    8  A    between atoms: C_22  and  N_24
REMARK    9  A    between atoms: C_22  and  C_29
REMARK   10  A    between atoms: C_29  and  O_30
REMARK                            x       y       z     vdW  Elec       q    Type
REMARK                         _______ _______ _______ _____ _____    ______ ____
ROOT
ATOM      1  O   UNK A   1     -35.957  25.113   5.932  0.00  0.00    -0.286 OA
ATOM      2  O   UNK A   1     -33.193  28.235   2.588  0.00  0.00    -0.283 OA
ATOM      3  C   UNK A   1     -37.832  26.356   2.346  0.00  0.00    +0.056 C 
ATOM      4  C   UNK A   1     -35.955  26.297   3.871  0.00  0.00    +0.076 C 
ATOM      5  C   UNK A   1     -35.226  27.113   3.004  0.00  0.00    +0.051 C 
ATOM      6  C   UNK A   1     -37.262  25.918   3.541  0.00  0.00    +0.136 C 
ATOM      7  C   UNK A   1     -37.105  27.170   1.480  0.00  0.00    +0.139 C 
ATOM      8  C   UNK A   1     -35.802  27.549   1.805  0.00  0.00    +0.040 C 
ATOM      9  C   UNK A   1     -35.360  25.829   5.136  0.00  0.00    +0.202 C 
ATOM     10  C   UNK A   1     -33.847  27.520   3.339  0.00  0.00    +0.230 C 
ATOM     11  C   UNK A   1     -33.276  27.035   4.620  0.00  0.00    +0.181 C 
ATOM     12  C   UNK A   1     -33.980  26.256   5.444  0.00  0.00    +0.082 C 
ENDROOT
BRANCH   7  13
ATOM     13  O   UNK A   1     -37.648  27.604   0.307  0.00  0.00    -0.472 OA
ATOM     14  C   UNK A   1     -37.504  28.989   0.001  0.00  0.00    +0.252 C 
ENDBRANCH   7  13
BRANCH   6  15
ATOM     15  O   UNK A   1     -38.011  25.122   4.358  0.00  0.00    -0.506 OA
ATOM     16  H   UNK A   1     -37.998  25.257   5.285  0.00  0.00    +0.292 HD
ENDBRANCH   6  15
BRANCH  11  17
ATOM     17  O   UNK A   1     -31.988  27.413   4.942  0.00  0.00    -0.468 OA
ATOM     18  C   UNK A   1     -31.979  28.242   6.088  0.00  0.00    +0.253 C 
ENDBRANCH  11  17
BRANCH   3  19
ATOM     19  C   UNK A   1     -39.229  25.954   1.988  0.00  0.00    +0.090 C 
BRANCH  19  20
ATOM     20  S   UNK A   1     -39.271  24.533   0.856  0.00  0.00    -0.133 S 
BRANCH  20  21
ATOM     21  C   UNK A   1     -39.642  23.246   2.068  0.00  0.00    +0.089 C 
BRANCH  21  22
ATOM     22  C   UNK A   1     -38.742  22.012   1.953  0.00  0.00    +0.182 C 
BRANCH  22  24
ATOM     23  O   UNK A   0     -36.713  22.533   3.965  0.00  0.00    -0.275 OA
ATOM     24  N   UNK A   1     -37.363  22.370   1.734  0.00  0.00    -0.296 N 
ATOM     25  C   UNK A   0     -36.463  22.601   2.763  0.00  0.00    +0.223 C 
ATOM     26  C   UNK A   0     -35.085  22.932   2.257  0.00  0.00    +0.095 C 
ATOM     27  H   UNK A   1     -37.043  22.455   0.807  0.00  0.00    +0.150 HD
ENDBRANCH  22  24
BRANCH  22  29
ATOM     28  O   UNK A   1     -38.508  20.336   0.217  0.00  0.00    -0.248 OA
ATOM     29  C   UNK A   1     -39.244  21.024   0.914  0.00  0.00    +0.333 C 
BRANCH  29  30
ATOM     30  O   UNK A   1     -40.594  20.988   0.819  0.00  0.00    -0.479 OA
ATOM     31  H   UNK A   1     -41.121  21.444   1.445  0.00  0.00    +0.295 HD
ENDBRANCH  29  30
ENDBRANCH  22  29
ENDBRANCH  21  22
ENDBRANCH  20  21
ENDBRANCH  19  20
ENDBRANCH   3  19
TORSDOF 10
ENDMDL
