MODEL 1
REMARK VINA RESULT:      -6.6      0.000      0.000
REMARK  Name = 5288217
REMARK  5 active torsions:
REMARK  status: ('A' for Active; 'I' for Inactive)
REMARK    1  A    between atoms: C_7  and  C_14
REMARK    2  A    between atoms: C_8  and  O_24
REMARK    3  A    between atoms: C_11  and  O_26
REMARK    4  A    between atoms: C_15  and  O_20
REMARK    5  A    between atoms: C_19  and  O_22
REMARK                            x       y       z     vdW  Elec       q    Type
REMARK                         _______ _______ _______ _____ _____    ______ ____
ROOT
ATOM      1  O   UNL     1     -33.724  26.847   4.024  0.00  0.00    -0.450 OA
ATOM      2  O   UNL     1     -32.807  26.879   7.444  0.00  0.00    -0.283 OA
ATOM      3  C   UNL     1     -32.306  28.042   5.403  0.00  0.00    +0.110 C 
ATOM      4  C   UNL     1     -32.799  27.863   4.111  0.00  0.00    +0.155 C 
ATOM      5  C   UNL     1     -33.844  26.336   5.311  0.00  0.00    +0.184 C 
ATOM      6  C   UNL     1     -32.959  27.057   6.257  0.00  0.00    +0.236 C 
ATOM      7  C   UNL     1     -34.649  25.329   5.654  0.00  0.00    +0.044 C 
ATOM      8  C   UNL     1     -31.371  29.006   5.711  0.00  0.00    +0.143 C 
ATOM      9  C   UNL     1     -32.370  28.653   3.067  0.00  0.00    +0.074 C 
ATOM     10  C   UNL     1     -30.925  29.814   4.662  0.00  0.00    +0.073 C 
ATOM     11  C   UNL     1     -31.421  29.640   3.353  0.00  0.00    +0.140 C 
ENDROOT
BRANCH   7  14
ATOM     12 BR   UNL     1     -39.240  25.147   2.919  0.00  0.00    -0.043 Br
ATOM     13 BR   UNL     1     -35.392  20.901   2.861  0.00  0.00    -0.046 Br
ATOM     14  C   UNL     1     -35.542  24.588   4.744  0.00  0.00    +0.038 C 
ATOM     15  C   UNL     1     -36.751  25.135   4.342  0.00  0.00    +0.143 C 
ATOM     16  C   UNL     1     -35.139  23.336   4.307  0.00  0.00    +0.013 C 
ATOM     17  C   UNL     1     -37.576  24.411   3.481  0.00  0.00    +0.102 C 
ATOM     18  C   UNL     1     -35.964  22.613   3.446  0.00  0.00    +0.069 C 
ATOM     19  C   UNL     1     -37.183  23.151   3.033  0.00  0.00    +0.149 C 
BRANCH  15  20
ATOM     20  O   UNL     1     -37.128  26.370   4.787  0.00  0.00    -0.505 OA
ATOM     21  H   UNL     1     -37.661  26.921   4.247  0.00  0.00    +0.292 HD
ENDBRANCH  15  20
BRANCH  19  22
ATOM     22  O   UNL     1     -37.989  22.438   2.190  0.00  0.00    -0.504 OA
ATOM     23  H   UNL     1     -38.731  21.978   2.531  0.00  0.00    +0.292 HD
ENDBRANCH  19  22
ENDBRANCH   7  14
BRANCH   8  24
ATOM     24  O   UNL     1     -30.895  29.176   6.968  0.00  0.00    -0.505 OA
ATOM     25  H   UNL     1     -30.614  28.434   7.466  0.00  0.00    +0.292 HD
ENDBRANCH   8  24
BRANCH  11  26
ATOM     26  O   UNL     1     -30.966  30.446   2.352  0.00  0.00    -0.505 OA
ATOM     27  H   UNL     1     -30.072  30.726   2.346  0.00  0.00    +0.292 HD
ENDBRANCH  11  26
TORSDOF 5
ENDMDL
MODEL 2
REMARK VINA RESULT:      -6.3      1.530      1.858
REMARK  Name = 5288217
REMARK  5 active torsions:
REMARK  status: ('A' for Active; 'I' for Inactive)
REMARK    1  A    between atoms: C_7  and  C_14
REMARK    2  A    between atoms: C_8  and  O_24
REMARK    3  A    between atoms: C_11  and  O_26
REMARK    4  A    between atoms: C_15  and  O_20
REMARK    5  A    between atoms: C_19  and  O_22
REMARK                            x       y       z     vdW  Elec       q    Type
REMARK                         _______ _______ _______ _____ _____    ______ ____
ROOT
ATOM      1  O   UNL     1     -32.490  27.189   3.884  0.00  0.00    -0.450 OA
ATOM      2  O   UNL     1     -31.833  28.768   6.984  0.00  0.00    -0.283 OA
ATOM      3  C   UNL     1     -31.032  28.774   4.720  0.00  0.00    +0.110 C 
ATOM      4  C   UNL     1     -31.447  28.044   3.608  0.00  0.00    +0.155 C 
ATOM      5  C   UNL     1     -32.773  27.363   5.233  0.00  0.00    +0.184 C 
ATOM      6  C   UNL     1     -31.872  28.372   5.841  0.00  0.00    +0.236 C 
ATOM      7  C   UNL     1     -33.729  26.712   5.897  0.00  0.00    +0.044 C 
ATOM      8  C   UNL     1     -30.001  29.687   4.663  0.00  0.00    +0.143 C 
ATOM      9  C   UNL     1     -30.840  28.203   2.381  0.00  0.00    +0.074 C 
ATOM     10  C   UNL     1     -29.375  29.859   3.426  0.00  0.00    +0.073 C 
ATOM     11  C   UNL     1     -29.791  29.125   2.296  0.00  0.00    +0.140 C 
ENDROOT
BRANCH   7  14
ATOM     12 BR   UNL     1     -37.819  25.587   2.643  0.00  0.00    -0.043 Br
ATOM     13 BR   UNL     1     -35.129  21.614   5.776  0.00  0.00    -0.046 Br
ATOM     14  C   UNL     1     -34.642  25.704   5.328  0.00  0.00    +0.038 C 
ATOM     15  C   UNL     1     -35.620  26.072   4.417  0.00  0.00    +0.143 C 
ATOM     16  C   UNL     1     -34.496  24.386   5.731  0.00  0.00    +0.013 C 
ATOM     17  C   UNL     1     -36.471  25.098   3.895  0.00  0.00    +0.102 C 
ATOM     18  C   UNL     1     -35.347  23.411   5.210  0.00  0.00    +0.069 C 
ATOM     19  C   UNL     1     -36.335  23.768   4.292  0.00  0.00    +0.149 C 
BRANCH  15  20
ATOM     20  O   UNL     1     -35.746  27.378   4.036  0.00  0.00    -0.505 OA
ATOM     21  H   UNL     1     -35.118  27.760   3.454  0.00  0.00    +0.292 HD
ENDBRANCH  15  20
BRANCH  19  22
ATOM     22  O   UNL     1     -37.167  22.811   3.784  0.00  0.00    -0.504 OA
ATOM     23  H   UNL     1     -37.112  21.929   4.097  0.00  0.00    +0.292 HD
ENDBRANCH  19  22
ENDBRANCH   7  14
BRANCH   8  24
ATOM     24  O   UNL     1     -29.601  30.395   5.747  0.00  0.00    -0.505 OA
ATOM     25  H   UNL     1     -29.046  29.996   6.388  0.00  0.00    +0.292 HD
ENDBRANCH   8  24
BRANCH  11  26
ATOM     26  O   UNL     1     -29.160  29.317   1.103  0.00  0.00    -0.505 OA
ATOM     27  H   UNL     1     -29.491  29.946   0.493  0.00  0.00    +0.292 HD
ENDBRANCH  11  26
TORSDOF 5
ENDMDL
MODEL 3
REMARK VINA RESULT:      -6.2      3.684      5.562
REMARK  Name = 5288217
REMARK  5 active torsions:
REMARK  status: ('A' for Active; 'I' for Inactive)
REMARK    1  A    between atoms: C_7  and  C_14
REMARK    2  A    between atoms: C_8  and  O_24
REMARK    3  A    between atoms: C_11  and  O_26
REMARK    4  A    between atoms: C_15  and  O_20
REMARK    5  A    between atoms: C_19  and  O_22
REMARK                            x       y       z     vdW  Elec       q    Type
REMARK                         _______ _______ _______ _____ _____    ______ ____
ROOT
ATOM      1  O   UNL     1     -35.051  23.126   2.054  0.00  0.00    -0.450 OA
ATOM      2  O   UNL     1     -36.366  22.970   5.338  0.00  0.00    -0.283 OA
ATOM      3  C   UNL     1     -35.567  24.596   3.761  0.00  0.00    +0.110 C 
ATOM      4  C   UNL     1     -35.071  24.439   2.467  0.00  0.00    +0.155 C 
ATOM      5  C   UNL     1     -35.553  22.388   3.120  0.00  0.00    +0.184 C 
ATOM      6  C   UNL     1     -35.908  23.269   4.258  0.00  0.00    +0.236 C 
ATOM      7  C   UNL     1     -35.699  21.062   3.121  0.00  0.00    +0.044 C 
ATOM      8  C   UNL     1     -35.673  25.828   4.368  0.00  0.00    +0.143 C 
ATOM      9  C   UNL     1     -34.660  25.524   1.723  0.00  0.00    +0.074 C 
ATOM     10  C   UNL     1     -35.259  26.938   3.626  0.00  0.00    +0.073 C 
ATOM     11  C   UNL     1     -34.758  26.786   2.316  0.00  0.00    +0.140 C 
ENDROOT
BRANCH   7  14
ATOM     12 BR   UNL     1     -37.290  18.346  -1.201  0.00  0.00    -0.043 Br
ATOM     13 BR   UNL     1     -31.901  18.254   0.743  0.00  0.00    -0.046 Br
ATOM     14  C   UNL     1     -35.357  20.154   2.010  0.00  0.00    +0.038 C 
ATOM     15  C   UNL     1     -36.325  19.759   1.099  0.00  0.00    +0.143 C 
ATOM     16  C   UNL     1     -34.049  19.710   1.906  0.00  0.00    +0.013 C 
ATOM     17  C   UNL     1     -35.974  18.899   0.058  0.00  0.00    +0.102 C 
ATOM     18  C   UNL     1     -33.698  18.850   0.865  0.00  0.00    +0.069 C 
ATOM     19  C   UNL     1     -34.661  18.444  -0.058  0.00  0.00    +0.149 C 
BRANCH  15  20
ATOM     20  O   UNL     1     -37.609  20.208   1.223  0.00  0.00    -0.505 OA
ATOM     21  H   UNL     1     -37.890  20.963   0.742  0.00  0.00    +0.292 HD
ENDBRANCH  15  20
BRANCH  19  22
ATOM     22  O   UNL     1     -34.314  17.601  -1.076  0.00  0.00    -0.504 OA
ATOM     23  H   UNL     1     -34.928  17.414  -1.759  0.00  0.00    +0.292 HD
ENDBRANCH  19  22
ENDBRANCH   7  14
BRANCH   8  24
ATOM     24  O   UNL     1     -36.155  25.976   5.625  0.00  0.00    -0.505 OA
ATOM     25  H   UNL     1     -35.859  25.409   6.310  0.00  0.00    +0.292 HD
ENDBRANCH   8  24
BRANCH  11  26
ATOM     26  O   UNL     1     -34.363  27.889   1.620  0.00  0.00    -0.505 OA
ATOM     27  H   UNL     1     -35.003  28.482   1.277  0.00  0.00    +0.292 HD
ENDBRANCH  11  26
TORSDOF 5
ENDMDL
MODEL 4
REMARK VINA RESULT:      -6.1      5.006      9.251
REMARK  Name = 5288217
REMARK  5 active torsions:
REMARK  status: ('A' for Active; 'I' for Inactive)
REMARK    1  A    between atoms: C_7  and  C_14
REMARK    2  A    between atoms: C_8  and  O_24
REMARK    3  A    between atoms: C_11  and  O_26
REMARK    4  A    between atoms: C_15  and  O_20
REMARK    5  A    between atoms: C_19  and  O_22
REMARK                            x       y       z     vdW  Elec       q    Type
REMARK                         _______ _______ _______ _____ _____    ______ ____
ROOT
ATOM      1  O   UNL     1     -34.006  19.885   1.395  0.00  0.00    -0.450 OA
ATOM      2  O   UNL     1     -36.312  19.783  -1.290  0.00  0.00    -0.283 OA
ATOM      3  C   UNL     1     -34.475  18.514  -0.404  0.00  0.00    +0.110 C 
ATOM      4  C   UNL     1     -33.668  18.740   0.710  0.00  0.00    +0.155 C 
ATOM      5  C   UNL     1     -35.078  20.436   0.703  0.00  0.00    +0.184 C 
ATOM      6  C   UNL     1     -35.438  19.606  -0.471  0.00  0.00    +0.236 C 
ATOM      7  C   UNL     1     -35.704  21.562   1.048  0.00  0.00    +0.044 C 
ATOM      8  C   UNL     1     -34.308  17.423  -1.230  0.00  0.00    +0.143 C 
ATOM      9  C   UNL     1     -32.652  17.871   1.045  0.00  0.00    +0.074 C 
ATOM     10  C   UNL     1     -33.281  16.533  -0.903  0.00  0.00    +0.073 C 
ATOM     11  C   UNL     1     -32.462  16.755   0.224  0.00  0.00    +0.140 C 
ENDROOT
BRANCH   7  14
ATOM     12 BR   UNL     1     -35.394  22.117   6.357  0.00  0.00    -0.043 Br
ATOM     13 BR   UNL     1     -33.986  26.287   2.688  0.00  0.00    -0.046 Br
ATOM     14  C   UNL     1     -35.375  22.414   2.206  0.00  0.00    +0.038 C 
ATOM     15  C   UNL     1     -35.519  21.933   3.499  0.00  0.00    +0.143 C 
ATOM     16  C   UNL     1     -34.921  23.701   1.965  0.00  0.00    +0.013 C 
ATOM     17  C   UNL     1     -35.202  22.761   4.576  0.00  0.00    +0.102 C 
ATOM     18  C   UNL     1     -34.604  24.529   3.042  0.00  0.00    +0.069 C 
ATOM     19  C   UNL     1     -34.744  24.058   4.347  0.00  0.00    +0.149 C 
BRANCH  15  20
ATOM     20  O   UNL     1     -35.970  20.662   3.712  0.00  0.00    -0.505 OA
ATOM     21  H   UNL     1     -35.903  20.277   4.565  0.00  0.00    +0.292 HD
ENDBRANCH  15  20
BRANCH  19  22
ATOM     22  O   UNL     1     -34.432  24.872   5.400  0.00  0.00    -0.504 OA
ATOM     23  H   UNL     1     -33.545  25.142   5.535  0.00  0.00    +0.292 HD
ENDBRANCH  19  22
ENDBRANCH   7  14
BRANCH   8  24
ATOM     24  O   UNL     1     -35.094  17.207  -2.311  0.00  0.00    -0.505 OA
ATOM     25  H   UNL     1     -34.794  17.452  -3.164  0.00  0.00    +0.292 HD
ENDBRANCH   8  24
BRANCH  11  26
ATOM     26  O   UNL     1     -31.469  15.867   0.515  0.00  0.00    -0.505 OA
ATOM     27  H   UNL     1     -31.684  15.003   0.806  0.00  0.00    +0.292 HD
ENDBRANCH  11  26
TORSDOF 5
ENDMDL
MODEL 5
REMARK VINA RESULT:      -5.9      4.027      6.743
REMARK  Name = 5288217
REMARK  5 active torsions:
REMARK  status: ('A' for Active; 'I' for Inactive)
REMARK    1  A    between atoms: C_7  and  C_14
REMARK    2  A    between atoms: C_8  and  O_24
REMARK    3  A    between atoms: C_11  and  O_26
REMARK    4  A    between atoms: C_15  and  O_20
REMARK    5  A    between atoms: C_19  and  O_22
REMARK                            x       y       z     vdW  Elec       q    Type
REMARK                         _______ _______ _______ _____ _____    ______ ____
ROOT
ATOM      1  O   UNL     1     -34.197  23.337   2.749  0.00  0.00    -0.450 OA
ATOM      2  O   UNL     1     -37.674  23.139   2.111  0.00  0.00    -0.283 OA
ATOM      3  C   UNL     1     -36.142  24.278   3.569  0.00  0.00    +0.110 C 
ATOM      4  C   UNL     1     -34.752  24.208   3.659  0.00  0.00    +0.155 C 
ATOM      5  C   UNL     1     -35.265  22.811   2.031  0.00  0.00    +0.184 C 
ATOM      6  C   UNL     1     -36.553  23.372   2.504  0.00  0.00    +0.236 C 
ATOM      7  C   UNL     1     -35.148  21.920   1.046  0.00  0.00    +0.044 C 
ATOM      8  C   UNL     1     -36.897  25.090   4.388  0.00  0.00    +0.143 C 
ATOM      9  C   UNL     1     -34.058  24.960   4.582  0.00  0.00    +0.074 C 
ATOM     10  C   UNL     1     -36.206  25.856   5.330  0.00  0.00    +0.073 C 
ATOM     11  C   UNL     1     -34.801  25.792   5.425  0.00  0.00    +0.140 C 
ENDROOT
BRANCH   7  14
ATOM     12 BR   UNL     1     -31.782  17.768   0.909  0.00  0.00    -0.043 Br
ATOM     13 BR   UNL     1     -30.821  22.668  -1.900  0.00  0.00    -0.046 Br
ATOM     14  C   UNL     1     -33.887  21.340   0.549  0.00  0.00    +0.038 C 
ATOM     15  C   UNL     1     -33.512  20.054   0.909  0.00  0.00    +0.143 C 
ATOM     16  C   UNL     1     -33.092  22.114  -0.282  0.00  0.00    +0.013 C 
ATOM     17  C   UNL     1     -32.313  19.531   0.425  0.00  0.00    +0.102 C 
ATOM     18  C   UNL     1     -31.893  21.590  -0.765  0.00  0.00    +0.069 C 
ATOM     19  C   UNL     1     -31.504  20.299  -0.411  0.00  0.00    +0.149 C 
BRANCH  15  20
ATOM     20  O   UNL     1     -34.310  19.311   1.730  0.00  0.00    -0.505 OA
ATOM     21  H   UNL     1     -34.656  19.688   2.516  0.00  0.00    +0.292 HD
ENDBRANCH  15  20
BRANCH  19  22
ATOM     22  O   UNL     1     -30.328  19.790  -0.887  0.00  0.00    -0.504 OA
ATOM     23  H   UNL     1     -30.287  18.899  -1.177  0.00  0.00    +0.292 HD
ENDBRANCH  19  22
ENDBRANCH   7  14
BRANCH   8  24
ATOM     24  O   UNL     1     -38.247  25.154   4.296  0.00  0.00    -0.505 OA
ATOM     25  H   UNL     1     -38.731  25.692   4.891  0.00  0.00    +0.292 HD
ENDBRANCH   8  24
BRANCH  11  26
ATOM     26  O   UNL     1     -34.158  26.555   6.355  0.00  0.00    -0.505 OA
ATOM     27  H   UNL     1     -34.111  26.267   7.245  0.00  0.00    +0.292 HD
ENDBRANCH  11  26
TORSDOF 5
ENDMDL
MODEL 6
REMARK VINA RESULT:      -5.9      2.197      3.408
REMARK  Name = 5288217
REMARK  5 active torsions:
REMARK  status: ('A' for Active; 'I' for Inactive)
REMARK    1  A    between atoms: C_7  and  C_14
REMARK    2  A    between atoms: C_8  and  O_24
REMARK    3  A    between atoms: C_11  and  O_26
REMARK    4  A    between atoms: C_15  and  O_20
REMARK    5  A    between atoms: C_19  and  O_22
REMARK                            x       y       z     vdW  Elec       q    Type
REMARK                         _______ _______ _______ _____ _____    ______ ____
ROOT
ATOM      1  O   UNL     1     -33.337  26.564   4.568  0.00  0.00    -0.450 OA
ATOM      2  O   UNL     1     -33.855  28.879   1.940  0.00  0.00    -0.283 OA
ATOM      3  C   UNL     1     -32.844  28.776   4.116  0.00  0.00    +0.110 C 
ATOM      4  C   UNL     1     -32.748  27.722   5.024  0.00  0.00    +0.155 C 
ATOM      5  C   UNL     1     -33.842  26.868   3.310  0.00  0.00    +0.184 C 
ATOM      6  C   UNL     1     -33.562  28.278   2.949  0.00  0.00    +0.236 C 
ATOM      7  C   UNL     1     -34.492  26.006   2.526  0.00  0.00    +0.044 C 
ATOM      8  C   UNL     1     -32.321  30.024   4.373  0.00  0.00    +0.143 C 
ATOM      9  C   UNL     1     -32.114  27.880   6.237  0.00  0.00    +0.074 C 
ATOM     10  C   UNL     1     -31.677  30.200   5.601  0.00  0.00    +0.073 C 
ATOM     11  C   UNL     1     -31.574  29.138   6.523  0.00  0.00    +0.140 C 
ENDROOT
BRANCH   7  14
ATOM     12 BR   UNL     1     -35.412  21.029   0.803  0.00  0.00    -0.043 Br
ATOM     13 BR   UNL     1     -35.384  22.464   6.350  0.00  0.00    -0.046 Br
ATOM     14  C   UNL     1     -34.789  24.599   2.850  0.00  0.00    +0.038 C 
ATOM     15  C   UNL     1     -34.932  23.658   1.841  0.00  0.00    +0.143 C 
ATOM     16  C   UNL     1     -34.923  24.247   4.184  0.00  0.00    +0.013 C 
ATOM     17  C   UNL     1     -35.213  22.333   2.176  0.00  0.00    +0.102 C 
ATOM     18  C   UNL     1     -35.204  22.923   4.518  0.00  0.00    +0.069 C 
ATOM     19  C   UNL     1     -35.350  21.966   3.514  0.00  0.00    +0.149 C 
BRANCH  15  20
ATOM     20  O   UNL     1     -34.797  24.028   0.533  0.00  0.00    -0.505 OA
ATOM     21  H   UNL     1     -34.546  24.905   0.317  0.00  0.00    +0.292 HD
ENDBRANCH  15  20
BRANCH  19  22
ATOM     22  O   UNL     1     -35.627  20.669   3.845  0.00  0.00    -0.504 OA
ATOM     23  H   UNL     1     -35.020  19.990   3.624  0.00  0.00    +0.292 HD
ENDBRANCH  19  22
ENDBRANCH   7  14
BRANCH   8  24
ATOM     24  O   UNL     1     -32.417  31.045   3.488  0.00  0.00    -0.505 OA
ATOM     25  H   UNL     1     -33.035  31.734   3.634  0.00  0.00    +0.292 HD
ENDBRANCH   8  24
BRANCH  11  26
ATOM     26  O   UNL     1     -30.938  29.343   7.711  0.00  0.00    -0.505 OA
ATOM     27  H   UNL     1     -30.022  29.538   7.725  0.00  0.00    +0.292 HD
ENDBRANCH  11  26
TORSDOF 5
ENDMDL
MODEL 7
REMARK VINA RESULT:      -5.9      4.798      6.331
REMARK  Name = 5288217
REMARK  5 active torsions:
REMARK  status: ('A' for Active; 'I' for Inactive)
REMARK    1  A    between atoms: C_7  and  C_14
REMARK    2  A    between atoms: C_8  and  O_24
REMARK    3  A    between atoms: C_11  and  O_26
REMARK    4  A    between atoms: C_15  and  O_20
REMARK    5  A    between atoms: C_19  and  O_22
REMARK                            x       y       z     vdW  Elec       q    Type
REMARK                         _______ _______ _______ _____ _____    ______ ____
ROOT
ATOM      1  O   UNL     1     -35.981  22.907   1.333  0.00  0.00    -0.450 OA
ATOM      2  O   UNL     1     -36.434  23.136   4.837  0.00  0.00    -0.283 OA
ATOM      3  C   UNL     1     -36.563  24.522   2.880  0.00  0.00    +0.110 C 
ATOM      4  C   UNL     1     -36.335  24.221   1.538  0.00  0.00    +0.155 C 
ATOM      5  C   UNL     1     -35.976  22.318   2.592  0.00  0.00    +0.184 C 
ATOM      6  C   UNL     1     -36.342  23.299   3.641  0.00  0.00    +0.236 C 
ATOM      7  C   UNL     1     -35.681  21.039   2.828  0.00  0.00    +0.044 C 
ATOM      8  C   UNL     1     -36.928  25.781   3.305  0.00  0.00    +0.143 C 
ATOM      9  C   UNL     1     -36.467  25.182   0.558  0.00  0.00    +0.074 C 
ATOM     10  C   UNL     1     -37.064  26.766   2.323  0.00  0.00    +0.073 C 
ATOM     11  C   UNL     1     -36.837  26.468   0.963  0.00  0.00    +0.140 C 
ENDROOT
BRANCH   7  14
ATOM     12 BR   UNL     1     -37.158  17.971  -1.295  0.00  0.00    -0.043 Br
ATOM     13 BR   UNL     1     -31.838  18.002   0.835  0.00  0.00    -0.046 Br
ATOM     14  C   UNL     1     -35.313  20.035   1.813  0.00  0.00    +0.038 C 
ATOM     15  C   UNL     1     -36.254  19.570   0.907  0.00  0.00    +0.143 C 
ATOM     16  C   UNL     1     -34.007  19.572   1.793  0.00  0.00    +0.013 C 
ATOM     17  C   UNL     1     -35.879  18.620  -0.043  0.00  0.00    +0.102 C 
ATOM     18  C   UNL     1     -33.631  18.622   0.843  0.00  0.00    +0.069 C 
ATOM     19  C   UNL     1     -34.568  18.145  -0.075  0.00  0.00    +0.149 C 
BRANCH  15  20
ATOM     20  O   UNL     1     -37.536  20.039   0.947  0.00  0.00    -0.505 OA
ATOM     21  H   UNL     1     -38.238  19.518   0.606  0.00  0.00    +0.292 HD
ENDBRANCH  15  20
BRANCH  19  22
ATOM     22  O   UNL     1     -34.196  17.214  -1.003  0.00  0.00    -0.504 OA
ATOM     23  H   UNL     1     -34.828  16.881  -1.610  0.00  0.00    +0.292 HD
ENDBRANCH  19  22
ENDBRANCH   7  14
BRANCH   8  24
ATOM     24  O   UNL     1     -37.148  26.068   4.610  0.00  0.00    -0.505 OA
ATOM     25  H   UNL     1     -38.008  25.974   4.971  0.00  0.00    +0.292 HD
ENDBRANCH   8  24
BRANCH  11  26
ATOM     26  O   UNL     1     -36.980  27.452   0.030  0.00  0.00    -0.505 OA
ATOM     27  H   UNL     1     -36.331  28.123  -0.047  0.00  0.00    +0.292 HD
ENDBRANCH  11  26
TORSDOF 5
ENDMDL
MODEL 8
REMARK VINA RESULT:      -5.9      5.122      8.000
REMARK  Name = 5288217
REMARK  5 active torsions:
REMARK  status: ('A' for Active; 'I' for Inactive)
REMARK    1  A    between atoms: C_7  and  C_14
REMARK    2  A    between atoms: C_8  and  O_24
REMARK    3  A    between atoms: C_11  and  O_26
REMARK    4  A    between atoms: C_15  and  O_20
REMARK    5  A    between atoms: C_19  and  O_22
REMARK                            x       y       z     vdW  Elec       q    Type
REMARK                         _______ _______ _______ _____ _____    ______ ____
ROOT
ATOM      1  O   UNL     1     -35.609  20.261   2.488  0.00  0.00    -0.450 OA
ATOM      2  O   UNL     1     -36.005  23.139   0.464  0.00  0.00    -0.283 OA
ATOM      3  C   UNL     1     -35.680  22.553   2.770  0.00  0.00    +0.110 C 
ATOM      4  C   UNL     1     -35.544  21.307   3.380  0.00  0.00    +0.155 C 
ATOM      5  C   UNL     1     -35.797  20.842   1.239  0.00  0.00    +0.184 C 
ATOM      6  C   UNL     1     -35.852  22.320   1.342  0.00  0.00    +0.236 C 
ATOM      7  C   UNL     1     -35.910  20.163   0.097  0.00  0.00    +0.044 C 
ATOM      8  C   UNL     1     -35.645  23.733   3.481  0.00  0.00    +0.143 C 
ATOM      9  C   UNL     1     -35.363  21.194   4.742  0.00  0.00    +0.074 C 
ATOM     10  C   UNL     1     -35.463  23.634   4.863  0.00  0.00    +0.073 C 
ATOM     11  C   UNL     1     -35.323  22.377   5.487  0.00  0.00    +0.140 C 
ENDROOT
BRANCH   7  14
ATOM     12 BR   UNL     1     -38.548  15.543  -0.442  0.00  0.00    -0.043 Br
ATOM     13 BR   UNL     1     -32.832  15.874  -0.213  0.00  0.00    -0.046 Br
ATOM     14  C   UNL     1     -35.860  18.695  -0.044  0.00  0.00    +0.038 C 
ATOM     15  C   UNL     1     -37.029  17.958  -0.156  0.00  0.00    +0.143 C 
ATOM     16  C   UNL     1     -34.619  18.081  -0.061  0.00  0.00    +0.013 C 
ATOM     17  C   UNL     1     -36.953  16.571  -0.288  0.00  0.00    +0.102 C 
ATOM     18  C   UNL     1     -34.542  16.694  -0.193  0.00  0.00    +0.069 C 
ATOM     19  C   UNL     1     -35.710  15.939  -0.306  0.00  0.00    +0.149 C 
BRANCH  15  20
ATOM     20  O   UNL     1     -38.242  18.585  -0.135  0.00  0.00    -0.505 OA
ATOM     21  H   UNL     1     -39.017  18.116  -0.376  0.00  0.00    +0.292 HD
ENDBRANCH  15  20
BRANCH  19  22
ATOM     22  O   UNL     1     -35.631  14.581  -0.435  0.00  0.00    -0.504 OA
ATOM     23  H   UNL     1     -35.403  14.203  -1.261  0.00  0.00    +0.292 HD
ENDBRANCH  19  22
ENDBRANCH   7  14
BRANCH   8  24
ATOM     24  O   UNL     1     -35.777  24.942   2.884  0.00  0.00    -0.505 OA
ATOM     25  H   UNL     1     -35.374  25.100   2.053  0.00  0.00    +0.292 HD
ENDBRANCH   8  24
BRANCH  11  26
ATOM     26  O   UNL     1     -35.146  22.316   6.837  0.00  0.00    -0.505 OA
ATOM     27  H   UNL     1     -35.478  21.587   7.321  0.00  0.00    +0.292 HD
ENDBRANCH  11  26
TORSDOF 5
ENDMDL
MODEL 9
REMARK VINA RESULT:      -5.8      2.137      3.039
REMARK  Name = 5288217
REMARK  5 active torsions:
REMARK  status: ('A' for Active; 'I' for Inactive)
REMARK    1  A    between atoms: C_7  and  C_14
REMARK    2  A    between atoms: C_8  and  O_24
REMARK    3  A    between atoms: C_11  and  O_26
REMARK    4  A    between atoms: C_15  and  O_20
REMARK    5  A    between atoms: C_19  and  O_22
REMARK                            x       y       z     vdW  Elec       q    Type
REMARK                         _______ _______ _______ _____ _____    ______ ____
ROOT
ATOM      1  O   UNL     1     -33.216  26.599   4.576  0.00  0.00    -0.450 OA
ATOM      2  O   UNL     1     -34.539  29.103   2.452  0.00  0.00    -0.283 OA
ATOM      3  C   UNL     1     -32.954  28.869   4.241  0.00  0.00    +0.110 C 
ATOM      4  C   UNL     1     -32.567  27.746   4.970  0.00  0.00    +0.155 C 
ATOM      5  C   UNL     1     -34.066  26.982   3.545  0.00  0.00    +0.184 C 
ATOM      6  C   UNL     1     -33.952  28.434   3.272  0.00  0.00    +0.236 C 
ATOM      7  C   UNL     1     -34.878  26.154   2.885  0.00  0.00    +0.044 C 
ATOM      8  C   UNL     1     -32.427  30.121   4.474  0.00  0.00    +0.143 C 
ATOM      9  C   UNL     1     -31.624  27.835   5.972  0.00  0.00    +0.074 C 
ATOM     10  C   UNL     1     -31.470  30.227   5.487  0.00  0.00    +0.073 C 
ATOM     11  C   UNL     1     -31.073  29.094   6.228  0.00  0.00    +0.140 C 
ENDROOT
BRANCH   7  14
ATOM     12 BR   UNL     1     -35.598  22.165   6.373  0.00  0.00    -0.043 Br
ATOM     13 BR   UNL     1     -34.995  21.323   0.737  0.00  0.00    -0.046 Br
ATOM     14  C   UNL     1     -35.019  24.706   3.128  0.00  0.00    +0.038 C 
ATOM     15  C   UNL     1     -35.208  24.222   4.413  0.00  0.00    +0.143 C 
ATOM     16  C   UNL     1     -34.956  23.850   2.040  0.00  0.00    +0.013 C 
ATOM     17  C   UNL     1     -35.338  22.847   4.614  0.00  0.00    +0.102 C 
ATOM     18  C   UNL     1     -35.086  22.476   2.241  0.00  0.00    +0.069 C 
ATOM     19  C   UNL     1     -35.277  21.975   3.529  0.00  0.00    +0.149 C 
BRANCH  15  20
ATOM     20  O   UNL     1     -35.265  25.084   5.471  0.00  0.00    -0.505 OA
ATOM     21  H   UNL     1     -35.932  24.984   6.123  0.00  0.00    +0.292 HD
ENDBRANCH  15  20
BRANCH  19  22
ATOM     22  O   UNL     1     -35.403  20.628   3.721  0.00  0.00    -0.504 OA
ATOM     23  H   UNL     1     -36.254  20.248   3.821  0.00  0.00    +0.292 HD
ENDBRANCH  19  22
ENDBRANCH   7  14
BRANCH   8  24
ATOM     24  O   UNL     1     -32.806  31.210   3.762  0.00  0.00    -0.505 OA
ATOM     25  H   UNL     1     -32.295  31.994   3.799  0.00  0.00    +0.292 HD
ENDBRANCH   8  24
BRANCH  11  26
ATOM     26  O   UNL     1     -30.136  29.231   7.209  0.00  0.00    -0.505 OA
ATOM     27  H   UNL     1     -29.968  28.524   7.799  0.00  0.00    +0.292 HD
ENDBRANCH  11  26
TORSDOF 5
ENDMDL
