MODEL 1
REMARK VINA RESULT:      -6.9      0.000      0.000
REMARK  Name = 5281990
REMARK  11 active torsions:
REMARK  status: ('A' for Active; 'I' for Inactive)
REMARK    1  A    between atoms: C_1  and  C_2
REMARK    2  A    between atoms: C_1  and  C_18
REMARK    3  A    between atoms: C_4  and  C_5
REMARK    4  A    between atoms: C_5  and  O_6
REMARK    5  A    between atoms: O_6  and  P_7
REMARK    6  A    between atoms: P_7  and  O_9
REMARK    7  A    between atoms: P_7  and  O_11
REMARK    8  A    between atoms: O_11  and  P_12
REMARK    9  A    between atoms: P_12  and  O_14
REMARK   10  A    between atoms: P_12  and  O_16
REMARK   11  A    between atoms: C_18  and  C_22
REMARK                            x       y       z     vdW  Elec       q    Type
REMARK                         _______ _______ _______ _____ _____    ______ ____
ROOT
ATOM      1  C   UNL     1     -35.290  21.185   4.014  0.00  0.00    +0.022 C 
ENDROOT
BRANCH   1   2
ATOM      2  C   UNL     1     -35.577  22.381   4.893  0.00  0.00    -0.046 C 
ATOM      3  C   UNL     1     -35.484  22.125   6.375  0.00  0.00    +0.026 C 
ATOM      4  C   UNL     1     -35.916  23.599   4.433  0.00  0.00    -0.002 C 
BRANCH   4   5
ATOM      5  C   UNL     1     -36.238  24.819   5.239  0.00  0.00    +0.179 C 
BRANCH   5   6
ATOM      6  O   UNL     1     -35.029  25.334   5.782  0.00  0.00    -0.268 OA
BRANCH   6   7
ATOM      7  P   UNL     1     -34.075  26.271   4.875  0.00  0.00    +0.484 P 
ATOM      8  O   UNL     1     -33.166  25.522   3.945  0.00  0.00    -0.227 OA
BRANCH   7   9
ATOM      9  O   UNL     1     -35.092  27.290   4.137  0.00  0.00    -0.302 OA
ATOM     10  H   UNL     1     -35.998  26.951   4.208  0.00  0.00    +0.222 HD
ENDBRANCH   7   9
BRANCH   7  11
ATOM     11  O   UNL     1     -33.306  27.219   5.934  0.00  0.00    -0.186 OA
BRANCH  11  12
ATOM     12  P   UNL     1     -31.978  28.127   5.774  0.00  0.00    +0.481 P 
ATOM     13  O   UNL     1     -32.188  29.592   6.025  0.00  0.00    -0.227 OA
BRANCH  12  14
ATOM     14  O   UNL     1     -30.912  27.404   6.750  0.00  0.00    -0.302 OA
ATOM     15  H   UNL     1     -31.270  27.371   7.651  0.00  0.00    +0.222 HD
ENDBRANCH  12  14
BRANCH  12  16
ATOM     16  O   UNL     1     -31.452  27.750   4.293  0.00  0.00    -0.302 OA
ATOM     17  H   UNL     1     -30.608  27.276   4.361  0.00  0.00    +0.222 HD
ENDBRANCH  12  16
ENDBRANCH  11  12
ENDBRANCH   7  11
ENDBRANCH   6   7
ENDBRANCH   5   6
ENDBRANCH   4   5
ENDBRANCH   1   2
BRANCH   1  18
ATOM     18  C   UNL     1     -35.188  21.584   2.548  0.00  0.00    +0.008 C 
BRANCH  18  22
ATOM     19  C   UNL     1     -34.800  19.730   0.723  0.00  0.00    +0.003 C 
ATOM     20  C   UNL     1     -35.601  18.548   0.043  0.00  0.00    +0.001 C 
ATOM     21  C   UNL     1     -34.752  17.438  -0.677  0.00  0.00    +0.000 C 
ATOM     22  C   UNL     1     -35.827  20.513   1.645  0.00  0.00    +0.019 C 
ATOM     23  C   UNL     1     -33.662  19.125   1.586  0.00  0.00    +0.000 C 
ATOM     24  C   UNL     1     -36.786  19.085  -0.793  0.00  0.00    +0.004 C 
ATOM     25  C   UNL     1     -33.599  16.986   0.252  0.00  0.00    +0.000 C 
ATOM     26  C   UNL     1     -32.782  18.131   0.833  0.00  0.00    +0.000 C 
ATOM     27  C   UNL     1     -34.172  20.723  -0.289  0.00  0.00    +0.000 C 
ATOM     28  C   UNL     1     -37.735  19.934   0.057  0.00  0.00    +0.022 C 
ATOM     29  C   UNL     1     -37.000  21.018   0.806  0.00  0.00    -0.045 C 
ATOM     30  C   UNL     1     -34.195  17.850  -2.053  0.00  0.00    +0.000 C 
ATOM     31  C   UNL     1     -35.636  16.187  -0.927  0.00  0.00    +0.000 C 
ATOM     32  C   UNL     1     -37.387  22.300   0.694  0.00  0.00    -0.009 C 
ENDBRANCH  18  22
ENDBRANCH   1  18
TORSDOF 11
ENDMDL
MODEL 2
REMARK VINA RESULT:      -6.8      6.765      9.490
REMARK  Name = 5281990
REMARK  11 active torsions:
REMARK  status: ('A' for Active; 'I' for Inactive)
REMARK    1  A    between atoms: C_1  and  C_2
REMARK    2  A    between atoms: C_1  and  C_18
REMARK    3  A    between atoms: C_4  and  C_5
REMARK    4  A    between atoms: C_5  and  O_6
REMARK    5  A    between atoms: O_6  and  P_7
REMARK    6  A    between atoms: P_7  and  O_9
REMARK    7  A    between atoms: P_7  and  O_11
REMARK    8  A    between atoms: O_11  and  P_12
REMARK    9  A    between atoms: P_12  and  O_14
REMARK   10  A    between atoms: P_12  and  O_16
REMARK   11  A    between atoms: C_18  and  C_22
REMARK                            x       y       z     vdW  Elec       q    Type
REMARK                         _______ _______ _______ _____ _____    ______ ____
ROOT
ATOM      1  C   UNL     1     -34.058  19.502   1.677  0.00  0.00    +0.022 C 
ENDROOT
BRANCH   1   2
ATOM      2  C   UNL     1     -33.881  18.613   0.466  0.00  0.00    -0.046 C 
ATOM      3  C   UNL     1     -34.265  19.237  -0.849  0.00  0.00    +0.026 C 
ATOM      4  C   UNL     1     -33.436  17.343   0.513  0.00  0.00    -0.002 C 
BRANCH   4   5
ATOM      5  C   UNL     1     -33.259  16.399  -0.634  0.00  0.00    +0.179 C 
BRANCH   5   6
ATOM      6  O   UNL     1     -34.252  15.384  -0.543  0.00  0.00    -0.268 OA
BRANCH   6   7
ATOM      7  P   UNL     1     -35.328  15.203  -1.733  0.00  0.00    +0.484 P 
ATOM      8  O   UNL     1     -34.751  15.289  -3.116  0.00  0.00    -0.227 OA
BRANCH   7   9
ATOM      9  O   UNL     1     -36.065  13.801  -1.404  0.00  0.00    -0.302 OA
ATOM     10  H   UNL     1     -36.894  13.975  -0.931  0.00  0.00    +0.222 HD
ENDBRANCH   7   9
BRANCH   7  11
ATOM     11  O   UNL     1     -36.471  16.303  -1.423  0.00  0.00    -0.186 OA
BRANCH  11  12
ATOM     12  P   UNL     1     -37.561  16.392  -0.233  0.00  0.00    +0.481 P 
ATOM     13  O   UNL     1     -38.969  16.080  -0.650  0.00  0.00    -0.227 OA
BRANCH  12  14
ATOM     14  O   UNL     1     -36.949  15.426   0.908  0.00  0.00    -0.302 OA
ATOM     15  H   UNL     1     -37.364  15.630   1.761  0.00  0.00    +0.222 HD
ENDBRANCH  12  14
BRANCH  12  16
ATOM     16  O   UNL     1     -37.333  17.876   0.364  0.00  0.00    -0.302 OA
ATOM     17  H   UNL     1     -36.962  17.811   1.258  0.00  0.00    +0.222 HD
ENDBRANCH  12  16
ENDBRANCH  11  12
ENDBRANCH   7  11
ENDBRANCH   6   7
ENDBRANCH   5   6
ENDBRANCH   4   5
ENDBRANCH   1   2
BRANCH   1  18
ATOM     18  C   UNL     1     -35.240  20.446   1.505  0.00  0.00    +0.008 C 
BRANCH  18  22
ATOM     19  C   UNL     1     -35.514  22.475   3.156  0.00  0.00    +0.003 C 
ATOM     20  C   UNL     1     -34.823  23.866   3.451  0.00  0.00    +0.001 C 
ATOM     21  C   UNL     1     -35.090  24.507   4.861  0.00  0.00    +0.000 C 
ATOM     22  C   UNL     1     -34.838  21.892   1.844  0.00  0.00    +0.019 C 
ATOM     23  C   UNL     1     -35.253  21.528   4.356  0.00  0.00    +0.000 C 
ATOM     24  C   UNL     1     -35.003  24.842   2.265  0.00  0.00    +0.004 C 
ATOM     25  C   UNL     1     -34.883  23.437   5.961  0.00  0.00    +0.000 C 
ATOM     26  C   UNL     1     -35.623  22.132   5.707  0.00  0.00    +0.000 C 
ATOM     27  C   UNL     1     -37.045  22.572   2.934  0.00  0.00    +0.000 C 
ATOM     28  C   UNL     1     -34.452  24.253   0.963  0.00  0.00    +0.022 C 
ATOM     29  C   UNL     1     -35.008  22.878   0.688  0.00  0.00    -0.045 C 
ATOM     30  C   UNL     1     -36.475  25.164   5.013  0.00  0.00    +0.000 C 
ATOM     31  C   UNL     1     -34.050  25.627   5.131  0.00  0.00    +0.000 C 
ATOM     32  C   UNL     1     -35.602  22.611  -0.487  0.00  0.00    -0.009 C 
ENDBRANCH  18  22
ENDBRANCH   1  18
TORSDOF 11
ENDMDL
MODEL 3
REMARK VINA RESULT:      -6.8      2.986      4.804
REMARK  Name = 5281990
REMARK  11 active torsions:
REMARK  status: ('A' for Active; 'I' for Inactive)
REMARK    1  A    between atoms: C_1  and  C_2
REMARK    2  A    between atoms: C_1  and  C_18
REMARK    3  A    between atoms: C_4  and  C_5
REMARK    4  A    between atoms: C_5  and  O_6
REMARK    5  A    between atoms: O_6  and  P_7
REMARK    6  A    between atoms: P_7  and  O_9
REMARK    7  A    between atoms: P_7  and  O_11
REMARK    8  A    between atoms: O_11  and  P_12
REMARK    9  A    between atoms: P_12  and  O_14
REMARK   10  A    between atoms: P_12  and  O_16
REMARK   11  A    between atoms: C_18  and  C_22
REMARK                            x       y       z     vdW  Elec       q    Type
REMARK                         _______ _______ _______ _____ _____    ______ ____
ROOT
ATOM      1  C   UNL     1     -34.289  22.661   1.098  0.00  0.00    +0.022 C 
ENDROOT
BRANCH   1   2
ATOM      2  C   UNL     1     -35.572  22.446   1.869  0.00  0.00    -0.046 C 
ATOM      3  C   UNL     1     -35.431  21.651   3.141  0.00  0.00    +0.026 C 
ATOM      4  C   UNL     1     -36.780  22.893   1.476  0.00  0.00    -0.002 C 
BRANCH   4   5
ATOM      5  C   UNL     1     -38.091  22.698   2.171  0.00  0.00    +0.179 C 
BRANCH   5   6
ATOM      6  O   UNL     1     -38.845  23.898   2.059  0.00  0.00    -0.268 OA
BRANCH   6   7
ATOM      7  P   UNL     1     -38.677  25.059   3.170  0.00  0.00    +0.484 P 
ATOM      8  O   UNL     1     -38.384  26.421   2.609  0.00  0.00    -0.227 OA
BRANCH   7   9
ATOM      9  O   UNL     1     -40.031  24.978   4.051  0.00  0.00    -0.302 OA
ATOM     10  H   UNL     1     -40.591  24.259   3.717  0.00  0.00    +0.222 HD
ENDBRANCH   7   9
BRANCH   7  11
ATOM     11  O   UNL     1     -37.545  24.500   4.179  0.00  0.00    -0.186 OA
BRANCH  11  12
ATOM     12  P   UNL     1     -36.176  25.173   4.714  0.00  0.00    +0.481 P 
ATOM     13  O   UNL     1     -35.375  24.308   5.642  0.00  0.00    -0.227 OA
BRANCH  12  14
ATOM     14  O   UNL     1     -35.421  25.614   3.355  0.00  0.00    -0.302 OA
ATOM     15  H   UNL     1     -34.531  25.228   3.340  0.00  0.00    +0.222 HD
ENDBRANCH  12  14
BRANCH  12  16
ATOM     16  O   UNL     1     -36.678  26.576   5.341  0.00  0.00    -0.302 OA
ATOM     17  H   UNL     1     -37.643  26.635   5.270  0.00  0.00    +0.222 HD
ENDBRANCH  12  16
ENDBRANCH  11  12
ENDBRANCH   7  11
ENDBRANCH   6   7
ENDBRANCH   5   6
ENDBRANCH   4   5
ENDBRANCH   1   2
BRANCH   1  18
ATOM     18  C   UNL     1     -34.112  21.612   0.009  0.00  0.00    +0.008 C 
BRANCH  18  22
ATOM     19  C   UNL     1     -31.914  20.277  -0.540  0.00  0.00    +0.003 C 
ATOM     20  C   UNL     1     -30.910  19.293   0.185  0.00  0.00    +0.001 C 
ATOM     21  C   UNL     1     -29.485  19.132  -0.457  0.00  0.00    +0.000 C 
ATOM     22  C   UNL     1     -33.123  20.521   0.457  0.00  0.00    +0.019 C 
ATOM     23  C   UNL     1     -31.178  21.613  -0.824  0.00  0.00    +0.000 C 
ATOM     24  C   UNL     1     -31.601  17.956   0.543  0.00  0.00    +0.004 C 
ATOM     25  C   UNL     1     -28.901  20.531  -0.774  0.00  0.00    +0.000 C 
ATOM     26  C   UNL     1     -29.846  21.439  -1.547  0.00  0.00    +0.000 C 
ATOM     27  C   UNL     1     -32.468  19.729  -1.880  0.00  0.00    +0.000 C 
ATOM     28  C   UNL     1     -32.836  18.178   1.420  0.00  0.00    +0.022 C 
ATOM     29  C   UNL     1     -33.780  19.188   0.816  0.00  0.00    -0.045 C 
ATOM     30  C   UNL     1     -29.446  18.243  -1.714  0.00  0.00    +0.000 C 
ATOM     31  C   UNL     1     -28.523  18.472   0.567  0.00  0.00    +0.000 C 
ATOM     32  C   UNL     1     -35.072  18.876   0.624  0.00  0.00    -0.009 C 
ENDBRANCH  18  22
ENDBRANCH   1  18
TORSDOF 11
ENDMDL
MODEL 4
REMARK VINA RESULT:      -6.7      6.720      9.431
REMARK  Name = 5281990
REMARK  11 active torsions:
REMARK  status: ('A' for Active; 'I' for Inactive)
REMARK    1  A    between atoms: C_1  and  C_2
REMARK    2  A    between atoms: C_1  and  C_18
REMARK    3  A    between atoms: C_4  and  C_5
REMARK    4  A    between atoms: C_5  and  O_6
REMARK    5  A    between atoms: O_6  and  P_7
REMARK    6  A    between atoms: P_7  and  O_9
REMARK    7  A    between atoms: P_7  and  O_11
REMARK    8  A    between atoms: O_11  and  P_12
REMARK    9  A    between atoms: P_12  and  O_14
REMARK   10  A    between atoms: P_12  and  O_16
REMARK   11  A    between atoms: C_18  and  C_22
REMARK                            x       y       z     vdW  Elec       q    Type
REMARK                         _______ _______ _______ _____ _____    ______ ____
ROOT
ATOM      1  C   UNL     1     -33.640  21.555   0.165  0.00  0.00    +0.022 C 
ENDROOT
BRANCH   1   2
ATOM      2  C   UNL     1     -33.650  20.189   0.816  0.00  0.00    -0.046 C 
ATOM      3  C   UNL     1     -34.944  19.807   1.485  0.00  0.00    +0.026 C 
ATOM      4  C   UNL     1     -32.597  19.351   0.840  0.00  0.00    -0.002 C 
BRANCH   4   5
ATOM      5  C   UNL     1     -32.525  18.001   1.483  0.00  0.00    +0.179 C 
BRANCH   5   6
ATOM      6  O   UNL     1     -31.762  17.141   0.646  0.00  0.00    -0.268 OA
BRANCH   6   7
ATOM      7  P   UNL     1     -32.512  16.084  -0.318  0.00  0.00    +0.484 P 
ATOM      8  O   UNL     1     -32.267  16.292  -1.784  0.00  0.00    -0.227 OA
BRANCH   7   9
ATOM      9  O   UNL     1     -32.053  14.634   0.236  0.00  0.00    -0.302 OA
ATOM     10  H   UNL     1     -31.087  14.613   0.323  0.00  0.00    +0.222 HD
ENDBRANCH   7   9
BRANCH   7  11
ATOM     11  O   UNL     1     -34.067  16.169   0.113  0.00  0.00    -0.186 OA
BRANCH  11  12
ATOM     12  P   UNL     1     -35.385  15.498  -0.538  0.00  0.00    +0.481 P 
ATOM     13  O   UNL     1     -35.886  16.178  -1.779  0.00  0.00    -0.227 OA
BRANCH  12  14
ATOM     14  O   UNL     1     -34.964  13.948  -0.722  0.00  0.00    -0.302 OA
ATOM     15  H   UNL     1     -35.543  13.390  -0.179  0.00  0.00    +0.222 HD
ENDBRANCH  12  14
BRANCH  12  16
ATOM     16  O   UNL     1     -36.428  15.463   0.696  0.00  0.00    -0.302 OA
ATOM     17  H   UNL     1     -37.335  15.457   0.353  0.00  0.00    +0.222 HD
ENDBRANCH  12  16
ENDBRANCH  11  12
ENDBRANCH   7  11
ENDBRANCH   6   7
ENDBRANCH   5   6
ENDBRANCH   4   5
ENDBRANCH   1   2
BRANCH   1  18
ATOM     18  C   UNL     1     -34.847  22.381   0.590  0.00  0.00    +0.008 C 
BRANCH  18  22
ATOM     19  C   UNL     1     -35.245  23.820   2.755  0.00  0.00    +0.003 C 
ATOM     20  C   UNL     1     -34.520  24.965   3.570  0.00  0.00    +0.001 C 
ATOM     21  C   UNL     1     -34.967  25.165   5.063  0.00  0.00    +0.000 C 
ATOM     22  C   UNL     1     -34.408  23.597   1.426  0.00  0.00    +0.019 C 
ATOM     23  C   UNL     1     -35.244  22.526   3.610  0.00  0.00    +0.000 C 
ATOM     24  C   UNL     1     -34.442  26.272   2.748  0.00  0.00    +0.004 C 
ATOM     25  C   UNL     1     -35.011  23.792   5.778  0.00  0.00    +0.000 C 
ATOM     26  C   UNL     1     -35.786  22.722   5.023  0.00  0.00    +0.000 C 
ATOM     27  C   UNL     1     -36.712  24.155   2.377  0.00  0.00    +0.000 C 
ATOM     28  C   UNL     1     -33.730  26.055   1.411  0.00  0.00    +0.022 C 
ATOM     29  C   UNL     1     -34.325  24.904   0.637  0.00  0.00    -0.045 C 
ATOM     30  C   UNL     1     -36.311  25.897   5.236  0.00  0.00    +0.000 C 
ATOM     31  C   UNL     1     -33.911  26.021   5.813  0.00  0.00    +0.000 C 
ATOM     32  C   UNL     1     -34.739  25.082  -0.629  0.00  0.00    -0.009 C 
ENDBRANCH  18  22
ENDBRANCH   1  18
TORSDOF 11
ENDMDL
MODEL 5
REMARK VINA RESULT:      -6.6      7.429      9.947
REMARK  Name = 5281990
REMARK  11 active torsions:
REMARK  status: ('A' for Active; 'I' for Inactive)
REMARK    1  A    between atoms: C_1  and  C_2
REMARK    2  A    between atoms: C_1  and  C_18
REMARK    3  A    between atoms: C_4  and  C_5
REMARK    4  A    between atoms: C_5  and  O_6
REMARK    5  A    between atoms: O_6  and  P_7
REMARK    6  A    between atoms: P_7  and  O_9
REMARK    7  A    between atoms: P_7  and  O_11
REMARK    8  A    between atoms: O_11  and  P_12
REMARK    9  A    between atoms: P_12  and  O_14
REMARK   10  A    between atoms: P_12  and  O_16
REMARK   11  A    between atoms: C_18  and  C_22
REMARK                            x       y       z     vdW  Elec       q    Type
REMARK                         _______ _______ _______ _____ _____    ______ ____
ROOT
ATOM      1  C   UNL     1     -33.957  19.419   1.505  0.00  0.00    +0.022 C 
ENDROOT
BRANCH   1   2
ATOM      2  C   UNL     1     -34.169  18.402   0.406  0.00  0.00    -0.046 C 
ATOM      3  C   UNL     1     -33.228  17.226   0.429  0.00  0.00    +0.026 C 
ATOM      4  C   UNL     1     -35.103  18.508  -0.558  0.00  0.00    -0.002 C 
BRANCH   4   5
ATOM      5  C   UNL     1     -35.355  17.559  -1.688  0.00  0.00    +0.179 C 
BRANCH   5   6
ATOM      6  O   UNL     1     -36.572  16.868  -1.435  0.00  0.00    -0.268 OA
BRANCH   6   7
ATOM      7  P   UNL     1     -36.536  15.384  -0.798  0.00  0.00    +0.484 P 
ATOM      8  O   UNL     1     -35.235  14.657  -0.981  0.00  0.00    -0.227 OA
BRANCH   7   9
ATOM      9  O   UNL     1     -36.970  15.594   0.746  0.00  0.00    -0.302 OA
ATOM     10  H   UNL     1     -37.052  14.730   1.180  0.00  0.00    +0.222 HD
ENDBRANCH   7   9
BRANCH   7  11
ATOM     11  O   UNL     1     -37.812  14.630  -1.442  0.00  0.00    -0.186 OA
BRANCH  11  12
ATOM     12  P   UNL     1     -39.396  14.810  -1.172  0.00  0.00    +0.481 P 
ATOM     13  O   UNL     1     -40.276  14.400  -2.317  0.00  0.00    -0.227 OA
BRANCH  12  14
ATOM     14  O   UNL     1     -39.634  14.000   0.206  0.00  0.00    -0.302 OA
ATOM     15  H   UNL     1     -38.988  14.292   0.868  0.00  0.00    +0.222 HD
ENDBRANCH  12  14
BRANCH  12  16
ATOM     16  O   UNL     1     -39.519  16.358  -0.728  0.00  0.00    -0.302 OA
ATOM     17  H   UNL     1     -38.723  16.619  -0.238  0.00  0.00    +0.222 HD
ENDBRANCH  12  16
ENDBRANCH  11  12
ENDBRANCH   7  11
ENDBRANCH   6   7
ENDBRANCH   5   6
ENDBRANCH   4   5
ENDBRANCH   1   2
BRANCH   1  18
ATOM     18  C   UNL     1     -35.202  20.266   1.728  0.00  0.00    +0.008 C 
BRANCH  18  22
ATOM     19  C   UNL     1     -35.510  22.406   3.224  0.00  0.00    +0.003 C 
ATOM     20  C   UNL     1     -34.844  23.828   3.413  0.00  0.00    +0.001 C 
ATOM     21  C   UNL     1     -35.122  24.567   4.772  0.00  0.00    +0.000 C 
ATOM     22  C   UNL     1     -34.826  21.740   1.957  0.00  0.00    +0.019 C 
ATOM     23  C   UNL     1     -35.230  21.556   4.490  0.00  0.00    +0.000 C 
ATOM     24  C   UNL     1     -35.044  24.710   2.158  0.00  0.00    +0.004 C 
ATOM     25  C   UNL     1     -34.894  23.586   5.949  0.00  0.00    +0.000 C 
ATOM     26  C   UNL     1     -35.610  22.252   5.794  0.00  0.00    +0.000 C 
ATOM     27  C   UNL     1     -37.044  22.459   2.999  0.00  0.00    +0.000 C 
ATOM     28  C   UNL     1     -34.484  24.036   0.903  0.00  0.00    +0.022 C 
ATOM     29  C   UNL     1     -35.016  22.634   0.732  0.00  0.00    -0.045 C 
ATOM     30  C   UNL     1     -36.518  25.209   4.879  0.00  0.00    +0.000 C 
ATOM     31  C   UNL     1     -34.102  25.722   4.955  0.00  0.00    +0.000 C 
ATOM     32  C   UNL     1     -35.606  22.270  -0.419  0.00  0.00    -0.009 C 
ENDBRANCH  18  22
ENDBRANCH   1  18
TORSDOF 11
ENDMDL
MODEL 6
REMARK VINA RESULT:      -6.5      2.467      4.210
REMARK  Name = 5281990
REMARK  11 active torsions:
REMARK  status: ('A' for Active; 'I' for Inactive)
REMARK    1  A    between atoms: C_1  and  C_2
REMARK    2  A    between atoms: C_1  and  C_18
REMARK    3  A    between atoms: C_4  and  C_5
REMARK    4  A    between atoms: C_5  and  O_6
REMARK    5  A    between atoms: O_6  and  P_7
REMARK    6  A    between atoms: P_7  and  O_9
REMARK    7  A    between atoms: P_7  and  O_11
REMARK    8  A    between atoms: O_11  and  P_12
REMARK    9  A    between atoms: P_12  and  O_14
REMARK   10  A    between atoms: P_12  and  O_16
REMARK   11  A    between atoms: C_18  and  C_22
REMARK                            x       y       z     vdW  Elec       q    Type
REMARK                         _______ _______ _______ _____ _____    ______ ____
ROOT
ATOM      1  C   UNL     1     -33.785  23.012   0.674  0.00  0.00    +0.022 C 
ENDROOT
BRANCH   1   2
ATOM      2  C   UNL     1     -35.127  23.067   1.367  0.00  0.00    -0.046 C 
ATOM      3  C   UNL     1     -36.289  23.446   0.486  0.00  0.00    +0.026 C 
ATOM      4  C   UNL     1     -35.318  22.824   2.678  0.00  0.00    -0.002 C 
BRANCH   4   5
ATOM      5  C   UNL     1     -36.607  22.883   3.435  0.00  0.00    +0.179 C 
BRANCH   5   6
ATOM      6  O   UNL     1     -36.500  23.891   4.433  0.00  0.00    -0.268 OA
BRANCH   6   7
ATOM      7  P   UNL     1     -36.693  25.444   4.030  0.00  0.00    +0.484 P 
ATOM      8  O   UNL     1     -37.897  25.724   3.178  0.00  0.00    -0.227 OA
BRANCH   7   9
ATOM      9  O   UNL     1     -36.677  26.234   5.442  0.00  0.00    -0.302 OA
ATOM     10  H   UNL     1     -36.396  27.151   5.296  0.00  0.00    +0.222 HD
ENDBRANCH   7   9
BRANCH   7  11
ATOM     11  O   UNL     1     -35.288  25.869   3.353  0.00  0.00    -0.186 OA
BRANCH  11  12
ATOM     12  P   UNL     1     -33.814  26.047   3.991  0.00  0.00    +0.481 P 
ATOM     13  O   UNL     1     -32.684  25.851   3.023  0.00  0.00    -0.227 OA
BRANCH  12  14
ATOM     14  O   UNL     1     -33.883  27.504   4.687  0.00  0.00    -0.302 OA
ATOM     15  H   UNL     1     -33.938  28.188   4.001  0.00  0.00    +0.222 HD
ENDBRANCH  12  14
BRANCH  12  16
ATOM     16  O   UNL     1     -33.832  25.028   5.245  0.00  0.00    -0.302 OA
ATOM     17  H   UNL     1     -33.694  25.524   6.067  0.00  0.00    +0.222 HD
ENDBRANCH  12  16
ENDBRANCH  11  12
ENDBRANCH   7  11
ENDBRANCH   6   7
ENDBRANCH   5   6
ENDBRANCH   4   5
ENDBRANCH   1   2
BRANCH   1  18
ATOM     18  C   UNL     1     -33.705  21.837  -0.292  0.00  0.00    +0.008 C 
BRANCH  18  22
ATOM     19  C   UNL     1     -31.740  20.106  -0.525  0.00  0.00    +0.003 C 
ATOM     20  C   UNL     1     -30.965  19.061   0.375  0.00  0.00    +0.001 C 
ATOM     21  C   UNL     1     -29.553  18.596  -0.134  0.00  0.00    +0.000 C 
ATOM     22  C   UNL     1     -32.947  20.658   0.344  0.00  0.00    +0.019 C 
ATOM     23  C   UNL     1     -30.771  21.261  -0.888  0.00  0.00    +0.000 C 
ATOM     24  C   UNL     1     -31.894  17.906   0.815  0.00  0.00    +0.004 C 
ATOM     25  C   UNL     1     -28.720  19.834  -0.548  0.00  0.00    +0.000 C 
ATOM     26  C   UNL     1     -29.447  20.789  -1.483  0.00  0.00    +0.000 C 
ATOM     27  C   UNL     1     -32.299  19.504  -1.840  0.00  0.00    +0.000 C 
ATOM     28  C   UNL     1     -33.123  18.427   1.565  0.00  0.00    +0.022 C 
ATOM     29  C   UNL     1     -33.842  19.501   0.787  0.00  0.00    -0.045 C 
ATOM     30  C   UNL     1     -29.592  17.573  -1.284  0.00  0.00    +0.000 C 
ATOM     31  C   UNL     1     -28.781  17.911   1.026  0.00  0.00    +0.000 C 
ATOM     32  C   UNL     1     -35.156  19.385   0.528  0.00  0.00    -0.009 C 
ENDBRANCH  18  22
ENDBRANCH   1  18
TORSDOF 11
ENDMDL
MODEL 7
REMARK VINA RESULT:      -6.5      2.972      5.358
REMARK  Name = 5281990
REMARK  11 active torsions:
REMARK  status: ('A' for Active; 'I' for Inactive)
REMARK    1  A    between atoms: C_1  and  C_2
REMARK    2  A    between atoms: C_1  and  C_18
REMARK    3  A    between atoms: C_4  and  C_5
REMARK    4  A    between atoms: C_5  and  O_6
REMARK    5  A    between atoms: O_6  and  P_7
REMARK    6  A    between atoms: P_7  and  O_9
REMARK    7  A    between atoms: P_7  and  O_11
REMARK    8  A    between atoms: O_11  and  P_12
REMARK    9  A    between atoms: P_12  and  O_14
REMARK   10  A    between atoms: P_12  and  O_16
REMARK   11  A    between atoms: C_18  and  C_22
REMARK                            x       y       z     vdW  Elec       q    Type
REMARK                         _______ _______ _______ _____ _____    ______ ____
ROOT
ATOM      1  C   UNL     1     -34.046  26.967   1.719  0.00  0.00    +0.022 C 
ENDROOT
BRANCH   1   2
ATOM      2  C   UNL     1     -32.687  27.217   2.334  0.00  0.00    -0.046 C 
ATOM      3  C   UNL     1     -31.658  26.149   2.070  0.00  0.00    +0.026 C 
ATOM      4  C   UNL     1     -32.379  28.288   3.088  0.00  0.00    -0.002 C 
BRANCH   4   5
ATOM      5  C   UNL     1     -31.070  28.590   3.748  0.00  0.00    +0.179 C 
BRANCH   5   6
ATOM      6  O   UNL     1     -31.096  28.061   5.068  0.00  0.00    -0.268 OA
BRANCH   6   7
ATOM      7  P   UNL     1     -31.514  29.011   6.306  0.00  0.00    +0.484 P 
ATOM      8  O   UNL     1     -32.378  30.180   5.932  0.00  0.00    -0.227 OA
BRANCH   7   9
ATOM      9  O   UNL     1     -32.182  28.005   7.382  0.00  0.00    -0.302 OA
ATOM     10  H   UNL     1     -32.685  28.518   8.035  0.00  0.00    +0.222 HD
ENDBRANCH   7   9
BRANCH   7  11
ATOM     11  O   UNL     1     -30.112  29.419   7.001  0.00  0.00    -0.186 OA
BRANCH  11  12
ATOM     12  P   UNL     1     -28.683  28.665   7.026  0.00  0.00    +0.481 P 
ATOM     13  O   UNL     1     -27.733  29.090   5.944  0.00  0.00    -0.227 OA
BRANCH  12  14
ATOM     14  O   UNL     1     -28.161  28.903   8.536  0.00  0.00    -0.302 OA
ATOM     15  H   UNL     1     -28.921  28.942   9.138  0.00  0.00    +0.222 HD
ENDBRANCH  12  14
BRANCH  12  16
ATOM     16  O   UNL     1     -29.092  27.102   7.008  0.00  0.00    -0.302 OA
ATOM     17  H   UNL     1     -28.790  26.680   7.827  0.00  0.00    +0.222 HD
ENDBRANCH  12  16
ENDBRANCH  11  12
ENDBRANCH   7  11
ENDBRANCH   6   7
ENDBRANCH   5   6
ENDBRANCH   4   5
ENDBRANCH   1   2
BRANCH   1  18
ATOM     18  C   UNL     1     -35.079  26.611   2.779  0.00  0.00    +0.008 C 
BRANCH  18  22
ATOM     19  C   UNL     1     -35.758  24.110   2.331  0.00  0.00    +0.003 C 
ATOM     20  C   UNL     1     -35.317  22.660   2.785  0.00  0.00    +0.001 C 
ATOM     21  C   UNL     1     -35.753  21.465   1.863  0.00  0.00    +0.000 C 
ATOM     22  C   UNL     1     -34.934  25.140   3.211  0.00  0.00    +0.019 C 
ATOM     23  C   UNL     1     -35.406  24.288   0.831  0.00  0.00    +0.000 C 
ATOM     24  C   UNL     1     -35.595  22.438   4.289  0.00  0.00    +0.004 C 
ATOM     25  C   UNL     1     -35.429  21.805   0.387  0.00  0.00    +0.000 C 
ATOM     26  C   UNL     1     -35.935  23.169  -0.062  0.00  0.00    +0.000 C 
ATOM     27  C   UNL     1     -37.272  24.388   2.514  0.00  0.00    +0.000 C 
ATOM     28  C   UNL     1     -34.893  23.489   5.153  0.00  0.00    +0.022 C 
ATOM     29  C   UNL     1     -35.205  24.892   4.695  0.00  0.00    -0.045 C 
ATOM     30  C   UNL     1     -37.232  21.056   2.001  0.00  0.00    +0.000 C 
ATOM     31  C   UNL     1     -34.923  20.203   2.219  0.00  0.00    +0.000 C 
ATOM     32  C   UNL     1     -35.690  25.796   5.564  0.00  0.00    -0.009 C 
ENDBRANCH  18  22
ENDBRANCH   1  18
TORSDOF 11
ENDMDL
MODEL 8
REMARK VINA RESULT:      -6.4      2.172      3.443
REMARK  Name = 5281990
REMARK  11 active torsions:
REMARK  status: ('A' for Active; 'I' for Inactive)
REMARK    1  A    between atoms: C_1  and  C_2
REMARK    2  A    between atoms: C_1  and  C_18
REMARK    3  A    between atoms: C_4  and  C_5
REMARK    4  A    between atoms: C_5  and  O_6
REMARK    5  A    between atoms: O_6  and  P_7
REMARK    6  A    between atoms: P_7  and  O_9
REMARK    7  A    between atoms: P_7  and  O_11
REMARK    8  A    between atoms: O_11  and  P_12
REMARK    9  A    between atoms: P_12  and  O_14
REMARK   10  A    between atoms: P_12  and  O_16
REMARK   11  A    between atoms: C_18  and  C_22
REMARK                            x       y       z     vdW  Elec       q    Type
REMARK                         _______ _______ _______ _____ _____    ______ ____
ROOT
ATOM      1  C   UNL     1     -33.852  25.446   1.763  0.00  0.00    +0.022 C 
ENDROOT
BRANCH   1   2
ATOM      2  C   UNL     1     -34.262  25.986   3.115  0.00  0.00    -0.046 C 
ATOM      3  C   UNL     1     -35.603  26.670   3.152  0.00  0.00    +0.026 C 
ATOM      4  C   UNL     1     -33.508  25.905   4.228  0.00  0.00    -0.002 C 
BRANCH   4   5
ATOM      5  C   UNL     1     -33.836  26.435   5.588  0.00  0.00    +0.179 C 
BRANCH   5   6
ATOM      6  O   UNL     1     -32.624  26.807   6.233  0.00  0.00    -0.268 OA
BRANCH   6   7
ATOM      7  P   UNL     1     -31.998  28.275   5.982  0.00  0.00    +0.484 P 
ATOM      8  O   UNL     1     -32.834  29.171   5.114  0.00  0.00    -0.227 OA
BRANCH   7   9
ATOM      9  O   UNL     1     -31.718  28.856   7.466  0.00  0.00    -0.302 OA
ATOM     10  H   UNL     1     -31.401  29.770   7.400  0.00  0.00    +0.222 HD
ENDBRANCH   7   9
BRANCH   7  11
ATOM     11  O   UNL     1     -30.513  27.995   5.409  0.00  0.00    -0.186 OA
BRANCH  11  12
ATOM     12  P   UNL     1     -29.059  28.216   6.079  0.00  0.00    +0.481 P 
ATOM     13  O   UNL     1     -28.820  29.599   6.613  0.00  0.00    -0.227 OA
BRANCH  12  14
ATOM     14  O   UNL     1     -28.966  27.028   7.170  0.00  0.00    -0.302 OA
ATOM     15  H   UNL     1     -28.926  27.410   8.061  0.00  0.00    +0.222 HD
ENDBRANCH  12  14
BRANCH  12  16
ATOM     16  O   UNL     1     -28.043  27.743   4.916  0.00  0.00    -0.302 OA
ATOM     17  H   UNL     1     -27.136  27.736   5.261  0.00  0.00    +0.222 HD
ENDBRANCH  12  16
ENDBRANCH  11  12
ENDBRANCH   7  11
ENDBRANCH   6   7
ENDBRANCH   5   6
ENDBRANCH   4   5
ENDBRANCH   1   2
BRANCH   1  18
ATOM     18  C   UNL     1     -34.923  24.534   1.181  0.00  0.00    +0.008 C 
BRANCH  18  22
ATOM     19  C   UNL     1     -34.402  22.024   0.592  0.00  0.00    +0.003 C 
ATOM     20  C   UNL     1     -34.067  20.673   1.342  0.00  0.00    +0.001 C 
ATOM     21  C   UNL     1     -33.385  19.540   0.494  0.00  0.00    +0.000 C 
ATOM     22  C   UNL     1     -34.760  23.096   1.706  0.00  0.00    +0.019 C 
ATOM     23  C   UNL     1     -33.146  22.475  -0.199  0.00  0.00    +0.000 C 
ATOM     24  C   UNL     1     -35.267  20.196   2.194  0.00  0.00    +0.004 C 
ATOM     25  C   UNL     1     -32.207  20.138  -0.314  0.00  0.00    +0.000 C 
ATOM     26  C   UNL     1     -32.565  21.390  -1.101  0.00  0.00    +0.000 C 
ATOM     27  C   UNL     1     -35.589  21.911  -0.399  0.00  0.00    +0.000 C 
ATOM     28  C   UNL     1     -35.697  21.261   3.206  0.00  0.00    +0.022 C 
ATOM     29  C   UNL     1     -35.933  22.598   2.549  0.00  0.00    -0.045 C 
ATOM     30  C   UNL     1     -34.341  18.779  -0.444  0.00  0.00    +0.000 C 
ATOM     31  C   UNL     1     -32.775  18.474   1.443  0.00  0.00    +0.000 C 
ATOM     32  C   UNL     1     -37.101  23.239   2.721  0.00  0.00    -0.009 C 
ENDBRANCH  18  22
ENDBRANCH   1  18
TORSDOF 11
ENDMDL
MODEL 9
REMARK VINA RESULT:      -6.4      6.976      9.291
REMARK  Name = 5281990
REMARK  11 active torsions:
REMARK  status: ('A' for Active; 'I' for Inactive)
REMARK    1  A    between atoms: C_1  and  C_2
REMARK    2  A    between atoms: C_1  and  C_18
REMARK    3  A    between atoms: C_4  and  C_5
REMARK    4  A    between atoms: C_5  and  O_6
REMARK    5  A    between atoms: O_6  and  P_7
REMARK    6  A    between atoms: P_7  and  O_9
REMARK    7  A    between atoms: P_7  and  O_11
REMARK    8  A    between atoms: O_11  and  P_12
REMARK    9  A    between atoms: P_12  and  O_14
REMARK   10  A    between atoms: P_12  and  O_16
REMARK   11  A    between atoms: C_18  and  C_22
REMARK                            x       y       z     vdW  Elec       q    Type
REMARK                         _______ _______ _______ _____ _____    ______ ____
ROOT
ATOM      1  C   UNL     1     -34.109  19.476   1.750  0.00  0.00    +0.022 C 
ENDROOT
BRANCH   1   2
ATOM      2  C   UNL     1     -33.395  19.347   0.424  0.00  0.00    -0.046 C 
ATOM      3  C   UNL     1     -32.035  19.992   0.362  0.00  0.00    +0.026 C 
ATOM      4  C   UNL     1     -33.905  18.729  -0.658  0.00  0.00    -0.002 C 
BRANCH   4   5
ATOM      5  C   UNL     1     -33.270  18.584  -2.006  0.00  0.00    +0.179 C 
BRANCH   5   6
ATOM      6  O   UNL     1     -32.945  17.214  -2.207  0.00  0.00    -0.268 OA
BRANCH   6   7
ATOM      7  P   UNL     1     -31.442  16.798  -2.631  0.00  0.00    +0.484 P 
ATOM      8  O   UNL     1     -31.241  16.603  -4.106  0.00  0.00    -0.227 OA
BRANCH   7   9
ATOM      9  O   UNL     1     -30.505  17.942  -1.976  0.00  0.00    -0.302 OA
ATOM     10  H   UNL     1     -31.012  18.434  -1.311  0.00  0.00    +0.222 HD
ENDBRANCH   7   9
BRANCH   7  11
ATOM     11  O   UNL     1     -31.111  15.492  -1.738  0.00  0.00    -0.186 OA
BRANCH  11  12
ATOM     12  P   UNL     1     -31.573  15.085  -0.244  0.00  0.00    +0.481 P 
ATOM     13  O   UNL     1     -30.812  13.938   0.355  0.00  0.00    -0.227 OA
BRANCH  12  14
ATOM     14  O   UNL     1     -31.476  16.478   0.569  0.00  0.00    -0.302 OA
ATOM     15  H   UNL     1     -30.745  17.009   0.216  0.00  0.00    +0.222 HD
ENDBRANCH  12  14
BRANCH  12  16
ATOM     16  O   UNL     1     -33.163  14.849  -0.403  0.00  0.00    -0.302 OA
ATOM     17  H   UNL     1     -33.639  15.641  -0.109  0.00  0.00    +0.222 HD
ENDBRANCH  12  16
ENDBRANCH  11  12
ENDBRANCH   7  11
ENDBRANCH   6   7
ENDBRANCH   5   6
ENDBRANCH   4   5
ENDBRANCH   1   2
BRANCH   1  18
ATOM     18  C   UNL     1     -35.301  20.419   1.650  0.00  0.00    +0.008 C 
BRANCH  18  22
ATOM     19  C   UNL     1     -35.544  22.515   3.220  0.00  0.00    +0.003 C 
ATOM     20  C   UNL     1     -34.830  23.905   3.463  0.00  0.00    +0.001 C 
ATOM     21  C   UNL     1     -35.091  24.604   4.846  0.00  0.00    +0.000 C 
ATOM     22  C   UNL     1     -34.874  21.870   1.934  0.00  0.00    +0.019 C 
ATOM     23  C   UNL     1     -35.304  21.611   4.457  0.00  0.00    +0.000 C 
ATOM     24  C   UNL     1     -34.989  24.836   2.240  0.00  0.00    +0.004 C 
ATOM     25  C   UNL     1     -34.907  23.574   5.989  0.00  0.00    +0.000 C 
ATOM     26  C   UNL     1     -35.669  22.273   5.782  0.00  0.00    +0.000 C 
ATOM     27  C   UNL     1     -37.073  22.630   2.987  0.00  0.00    +0.000 C 
ATOM     28  C   UNL     1     -34.443  24.188   0.964  0.00  0.00    +0.022 C 
ATOM     29  C   UNL     1     -35.023  22.813   0.741  0.00  0.00    -0.045 C 
ATOM     30  C   UNL     1     -36.464  25.291   4.967  0.00  0.00    +0.000 C 
ATOM     31  C   UNL     1     -34.032  25.715   5.077  0.00  0.00    +0.000 C 
ATOM     32  C   UNL     1     -35.617  22.511  -0.426  0.00  0.00    -0.009 C 
ENDBRANCH  18  22
ENDBRANCH   1  18
TORSDOF 11
ENDMDL
