MODEL 1
REMARK VINA RESULT:      -8.0      0.000      0.000
REMARK  Name = 59351313
REMARK  5 active torsions:
REMARK  status: ('A' for Active; 'I' for Inactive)
REMARK    1  A    between atoms: C_1  and  O_20
REMARK    2  A    between atoms: C_4  and  C_8
REMARK    3  A    between atoms: C_8  and  C_11
REMARK    4  A    between atoms: O_20  and  C_24
REMARK    5  A    between atoms: C_23  and  C_29
REMARK                            x       y       z     vdW  Elec       q    Type
REMARK                         _______ _______ _______ _____ _____    ______ ____
ROOT
ATOM      1  C   UNL     1     -35.290  21.880   3.766  0.00  0.00    +0.147 C 
ATOM      2  C   UNL     1     -35.191  22.984   2.919  0.00  0.00    +0.038 C 
ATOM      3  C   UNL     1     -35.370  22.064   5.145  0.00  0.00    +0.038 C 
ATOM      4  C   UNL     1     -35.255  24.457   4.832  0.00  0.00    +0.038 C 
ATOM      5  C   UNL     1     -35.175  24.273   3.453  0.00  0.00    +0.006 C 
ATOM      6  C   UNL     1     -35.353  23.353   5.679  0.00  0.00    +0.006 C 
ENDROOT
BRANCH   4   8
ATOM      7  O   UNL     1     -36.232  26.242   5.987  0.00  0.00    -0.288 OA
ATOM      8  C   UNL     1     -35.239  25.801   5.388  0.00  0.00    +0.210 C 
BRANCH   8  11
ATOM      9  N   UNL     1     -33.688  27.384   4.143  0.00  0.00    -0.312 N 
ATOM     10  N   UNL     1     -33.229  26.928   6.270  0.00  0.00    -0.312 N 
ATOM     11  C   UNL     1     -34.054  26.702   5.271  0.00  0.00    +0.208 C 
ATOM     12  C   UNL     1     -32.554  28.096   4.434  0.00  0.00    +0.059 C 
ATOM     13  C   UNL     1     -32.287  27.796   5.767  0.00  0.00    +0.059 C 
ATOM     14  C   UNL     1     -31.762  28.954   3.669  0.00  0.00    +0.016 C 
ATOM     15  C   UNL     1     -31.169  28.375   6.391  0.00  0.00    +0.016 C 
ATOM     16  C   UNL     1     -30.652  29.521   4.305  0.00  0.00    +0.001 C 
ATOM     17  C   UNL     1     -30.360  29.238   5.641  0.00  0.00    +0.001 C 
ATOM     18  H   UNL     1     -34.156  27.365   3.277  0.00  0.00    +0.149 HD
ATOM     19  H   UNL     1     -33.276  26.557   7.180  0.00  0.00    +0.149 HD
ENDBRANCH   8  11
ENDBRANCH   4   8
BRANCH   1  20
ATOM     20  O   UNL     1     -35.306  20.603   3.237  0.00  0.00    -0.435 OA
BRANCH  20  24
ATOM     21  N   UNL     1     -35.672  19.873  -0.299  0.00  0.00    -0.242 NA
ATOM     22  N   UNL     1     -37.202  20.677   1.911  0.00  0.00    -0.207 NA
ATOM     23  C   UNL     1     -35.128  20.041   0.923  0.00  0.00    +0.112 C 
ATOM     24  C   UNL     1     -35.880  20.435   2.008  0.00  0.00    +0.243 C 
ATOM     25  C   UNL     1     -36.995  20.113  -0.396  0.00  0.00    +0.119 C 
ATOM     26  C   UNL     1     -37.747  20.508   0.689  0.00  0.00    +0.123 C 
BRANCH  23  29
ATOM     27  O   UNL     1     -29.652  18.542  -1.622  0.00  0.00    -0.275 OA
ATOM     28  N   UNL     1     -31.114  18.651   0.179  0.00  0.00    -0.280 N 
ATOM     29  C   UNL     1     -33.640  19.775   1.051  0.00  0.00    +0.048 C 
ATOM     30  C   UNL     1     -33.331  18.272   1.188  0.00  0.00    +0.028 C 
ATOM     31  C   UNL     1     -32.841  20.382  -0.117  0.00  0.00    +0.028 C 
ATOM     32  C   UNL     1     -31.827  18.028   1.301  0.00  0.00    +0.094 C 
ATOM     33  C   UNL     1     -31.349  20.088   0.028  0.00  0.00    +0.094 C 
ATOM     34  C   UNL     1     -30.253  17.991  -0.697  0.00  0.00    +0.226 C 
ATOM     35  C   UNL     1     -30.068  16.511  -0.476  0.00  0.00    +0.095 C 
ENDBRANCH  23  29
ENDBRANCH  20  24
ENDBRANCH   1  20
TORSDOF 5
ENDMDL
MODEL 2
REMARK VINA RESULT:      -7.6      3.597      6.665
REMARK  Name = 59351313
REMARK  5 active torsions:
REMARK  status: ('A' for Active; 'I' for Inactive)
REMARK    1  A    between atoms: C_1  and  O_20
REMARK    2  A    between atoms: C_4  and  C_8
REMARK    3  A    between atoms: C_8  and  C_11
REMARK    4  A    between atoms: O_20  and  C_24
REMARK    5  A    between atoms: C_23  and  C_29
REMARK                            x       y       z     vdW  Elec       q    Type
REMARK                         _______ _______ _______ _____ _____    ______ ____
ROOT
ATOM      1  C   UNL     1     -35.393  23.985   4.651  0.00  0.00    +0.147 C 
ATOM      2  C   UNL     1     -35.565  24.984   5.608  0.00  0.00    +0.038 C 
ATOM      3  C   UNL     1     -34.454  24.148   3.633  0.00  0.00    +0.038 C 
ATOM      4  C   UNL     1     -33.856  26.309   4.531  0.00  0.00    +0.038 C 
ATOM      5  C   UNL     1     -34.795  26.147   5.549  0.00  0.00    +0.006 C 
ATOM      6  C   UNL     1     -33.685  25.310   3.574  0.00  0.00    +0.006 C 
ENDROOT
BRANCH   4   8
ATOM      7  O   UNL     1     -31.928  27.552   4.991  0.00  0.00    -0.288 OA
ATOM      8  C   UNL     1     -33.053  27.521   4.470  0.00  0.00    +0.210 C 
BRANCH   8  11
ATOM      9  N   UNL     1     -34.806  28.985   3.355  0.00  0.00    -0.312 N 
ATOM     10  N   UNL     1     -32.742  29.788   3.547  0.00  0.00    -0.312 N 
ATOM     11  C   UNL     1     -33.529  28.763   3.792  0.00  0.00    +0.208 C 
ATOM     12  C   UNL     1     -34.844  30.234   2.791  0.00  0.00    +0.059 C 
ATOM     13  C   UNL     1     -33.545  30.715   2.923  0.00  0.00    +0.059 C 
ATOM     14  C   UNL     1     -35.875  30.963   2.195  0.00  0.00    +0.016 C 
ATOM     15  C   UNL     1     -33.235  31.997   2.438  0.00  0.00    +0.016 C 
ATOM     16  C   UNL     1     -35.548  32.237   1.717  0.00  0.00    +0.001 C 
ATOM     17  C   UNL     1     -34.253  32.746   1.836  0.00  0.00    +0.001 C 
ATOM     18  H   UNL     1     -35.561  28.358   3.431  0.00  0.00    +0.149 HD
ATOM     19  H   UNL     1     -31.786  29.872   3.764  0.00  0.00    +0.149 HD
ENDBRANCH   8  11
ENDBRANCH   4   8
BRANCH   1  20
ATOM     20  O   UNL     1     -36.156  22.834   4.709  0.00  0.00    -0.435 OA
BRANCH  20  24
ATOM     21  N   UNL     1     -37.396  21.917   1.424  0.00  0.00    -0.242 NA
ATOM     22  N   UNL     1     -35.637  20.993   3.405  0.00  0.00    -0.207 NA
ATOM     23  C   UNL     1     -37.200  22.590   2.575  0.00  0.00    +0.112 C 
ATOM     24  C   UNL     1     -36.336  22.136   3.548  0.00  0.00    +0.243 C 
ATOM     25  C   UNL     1     -36.696  20.774   1.280  0.00  0.00    +0.119 C 
ATOM     26  C   UNL     1     -35.832  20.320   2.253  0.00  0.00    +0.123 C 
BRANCH  23  29
ATOM     27  O   UNL     1     -41.848  26.386   0.932  0.00  0.00    -0.275 OA
ATOM     28  N   UNL     1     -39.759  25.988   1.865  0.00  0.00    -0.280 N 
ATOM     29  C   UNL     1     -37.980  23.879   2.755  0.00  0.00    +0.048 C 
ATOM     30  C   UNL     1     -37.512  24.978   1.782  0.00  0.00    +0.028 C 
ATOM     31  C   UNL     1     -39.499  23.659   2.625  0.00  0.00    +0.028 C 
ATOM     32  C   UNL     1     -38.321  26.261   1.971  0.00  0.00    +0.094 C 
ATOM     33  C   UNL     1     -40.259  24.973   2.795  0.00  0.00    +0.094 C 
ATOM     34  C   UNL     1     -40.639  26.621   0.988  0.00  0.00    +0.226 C 
ATOM     35  C   UNL     1     -40.045  27.651   0.062  0.00  0.00    +0.095 C 
ENDBRANCH  23  29
ENDBRANCH  20  24
ENDBRANCH   1  20
TORSDOF 5
ENDMDL
MODEL 3
REMARK VINA RESULT:      -7.6      0.947      1.588
REMARK  Name = 59351313
REMARK  5 active torsions:
REMARK  status: ('A' for Active; 'I' for Inactive)
REMARK    1  A    between atoms: C_1  and  O_20
REMARK    2  A    between atoms: C_4  and  C_8
REMARK    3  A    between atoms: C_8  and  C_11
REMARK    4  A    between atoms: O_20  and  C_24
REMARK    5  A    between atoms: C_23  and  C_29
REMARK                            x       y       z     vdW  Elec       q    Type
REMARK                         _______ _______ _______ _____ _____    ______ ____
ROOT
ATOM      1  C   UNL     1     -35.344  21.919   3.611  0.00  0.00    +0.147 C 
ATOM      2  C   UNL     1     -35.541  22.186   4.965  0.00  0.00    +0.038 C 
ATOM      3  C   UNL     1     -35.172  22.970   2.711  0.00  0.00    +0.038 C 
ATOM      4  C   UNL     1     -35.391  24.555   4.520  0.00  0.00    +0.038 C 
ATOM      5  C   UNL     1     -35.564  23.505   5.420  0.00  0.00    +0.006 C 
ATOM      6  C   UNL     1     -35.195  24.289   3.166  0.00  0.00    +0.006 C 
ENDROOT
BRANCH   4   8
ATOM      7  O   UNL     1     -36.073  26.234   6.001  0.00  0.00    -0.288 OA
ATOM      8  C   UNL     1     -35.414  25.930   4.995  0.00  0.00    +0.210 C 
BRANCH   8  11
ATOM      9  N   UNL     1     -35.187  27.892   3.395  0.00  0.00    -0.312 N 
ATOM     10  N   UNL     1     -33.388  27.262   4.537  0.00  0.00    -0.312 N 
ATOM     11  C   UNL     1     -34.661  27.025   4.312  0.00  0.00    +0.208 C 
ATOM     12  C   UNL     1     -34.187  28.744   3.003  0.00  0.00    +0.059 C 
ATOM     13  C   UNL     1     -33.074  28.331   3.730  0.00  0.00    +0.059 C 
ATOM     14  C   UNL     1     -34.161  29.811   2.102  0.00  0.00    +0.016 C 
ATOM     15  C   UNL     1     -31.854  29.008   3.562  0.00  0.00    +0.016 C 
ATOM     16  C   UNL     1     -32.939  30.473   1.947  0.00  0.00    +0.001 C 
ATOM     17  C   UNL     1     -31.805  30.081   2.662  0.00  0.00    +0.001 C 
ATOM     18  H   UNL     1     -36.117  27.902   3.073  0.00  0.00    +0.149 HD
ATOM     19  H   UNL     1     -32.789  26.779   5.151  0.00  0.00    +0.149 HD
ENDBRANCH   8  11
ENDBRANCH   4   8
BRANCH   1  20
ATOM     20  O   UNL     1     -35.322  20.613   3.160  0.00  0.00    -0.435 OA
BRANCH  20  24
ATOM     21  N   UNL     1     -35.659  19.648  -0.322  0.00  0.00    -0.242 NA
ATOM     22  N   UNL     1     -37.214  20.565   1.826  0.00  0.00    -0.207 NA
ATOM     23  C   UNL     1     -35.124  19.905   0.887  0.00  0.00    +0.112 C 
ATOM     24  C   UNL     1     -35.887  20.355   1.942  0.00  0.00    +0.243 C 
ATOM     25  C   UNL     1     -36.986  19.856  -0.439  0.00  0.00    +0.119 C 
ATOM     26  C   UNL     1     -37.750  20.307   0.616  0.00  0.00    +0.123 C 
BRANCH  23  29
ATOM     27  O   UNL     1     -29.561  18.633  -1.592  0.00  0.00    -0.275 OA
ATOM     28  N   UNL     1     -31.060  18.648   0.182  0.00  0.00    -0.280 N 
ATOM     29  C   UNL     1     -33.632  19.676   1.037  0.00  0.00    +0.048 C 
ATOM     30  C   UNL     1     -33.284  18.178   1.135  0.00  0.00    +0.028 C 
ATOM     31  C   UNL     1     -32.827  20.340  -0.097  0.00  0.00    +0.028 C 
ATOM     32  C   UNL     1     -31.776  17.972   1.270  0.00  0.00    +0.094 C 
ATOM     33  C   UNL     1     -31.331  20.082   0.069  0.00  0.00    +0.094 C 
ATOM     34  C   UNL     1     -30.164  18.039  -0.696  0.00  0.00    +0.226 C 
ATOM     35  C   UNL     1     -29.942  16.558  -0.516  0.00  0.00    +0.095 C 
ENDBRANCH  23  29
ENDBRANCH  20  24
ENDBRANCH   1  20
TORSDOF 5
ENDMDL
MODEL 4
REMARK VINA RESULT:      -7.5      6.010      9.435
REMARK  Name = 59351313
REMARK  5 active torsions:
REMARK  status: ('A' for Active; 'I' for Inactive)
REMARK    1  A    between atoms: C_1  and  O_20
REMARK    2  A    between atoms: C_4  and  C_8
REMARK    3  A    between atoms: C_8  and  C_11
REMARK    4  A    between atoms: O_20  and  C_24
REMARK    5  A    between atoms: C_23  and  C_29
REMARK                            x       y       z     vdW  Elec       q    Type
REMARK                         _______ _______ _______ _____ _____    ______ ____
ROOT
ATOM      1  C   UNL     1     -34.260  29.558   1.865  0.00  0.00    +0.147 C 
ATOM      2  C   UNL     1     -35.212  30.235   2.626  0.00  0.00    +0.038 C 
ATOM      3  C   UNL     1     -33.831  30.091   0.650  0.00  0.00    +0.038 C 
ATOM      4  C   UNL     1     -35.306  31.980   0.959  0.00  0.00    +0.038 C 
ATOM      5  C   UNL     1     -35.735  31.447   2.173  0.00  0.00    +0.006 C 
ATOM      6  C   UNL     1     -34.354  31.303   0.197  0.00  0.00    +0.006 C 
ENDROOT
BRANCH   4   8
ATOM      7  O   UNL     1     -35.205  33.944  -0.309  0.00  0.00    -0.288 OA
ATOM      8  C   UNL     1     -35.849  33.244   0.487  0.00  0.00    +0.210 C 
BRANCH   8  11
ATOM      9  N   UNL     1     -38.390  33.223   0.564  0.00  0.00    -0.312 N 
ATOM     10  N   UNL     1     -37.322  34.792   1.721  0.00  0.00    -0.312 N 
ATOM     11  C   UNL     1     -37.183  33.755   0.925  0.00  0.00    +0.208 C 
ATOM     12  C   UNL     1     -39.372  33.966   1.168  0.00  0.00    +0.059 C 
ATOM     13  C   UNL     1     -38.680  34.939   1.884  0.00  0.00    +0.059 C 
ATOM     14  C   UNL     1     -40.765  33.873   1.149  0.00  0.00    +0.016 C 
ATOM     15  C   UNL     1     -39.403  35.883   2.633  0.00  0.00    +0.016 C 
ATOM     16  C   UNL     1     -41.468  34.822   1.899  0.00  0.00    +0.001 C 
ATOM     17  C   UNL     1     -40.802  35.809   2.628  0.00  0.00    +0.001 C 
ATOM     18  H   UNL     1     -38.529  32.447  -0.025  0.00  0.00    +0.149 HD
ATOM     19  H   UNL     1     -36.608  35.343   2.116  0.00  0.00    +0.149 HD
ENDBRANCH   8  11
ENDBRANCH   4   8
BRANCH   1  20
ATOM     20  O   UNL     1     -33.742  28.357   2.314  0.00  0.00    -0.435 OA
BRANCH  20  24
ATOM     21  N   UNL     1     -32.644  27.455   5.653  0.00  0.00    -0.242 NA
ATOM     22  N   UNL     1     -32.090  29.313   3.624  0.00  0.00    -0.207 NA
ATOM     23  C   UNL     1     -33.316  27.459   4.485  0.00  0.00    +0.112 C 
ATOM     24  C   UNL     1     -33.045  28.371   3.489  0.00  0.00    +0.243 C 
ATOM     25  C   UNL     1     -31.688  28.397   5.788  0.00  0.00    +0.119 C 
ATOM     26  C   UNL     1     -31.416  29.309   4.792  0.00  0.00    +0.123 C 
BRANCH  23  29
ATOM     27  O   UNL     1     -36.104  22.209   6.324  0.00  0.00    -0.275 OA
ATOM     28  N   UNL     1     -35.544  23.772   4.701  0.00  0.00    -0.280 N 
ATOM     29  C   UNL     1     -34.396  26.407   4.315  0.00  0.00    +0.048 C 
ATOM     30  C   UNL     1     -33.888  25.178   3.536  0.00  0.00    +0.028 C 
ATOM     31  C   UNL     1     -34.999  25.973   5.664  0.00  0.00    +0.028 C 
ATOM     32  C   UNL     1     -34.987  24.126   3.390  0.00  0.00    +0.094 C 
ATOM     33  C   UNL     1     -36.071  24.903   5.466  0.00  0.00    +0.094 C 
ATOM     34  C   UNL     1     -35.615  22.483   5.227  0.00  0.00    +0.226 C 
ATOM     35  C   UNL     1     -35.046  21.374   4.377  0.00  0.00    +0.095 C 
ENDBRANCH  23  29
ENDBRANCH  20  24
ENDBRANCH   1  20
TORSDOF 5
ENDMDL
MODEL 5
REMARK VINA RESULT:      -7.5      3.526      9.075
REMARK  Name = 59351313
REMARK  5 active torsions:
REMARK  status: ('A' for Active; 'I' for Inactive)
REMARK    1  A    between atoms: C_1  and  O_20
REMARK    2  A    between atoms: C_4  and  C_8
REMARK    3  A    between atoms: C_8  and  C_11
REMARK    4  A    between atoms: O_20  and  C_24
REMARK    5  A    between atoms: C_23  and  C_29
REMARK                            x       y       z     vdW  Elec       q    Type
REMARK                         _______ _______ _______ _____ _____    ______ ____
ROOT
ATOM      1  C   UNL     1     -33.668  26.574   4.777  0.00  0.00    +0.147 C 
ATOM      2  C   UNL     1     -34.381  26.240   5.928  0.00  0.00    +0.038 C 
ATOM      3  C   UNL     1     -33.625  25.688   3.701  0.00  0.00    +0.038 C 
ATOM      4  C   UNL     1     -35.010  24.134   4.926  0.00  0.00    +0.038 C 
ATOM      5  C   UNL     1     -35.053  25.019   6.002  0.00  0.00    +0.006 C 
ATOM      6  C   UNL     1     -34.297  24.468   3.776  0.00  0.00    +0.006 C 
ENDROOT
BRANCH   4   8
ATOM      7  O   UNL     1     -35.885  22.308   6.099  0.00  0.00    -0.288 OA
ATOM      8  C   UNL     1     -35.712  22.862   5.003  0.00  0.00    +0.210 C 
BRANCH   8  11
ATOM      9  N   UNL     1     -35.658  21.113   3.159  0.00  0.00    -0.312 N 
ATOM     10  N   UNL     1     -37.374  22.525   3.210  0.00  0.00    -0.312 N 
ATOM     11  C   UNL     1     -36.250  22.170   3.793  0.00  0.00    +0.208 C 
ATOM     12  C   UNL     1     -36.452  20.763   2.098  0.00  0.00    +0.059 C 
ATOM     13  C   UNL     1     -37.517  21.658   2.151  0.00  0.00    +0.059 C 
ATOM     14  C   UNL     1     -36.335  19.768   1.125  0.00  0.00    +0.016 C 
ATOM     15  C   UNL     1     -38.534  21.573   1.186  0.00  0.00    +0.016 C 
ATOM     16  C   UNL     1     -37.356  19.698   0.172  0.00  0.00    +0.001 C 
ATOM     17  C   UNL     1     -38.437  20.582   0.200  0.00  0.00    +0.001 C 
ATOM     18  H   UNL     1     -34.812  20.681   3.418  0.00  0.00    +0.149 HD
ATOM     19  H   UNL     1     -37.981  23.253   3.475  0.00  0.00    +0.149 HD
ENDBRANCH   8  11
ENDBRANCH   4   8
BRANCH   1  20
ATOM     20  O   UNL     1     -33.002  27.783   4.704  0.00  0.00    -0.435 OA
BRANCH  20  24
ATOM     21  N   UNL     1     -32.709  30.231   2.041  0.00  0.00    -0.242 NA
ATOM     22  N   UNL     1     -34.653  28.701   3.365  0.00  0.00    -0.207 NA
ATOM     23  C   UNL     1     -32.392  29.384   3.040  0.00  0.00    +0.112 C 
ATOM     24  C   UNL     1     -33.346  28.633   3.691  0.00  0.00    +0.243 C 
ATOM     25  C   UNL     1     -34.015  30.299   1.714  0.00  0.00    +0.119 C 
ATOM     26  C   UNL     1     -34.969  29.547   2.364  0.00  0.00    +0.123 C 
BRANCH  23  29
ATOM     27  O   UNL     1     -27.653  26.322   5.664  0.00  0.00    -0.275 OA
ATOM     28  N   UNL     1     -28.702  28.278   4.979  0.00  0.00    -0.280 N 
ATOM     29  C   UNL     1     -30.926  29.295   3.422  0.00  0.00    +0.048 C 
ATOM     30  C   UNL     1     -30.679  29.747   4.874  0.00  0.00    +0.028 C 
ATOM     31  C   UNL     1     -30.355  27.882   3.196  0.00  0.00    +0.028 C 
ATOM     32  C   UNL     1     -29.199  29.634   5.240  0.00  0.00    +0.094 C 
ATOM     33  C   UNL     1     -28.884  27.815   3.602  0.00  0.00    +0.094 C 
ATOM     34  C   UNL     1     -28.079  27.452   5.914  0.00  0.00    +0.226 C 
ATOM     35  C   UNL     1     -27.933  28.003   7.310  0.00  0.00    +0.095 C 
ENDBRANCH  23  29
ENDBRANCH  20  24
ENDBRANCH   1  20
TORSDOF 5
ENDMDL
MODEL 6
REMARK VINA RESULT:      -7.4      2.329      8.389
REMARK  Name = 59351313
REMARK  5 active torsions:
REMARK  status: ('A' for Active; 'I' for Inactive)
REMARK    1  A    between atoms: C_1  and  O_20
REMARK    2  A    between atoms: C_4  and  C_8
REMARK    3  A    between atoms: C_8  and  C_11
REMARK    4  A    between atoms: O_20  and  C_24
REMARK    5  A    between atoms: C_23  and  C_29
REMARK                            x       y       z     vdW  Elec       q    Type
REMARK                         _______ _______ _______ _____ _____    ______ ____
ROOT
ATOM      1  C   UNL     1     -36.804  22.128   2.998  0.00  0.00    +0.147 C 
ATOM      2  C   UNL     1     -37.422  21.660   1.839  0.00  0.00    +0.038 C 
ATOM      3  C   UNL     1     -35.565  21.619   3.383  0.00  0.00    +0.038 C 
ATOM      4  C   UNL     1     -35.560  20.172   1.448  0.00  0.00    +0.038 C 
ATOM      5  C   UNL     1     -36.799  20.682   1.064  0.00  0.00    +0.006 C 
ATOM      6  C   UNL     1     -34.942  20.641   2.607  0.00  0.00    +0.006 C 
ENDROOT
BRANCH   4   8
ATOM      7  O   UNL     1     -35.588  18.334   0.001  0.00  0.00    -0.288 OA
ATOM      8  C   UNL     1     -34.909  19.154   0.638  0.00  0.00    +0.210 C 
BRANCH   8  11
ATOM      9  N   UNL     1     -32.614  19.904  -0.156  0.00  0.00    -0.312 N 
ATOM     10  N   UNL     1     -32.738  18.081   1.111  0.00  0.00    -0.312 N 
ATOM     11  C   UNL     1     -33.424  19.043   0.533  0.00  0.00    +0.208 C 
ATOM     12  C   UNL     1     -31.322  19.467  -0.013  0.00  0.00    +0.059 C 
ATOM     13  C   UNL     1     -31.426  18.329   0.781  0.00  0.00    +0.059 C 
ATOM     14  C   UNL     1     -30.107  19.958  -0.497  0.00  0.00    +0.016 C 
ATOM     15  C   UNL     1     -30.260  17.624   1.125  0.00  0.00    +0.016 C 
ATOM     16  C   UNL     1     -28.957  19.243  -0.145  0.00  0.00    +0.001 C 
ATOM     17  C   UNL     1     -29.029  18.098   0.651  0.00  0.00    +0.001 C 
ATOM     18  H   UNL     1     -32.908  20.694  -0.665  0.00  0.00    +0.149 HD
ATOM     19  H   UNL     1     -33.089  17.344   1.660  0.00  0.00    +0.149 HD
ENDBRANCH   8  11
ENDBRANCH   4   8
BRANCH   1  20
ATOM     20  O   UNL     1     -37.422  23.097   3.768  0.00  0.00    -0.435 OA
BRANCH  20  24
ATOM     21  N   UNL     1     -37.556  26.444   2.371  0.00  0.00    -0.242 NA
ATOM     22  N   UNL     1     -39.145  24.146   2.631  0.00  0.00    -0.207 NA
ATOM     23  C   UNL     1     -37.112  25.336   2.997  0.00  0.00    +0.112 C 
ATOM     24  C   UNL     1     -37.892  24.208   3.125  0.00  0.00    +0.243 C 
ATOM     25  C   UNL     1     -38.809  26.382   1.876  0.00  0.00    +0.119 C 
ATOM     26  C   UNL     1     -39.589  25.254   2.004  0.00  0.00    +0.123 C 
BRANCH  23  29
ATOM     27  O   UNL     1     -32.563  28.390   5.945  0.00  0.00    -0.275 OA
ATOM     28  N   UNL     1     -33.319  26.755   4.480  0.00  0.00    -0.280 N 
ATOM     29  C   UNL     1     -35.705  25.387   3.560  0.00  0.00    +0.048 C 
ATOM     30  C   UNL     1     -34.712  26.036   2.577  0.00  0.00    +0.028 C 
ATOM     31  C   UNL     1     -35.652  26.103   4.924  0.00  0.00    +0.028 C 
ATOM     32  C   UNL     1     -33.304  26.090   3.171  0.00  0.00    +0.094 C 
ATOM     33  C   UNL     1     -34.224  26.154   5.461  0.00  0.00    +0.094 C 
ATOM     34  C   UNL     1     -32.545  27.860   4.832  0.00  0.00    +0.226 C 
ATOM     35  C   UNL     1     -31.642  28.421   3.763  0.00  0.00    +0.095 C 
ENDBRANCH  23  29
ENDBRANCH  20  24
ENDBRANCH   1  20
TORSDOF 5
ENDMDL
MODEL 7
REMARK VINA RESULT:      -7.4      2.663      3.669
REMARK  Name = 59351313
REMARK  5 active torsions:
REMARK  status: ('A' for Active; 'I' for Inactive)
REMARK    1  A    between atoms: C_1  and  O_20
REMARK    2  A    between atoms: C_4  and  C_8
REMARK    3  A    between atoms: C_8  and  C_11
REMARK    4  A    between atoms: O_20  and  C_24
REMARK    5  A    between atoms: C_23  and  C_29
REMARK                            x       y       z     vdW  Elec       q    Type
REMARK                         _______ _______ _______ _____ _____    ______ ____
ROOT
ATOM      1  C   UNL     1     -34.811  24.409   4.377  0.00  0.00    +0.147 C 
ATOM      2  C   UNL     1     -34.103  24.893   3.277  0.00  0.00    +0.038 C 
ATOM      3  C   UNL     1     -34.757  25.087   5.594  0.00  0.00    +0.038 C 
ATOM      4  C   UNL     1     -33.285  26.732   4.612  0.00  0.00    +0.038 C 
ATOM      5  C   UNL     1     -33.340  26.054   3.395  0.00  0.00    +0.006 C 
ATOM      6  C   UNL     1     -33.994  26.249   5.712  0.00  0.00    +0.006 C 
ENDROOT
BRANCH   4   8
ATOM      7  O   UNL     1     -31.475  27.958   5.446  0.00  0.00    -0.288 OA
ATOM      8  C   UNL     1     -32.491  27.945   4.735  0.00  0.00    +0.210 C 
BRANCH   8  11
ATOM      9  N   UNL     1     -34.074  29.498   3.493  0.00  0.00    -0.312 N 
ATOM     10  N   UNL     1     -31.991  30.190   3.844  0.00  0.00    -0.312 N 
ATOM     11  C   UNL     1     -32.848  29.210   4.026  0.00  0.00    +0.208 C 
ATOM     12  C   UNL     1     -34.004  30.747   2.931  0.00  0.00    +0.059 C 
ATOM     13  C   UNL     1     -32.694  31.158   3.163  0.00  0.00    +0.059 C 
ATOM     14  C   UNL     1     -34.946  31.529   2.261  0.00  0.00    +0.016 C 
ATOM     15  C   UNL     1     -32.281  32.421   2.706  0.00  0.00    +0.016 C 
ATOM     16  C   UNL     1     -34.517  32.782   1.812  0.00  0.00    +0.001 C 
ATOM     17  C   UNL     1     -33.210  33.223   2.030  0.00  0.00    +0.001 C 
ATOM     18  H   UNL     1     -34.865  28.913   3.510  0.00  0.00    +0.149 HD
ATOM     19  H   UNL     1     -31.051  30.224   4.132  0.00  0.00    +0.149 HD
ENDBRANCH   8  11
ENDBRANCH   4   8
BRANCH   1  20
ATOM     20  O   UNL     1     -35.567  23.258   4.260  0.00  0.00    -0.435 OA
BRANCH  20  24
ATOM     21  N   UNL     1     -37.511  22.591   1.270  0.00  0.00    -0.242 NA
ATOM     22  N   UNL     1     -37.700  23.969   3.706  0.00  0.00    -0.207 NA
ATOM     23  C   UNL     1     -36.507  22.591   2.169  0.00  0.00    +0.112 C 
ATOM     24  C   UNL     1     -36.600  23.268   3.365  0.00  0.00    +0.243 C 
ATOM     25  C   UNL     1     -38.612  23.291   1.611  0.00  0.00    +0.119 C 
ATOM     26  C   UNL     1     -38.704  23.967   2.807  0.00  0.00    +0.123 C 
BRANCH  23  29
ATOM     27  O   UNL     1     -33.347  18.977  -1.789  0.00  0.00    -0.275 OA
ATOM     28  N   UNL     1     -33.807  19.766   0.346  0.00  0.00    -0.280 N 
ATOM     29  C   UNL     1     -35.261  21.809   1.802  0.00  0.00    +0.048 C 
ATOM     30  C   UNL     1     -35.393  20.314   2.152  0.00  0.00    +0.028 C 
ATOM     31  C   UNL     1     -34.885  21.980   0.317  0.00  0.00    +0.028 C 
ATOM     32  C   UNL     1     -34.132  19.544   1.761  0.00  0.00    +0.094 C 
ATOM     33  C   UNL     1     -33.637  21.171  -0.029  0.00  0.00    +0.094 C 
ATOM     34  C   UNL     1     -33.638  18.765  -0.610  0.00  0.00    +0.226 C 
ATOM     35  C   UNL     1     -33.833  17.345  -0.143  0.00  0.00    +0.095 C 
ENDBRANCH  23  29
ENDBRANCH  20  24
ENDBRANCH   1  20
TORSDOF 5
ENDMDL
MODEL 8
REMARK VINA RESULT:      -7.4      4.934     10.125
REMARK  Name = 59351313
REMARK  5 active torsions:
REMARK  status: ('A' for Active; 'I' for Inactive)
REMARK    1  A    between atoms: C_1  and  O_20
REMARK    2  A    between atoms: C_4  and  C_8
REMARK    3  A    between atoms: C_8  and  C_11
REMARK    4  A    between atoms: O_20  and  C_24
REMARK    5  A    between atoms: C_23  and  C_29
REMARK                            x       y       z     vdW  Elec       q    Type
REMARK                         _______ _______ _______ _____ _____    ______ ____
ROOT
ATOM      1  C   UNL     1     -33.222  26.514   3.758  0.00  0.00    +0.147 C 
ATOM      2  C   UNL     1     -33.843  26.305   4.989  0.00  0.00    +0.038 C 
ATOM      3  C   UNL     1     -33.712  25.885   2.614  0.00  0.00    +0.038 C 
ATOM      4  C   UNL     1     -35.446  24.839   3.931  0.00  0.00    +0.038 C 
ATOM      5  C   UNL     1     -34.956  25.468   5.075  0.00  0.00    +0.006 C 
ATOM      6  C   UNL     1     -34.824  25.048   2.700  0.00  0.00    +0.006 C 
ENDROOT
BRANCH   4   8
ATOM      7  O   UNL     1     -36.526  22.876   4.604  0.00  0.00    -0.288 OA
ATOM      8  C   UNL     1     -36.607  23.968   4.021  0.00  0.00    +0.210 C 
BRANCH   8  11
ATOM      9  N   UNL     1     -38.521  23.703   2.369  0.00  0.00    -0.312 N 
ATOM     10  N   UNL     1     -38.666  25.321   3.887  0.00  0.00    -0.312 N 
ATOM     11  C   UNL     1     -37.929  24.333   3.429  0.00  0.00    +0.208 C 
ATOM     12  C   UNL     1     -39.718  24.326   2.128  0.00  0.00    +0.059 C 
ATOM     13  C   UNL     1     -39.786  25.332   3.087  0.00  0.00    +0.059 C 
ATOM     14  C   UNL     1     -40.719  24.102   1.180  0.00  0.00    +0.016 C 
ATOM     15  C   UNL     1     -40.910  26.175   3.120  0.00  0.00    +0.016 C 
ATOM     16  C   UNL     1     -41.830  24.951   1.227  0.00  0.00    +0.001 C 
ATOM     17  C   UNL     1     -41.926  25.968   2.178  0.00  0.00    +0.001 C 
ATOM     18  H   UNL     1     -38.153  22.940   1.869  0.00  0.00    +0.149 HD
ATOM     19  H   UNL     1     -38.460  25.922   4.638  0.00  0.00    +0.149 HD
ENDBRANCH   8  11
ENDBRANCH   4   8
BRANCH   1  20
ATOM     20  O   UNL     1     -32.119  27.343   3.673  0.00  0.00    -0.435 OA
BRANCH  20  24
ATOM     21  N   UNL     1     -32.400  30.583   5.283  0.00  0.00    -0.242 NA
ATOM     22  N   UNL     1     -31.361  28.019   5.753  0.00  0.00    -0.207 NA
ATOM     23  C   UNL     1     -32.509  29.591   4.377  0.00  0.00    +0.112 C 
ATOM     24  C   UNL     1     -31.999  28.332   4.608  0.00  0.00    +0.243 C 
ATOM     25  C   UNL     1     -31.763  30.270   6.430  0.00  0.00    +0.119 C 
ATOM     26  C   UNL     1     -31.253  29.011   6.660  0.00  0.00    +0.123 C 
BRANCH  23  29
ATOM     27  O   UNL     1     -35.688  33.581   0.814  0.00  0.00    -0.275 OA
ATOM     28  N   UNL     1     -35.095  31.429   1.456  0.00  0.00    -0.280 N 
ATOM     29  C   UNL     1     -33.223  29.925   3.081  0.00  0.00    +0.048 C 
ATOM     30  C   UNL     1     -34.745  29.710   3.188  0.00  0.00    +0.028 C 
ATOM     31  C   UNL     1     -32.917  31.358   2.604  0.00  0.00    +0.028 C 
ATOM     32  C   UNL     1     -35.444  30.066   1.876  0.00  0.00    +0.094 C 
ATOM     33  C   UNL     1     -33.659  31.673   1.307  0.00  0.00    +0.094 C 
ATOM     34  C   UNL     1     -36.006  32.448   1.183  0.00  0.00    +0.226 C 
ATOM     35  C   UNL     1     -37.466  32.116   1.364  0.00  0.00    +0.095 C 
ENDBRANCH  23  29
ENDBRANCH  20  24
ENDBRANCH   1  20
TORSDOF 5
ENDMDL
MODEL 9
REMARK VINA RESULT:      -7.4      5.497      8.944
REMARK  Name = 59351313
REMARK  5 active torsions:
REMARK  status: ('A' for Active; 'I' for Inactive)
REMARK    1  A    between atoms: C_1  and  O_20
REMARK    2  A    between atoms: C_4  and  C_8
REMARK    3  A    between atoms: C_8  and  C_11
REMARK    4  A    between atoms: O_20  and  C_24
REMARK    5  A    between atoms: C_23  and  C_29
REMARK                            x       y       z     vdW  Elec       q    Type
REMARK                         _______ _______ _______ _____ _____    ______ ____
ROOT
ATOM      1  C   UNL     1     -34.372  29.111   2.247  0.00  0.00    +0.147 C 
ATOM      2  C   UNL     1     -35.133  29.117   1.078  0.00  0.00    +0.038 C 
ATOM      3  C   UNL     1     -34.520  30.137   3.180  0.00  0.00    +0.038 C 
ATOM      4  C   UNL     1     -36.190  31.173   1.777  0.00  0.00    +0.038 C 
ATOM      5  C   UNL     1     -36.043  30.148   0.843  0.00  0.00    +0.006 C 
ATOM      6  C   UNL     1     -35.429  31.168   2.945  0.00  0.00    +0.006 C 
ENDROOT
BRANCH   4   8
ATOM      7  O   UNL     1     -38.360  32.027   1.577  0.00  0.00    -0.288 OA
ATOM      8  C   UNL     1     -37.140  32.248   1.533  0.00  0.00    +0.210 C 
BRANCH   8  11
ATOM      9  N   UNL     1     -35.415  34.042   1.014  0.00  0.00    -0.312 N 
ATOM     10  N   UNL     1     -37.553  34.645   1.118  0.00  0.00    -0.312 N 
ATOM     11  C   UNL     1     -36.707  33.644   1.222  0.00  0.00    +0.208 C 
ATOM     12  C   UNL     1     -35.429  35.389   0.758  0.00  0.00    +0.059 C 
ATOM     13  C   UNL     1     -36.774  35.742   0.828  0.00  0.00    +0.059 C 
ATOM     14  C   UNL     1     -34.410  36.302   0.479  0.00  0.00    +0.016 C 
ATOM     15  C   UNL     1     -37.144  37.080   0.610  0.00  0.00    +0.016 C 
ATOM     16  C   UNL     1     -34.797  37.629   0.265  0.00  0.00    +0.001 C 
ATOM     17  C   UNL     1     -36.138  38.013   0.328  0.00  0.00    +0.001 C 
ATOM     18  H   UNL     1     -34.619  33.465   1.044  0.00  0.00    +0.149 HD
ATOM     19  H   UNL     1     -38.530  34.616   1.223  0.00  0.00    +0.149 HD
ENDBRANCH   8  11
ENDBRANCH   4   8
BRANCH   1  20
ATOM     20  O   UNL     1     -33.470  28.090   2.480  0.00  0.00    -0.435 OA
BRANCH  20  24
ATOM     21  N   UNL     1     -32.476  27.229   5.862  0.00  0.00    -0.242 NA
ATOM     22  N   UNL     1     -31.800  29.003   3.796  0.00  0.00    -0.207 NA
ATOM     23  C   UNL     1     -33.126  27.231   4.682  0.00  0.00    +0.112 C 
ATOM     24  C   UNL     1     -32.794  28.103   3.667  0.00  0.00    +0.243 C 
ATOM     25  C   UNL     1     -31.480  28.128   5.991  0.00  0.00    +0.119 C 
ATOM     26  C   UNL     1     -31.148  29.000   4.977  0.00  0.00    +0.123 C 
BRANCH  23  29
ATOM     27  O   UNL     1     -36.100  22.083   6.515  0.00  0.00    -0.275 OA
ATOM     28  N   UNL     1     -35.499  23.637   4.897  0.00  0.00    -0.280 N 
ATOM     29  C   UNL     1     -34.250  26.226   4.518  0.00  0.00    +0.048 C 
ATOM     30  C   UNL     1     -33.804  24.985   3.721  0.00  0.00    +0.028 C 
ATOM     31  C   UNL     1     -34.852  25.804   5.872  0.00  0.00    +0.028 C 
ATOM     32  C   UNL     1     -34.947  23.980   3.581  0.00  0.00    +0.094 C 
ATOM     33  C   UNL     1     -35.969  24.781   5.680  0.00  0.00    +0.094 C 
ATOM     34  C   UNL     1     -35.615  22.346   5.413  0.00  0.00    +0.226 C 
ATOM     35  C   UNL     1     -35.105  21.224   4.545  0.00  0.00    +0.095 C 
ENDBRANCH  23  29
ENDBRANCH  20  24
ENDBRANCH   1  20
TORSDOF 5
ENDMDL
