MODEL 1
REMARK VINA RESULT:      -6.9      0.000      0.000
REMARK  Name = 5282120
REMARK  9 active torsions:
REMARK  status: ('A' for Active; 'I' for Inactive)
REMARK    1  A    between atoms: C_5  and  C_29
REMARK    2  A    between atoms: C_6  and  C_21
REMARK    3  A    between atoms: C_7  and  O_17
REMARK    4  A    between atoms: C_13  and  O_19
REMARK    5  A    between atoms: C_21  and  O_23
REMARK    6  A    between atoms: C_22  and  C_26
REMARK    7  A    between atoms: C_26  and  C_27
REMARK    8  A    between atoms: C_29  and  C_31
REMARK    9  A    between atoms: C_31  and  O_32
REMARK                            x       y       z     vdW  Elec       q    Type
REMARK                         _______ _______ _______ _____ _____    ______ ____
ROOT
ATOM      1  O   UNL     1     -41.039  22.339   0.220  0.00  0.00    -0.286 OA
ATOM      2  O   UNL     1     -39.188  26.298   3.295  0.00  0.00    -0.287 OA
ATOM      3  C   UNL     1     -39.299  23.126   1.590  0.00  0.00    +0.076 C 
ATOM      4  C   UNL     1     -38.816  24.160   2.393  0.00  0.00    +0.045 C 
ATOM      5  C   UNL     1     -36.813  22.878   2.841  0.00  0.00    -0.005 C 
ATOM      6  C   UNL     1     -37.294  21.845   2.038  0.00  0.00    +0.064 C 
ATOM      7  C   UNL     1     -38.535  21.965   1.412  0.00  0.00    +0.139 C 
ATOM      8  C   UNL     1     -37.570  24.035   3.020  0.00  0.00    -0.000 C 
ATOM      9  C   UNL     1     -41.407  24.474   1.121  0.00  0.00    +0.076 C 
ATOM     10  C   UNL     1     -40.925  25.509   1.924  0.00  0.00    +0.045 C 
ATOM     11  C   UNL     1     -40.611  23.244   0.924  0.00  0.00    +0.202 C 
ATOM     12  C   UNL     1     -39.611  25.390   2.590  0.00  0.00    +0.196 C 
ATOM     13  C   UNL     1     -42.654  24.598   0.496  0.00  0.00    +0.137 C 
ATOM     14  C   UNL     1     -41.688  26.668   2.104  0.00  0.00    +0.003 C 
ATOM     15  C   UNL     1     -43.412  25.755   0.676  0.00  0.00    +0.037 C 
ATOM     16  C   UNL     1     -42.930  26.788   1.479  0.00  0.00    +0.003 C 
ENDROOT
BRANCH   7  17
ATOM     17  O   UNL     1     -38.971  20.930   0.634  0.00  0.00    -0.505 OA
ATOM     18  H   UNL     1     -38.480  20.672  -0.121  0.00  0.00    +0.292 HD
ENDBRANCH   7  17
BRANCH  13  19
ATOM     19  O   UNL     1     -43.186  23.629  -0.303  0.00  0.00    -0.505 OA
ATOM     20  H   UNL     1     -43.532  23.853  -1.144  0.00  0.00    +0.292 HD
ENDBRANCH  13  19
BRANCH   6  21
ATOM     21  C   UNL     1     -36.497  20.635   1.856  0.00  0.00    +0.139 C 
ATOM     22  C   UNL     1     -35.478  20.572   0.968  0.00  0.00    +0.074 C 
BRANCH  21  23
ATOM     23  O   UNL     1     -36.889  19.567   2.648  0.00  0.00    -0.505 OA
ATOM     24  H   UNL     1     -37.633  19.650   3.212  0.00  0.00    +0.292 HD
ENDBRANCH  21  23
BRANCH  22  26
ATOM     25  O   UNL     1     -35.101  18.302   0.340  0.00  0.00    -0.291 OA
ATOM     26  C   UNL     1     -34.627  19.367   0.725  0.00  0.00    +0.176 C 
BRANCH  26  27
ATOM     27  C   UNL     1     -33.143  19.555   0.991  0.00  0.00    +0.069 C 
ATOM     28  C   UNL     1     -32.439  18.248   1.313  0.00  0.00    +0.009 C 
ENDBRANCH  26  27
ENDBRANCH  22  26
ENDBRANCH   6  21
BRANCH   5  29
ATOM     29  C   UNL     1     -35.489  22.782   3.530  0.00  0.00    +0.136 C 
BRANCH  29  31
ATOM     30  O   UNL     1     -35.841  22.894   5.937  0.00  0.00    -0.250 OA
ATOM     31  C   UNL     1     -35.583  22.235   4.939  0.00  0.00    +0.318 C 
BRANCH  31  32
ATOM     32  O   UNL     1     -35.341  20.898   4.978  0.00  0.00    -0.480 OA
ATOM     33  H   UNL     1     -34.461  20.579   4.920  0.00  0.00    +0.295 HD
ENDBRANCH  31  32
ENDBRANCH  29  31
ENDBRANCH   5  29
TORSDOF 9
ENDMDL
MODEL 2
REMARK VINA RESULT:      -6.7      5.051      7.715
REMARK  Name = 5282120
REMARK  9 active torsions:
REMARK  status: ('A' for Active; 'I' for Inactive)
REMARK    1  A    between atoms: C_5  and  C_29
REMARK    2  A    between atoms: C_6  and  C_21
REMARK    3  A    between atoms: C_7  and  O_17
REMARK    4  A    between atoms: C_13  and  O_19
REMARK    5  A    between atoms: C_21  and  O_23
REMARK    6  A    between atoms: C_22  and  C_26
REMARK    7  A    between atoms: C_26  and  C_27
REMARK    8  A    between atoms: C_29  and  C_31
REMARK    9  A    between atoms: C_31  and  O_32
REMARK                            x       y       z     vdW  Elec       q    Type
REMARK                         _______ _______ _______ _____ _____    ______ ____
ROOT
ATOM      1  O   UNL     1     -32.087  27.381   4.983  0.00  0.00    -0.286 OA
ATOM      2  O   UNL     1     -35.527  29.912   1.772  0.00  0.00    -0.287 OA
ATOM      3  C   UNL     1     -34.066  27.257   3.721  0.00  0.00    +0.076 C 
ATOM      4  C   UNL     1     -34.964  27.919   2.882  0.00  0.00    +0.045 C 
ATOM      5  C   UNL     1     -36.306  25.910   2.734  0.00  0.00    -0.005 C 
ATOM      6  C   UNL     1     -35.410  25.250   3.573  0.00  0.00    +0.064 C 
ATOM      7  C   UNL     1     -34.290  25.919   4.067  0.00  0.00    +0.139 C 
ATOM      8  C   UNL     1     -36.087  27.244   2.388  0.00  0.00    -0.000 C 
ATOM      9  C   UNL     1     -32.653  29.369   3.875  0.00  0.00    +0.076 C 
ATOM     10  C   UNL     1     -33.551  30.032   3.035  0.00  0.00    +0.045 C 
ATOM     11  C   UNL     1     -32.878  27.958   4.249  0.00  0.00    +0.202 C 
ATOM     12  C   UNL     1     -34.740  29.331   2.509  0.00  0.00    +0.196 C 
ATOM     13  C   UNL     1     -31.529  30.045   4.366  0.00  0.00    +0.137 C 
ATOM     14  C   UNL     1     -33.326  31.369   2.688  0.00  0.00    +0.003 C 
ATOM     15  C   UNL     1     -31.309  31.377   4.019  0.00  0.00    +0.037 C 
ATOM     16  C   UNL     1     -32.205  32.038   3.181  0.00  0.00    +0.003 C 
ENDROOT
BRANCH   7  17
ATOM     17  O   UNL     1     -33.436  25.235   4.885  0.00  0.00    -0.505 OA
ATOM     18  H   UNL     1     -33.135  24.382   4.640  0.00  0.00    +0.292 HD
ENDBRANCH   7  17
BRANCH  13  19
ATOM     19  O   UNL     1     -30.613  29.461   5.191  0.00  0.00    -0.505 OA
ATOM     20  H   UNL     1     -30.707  29.531   6.120  0.00  0.00    +0.292 HD
ENDBRANCH  13  19
BRANCH   6  21
ATOM     21  C   UNL     1     -35.645  23.853   3.930  0.00  0.00    +0.139 C 
ATOM     22  C   UNL     1     -35.203  22.831   3.162  0.00  0.00    +0.074 C 
BRANCH  21  23
ATOM     23  O   UNL     1     -36.370  23.675   5.097  0.00  0.00    -0.505 OA
ATOM     24  H   UNL     1     -35.930  23.439   5.890  0.00  0.00    +0.292 HD
ENDBRANCH  21  23
BRANCH  22  26
ATOM     25  O   UNL     1     -35.298  20.929   4.598  0.00  0.00    -0.291 OA
ATOM     26  C   UNL     1     -35.413  21.381   3.463  0.00  0.00    +0.176 C 
BRANCH  26  27
ATOM     27  C   UNL     1     -35.774  20.515   2.268  0.00  0.00    +0.069 C 
ATOM     28  C   UNL     1     -34.558  19.861   1.634  0.00  0.00    +0.009 C 
ENDBRANCH  26  27
ENDBRANCH  22  26
ENDBRANCH   6  21
BRANCH   5  29
ATOM     29  C   UNL     1     -37.515  25.224   2.184  0.00  0.00    +0.136 C 
BRANCH  29  31
ATOM     30  O   UNL     1     -39.573  26.481   2.527  0.00  0.00    -0.250 OA
ATOM     31  C   UNL     1     -38.798  25.607   2.891  0.00  0.00    +0.318 C 
BRANCH  31  32
ATOM     32  O   UNL     1     -39.001  24.856   4.006  0.00  0.00    -0.480 OA
ATOM     33  H   UNL     1     -38.639  23.993   4.063  0.00  0.00    +0.295 HD
ENDBRANCH  31  32
ENDBRANCH  29  31
ENDBRANCH   5  29
TORSDOF 9
ENDMDL
MODEL 3
REMARK VINA RESULT:      -6.7      2.545      5.052
REMARK  Name = 5282120
REMARK  9 active torsions:
REMARK  status: ('A' for Active; 'I' for Inactive)
REMARK    1  A    between atoms: C_5  and  C_29
REMARK    2  A    between atoms: C_6  and  C_21
REMARK    3  A    between atoms: C_7  and  O_17
REMARK    4  A    between atoms: C_13  and  O_19
REMARK    5  A    between atoms: C_21  and  O_23
REMARK    6  A    between atoms: C_22  and  C_26
REMARK    7  A    between atoms: C_26  and  C_27
REMARK    8  A    between atoms: C_29  and  C_31
REMARK    9  A    between atoms: C_31  and  O_32
REMARK                            x       y       z     vdW  Elec       q    Type
REMARK                         _______ _______ _______ _____ _____    ______ ____
ROOT
ATOM      1  O   UNL     1     -39.977  26.124   1.894  0.00  0.00    -0.286 OA
ATOM      2  O   UNL     1     -38.617  21.009   1.155  0.00  0.00    -0.287 OA
ATOM      3  C   UNL     1     -38.484  24.384   2.411  0.00  0.00    +0.076 C 
ATOM      4  C   UNL     1     -38.129  23.047   2.217  0.00  0.00    +0.045 C 
ATOM      5  C   UNL     1     -36.248  23.330   3.713  0.00  0.00    -0.005 C 
ATOM      6  C   UNL     1     -36.602  24.663   3.907  0.00  0.00    +0.064 C 
ATOM      7  C   UNL     1     -37.718  25.193   3.258  0.00  0.00    +0.139 C 
ATOM      8  C   UNL     1     -37.009  22.520   2.870  0.00  0.00    -0.000 C 
ATOM      9  C   UNL     1     -40.462  24.087   0.836  0.00  0.00    +0.076 C 
ATOM     10  C   UNL     1     -40.108  22.750   0.641  0.00  0.00    +0.045 C 
ATOM     11  C   UNL     1     -39.663  24.952   1.728  0.00  0.00    +0.202 C 
ATOM     12  C   UNL     1     -38.929  22.181   1.325  0.00  0.00    +0.196 C 
ATOM     13  C   UNL     1     -41.582  24.614   0.180  0.00  0.00    +0.137 C 
ATOM     14  C   UNL     1     -40.872  21.941  -0.207  0.00  0.00    +0.003 C 
ATOM     15  C   UNL     1     -42.341  23.805  -0.664  0.00  0.00    +0.037 C 
ATOM     16  C   UNL     1     -41.987  22.470  -0.858  0.00  0.00    +0.003 C 
ENDROOT
BRANCH   7  17
ATOM     17  O   UNL     1     -38.031  26.506   3.475  0.00  0.00    -0.505 OA
ATOM     18  H   UNL     1     -37.962  26.868   4.337  0.00  0.00    +0.292 HD
ENDBRANCH   7  17
BRANCH  13  19
ATOM     19  O   UNL     1     -41.986  25.909   0.325  0.00  0.00    -0.505 OA
ATOM     20  H   UNL     1     -42.812  26.100   0.723  0.00  0.00    +0.292 HD
ENDBRANCH  13  19
BRANCH   6  21
ATOM     21  C   UNL     1     -35.800  25.507   4.790  0.00  0.00    +0.139 C 
ATOM     22  C   UNL     1     -34.535  25.873   4.479  0.00  0.00    +0.074 C 
BRANCH  21  23
ATOM     23  O   UNL     1     -36.436  25.872   5.966  0.00  0.00    -0.505 OA
ATOM     24  H   UNL     1     -36.692  26.764   6.102  0.00  0.00    +0.292 HD
ENDBRANCH  21  23
BRANCH  22  26
ATOM     25  O   UNL     1     -33.636  26.618   6.559  0.00  0.00    -0.291 OA
ATOM     26  C   UNL     1     -33.656  26.727   5.336  0.00  0.00    +0.176 C 
BRANCH  26  27
ATOM     27  C   UNL     1     -32.798  27.733   4.589  0.00  0.00    +0.069 C 
ATOM     28  C   UNL     1     -31.898  28.534   5.515  0.00  0.00    +0.009 C 
ENDBRANCH  26  27
ENDBRANCH  22  26
ENDBRANCH   6  21
BRANCH   5  29
ATOM     29  C   UNL     1     -35.057  22.730   4.389  0.00  0.00    +0.136 C 
BRANCH  29  31
ATOM     30  O   UNL     1     -35.907  22.365   6.642  0.00  0.00    -0.250 OA
ATOM     31  C   UNL     1     -35.410  21.917   5.618  0.00  0.00    +0.318 C 
BRANCH  31  32
ATOM     32  O   UNL     1     -35.104  20.603   5.458  0.00  0.00    -0.480 OA
ATOM     33  H   UNL     1     -35.621  20.068   4.887  0.00  0.00    +0.295 HD
ENDBRANCH  31  32
ENDBRANCH  29  31
ENDBRANCH   5  29
TORSDOF 9
ENDMDL
MODEL 4
REMARK VINA RESULT:      -6.6      6.180      9.481
REMARK  Name = 5282120
REMARK  9 active torsions:
REMARK  status: ('A' for Active; 'I' for Inactive)
REMARK    1  A    between atoms: C_5  and  C_29
REMARK    2  A    between atoms: C_6  and  C_21
REMARK    3  A    between atoms: C_7  and  O_17
REMARK    4  A    between atoms: C_13  and  O_19
REMARK    5  A    between atoms: C_21  and  O_23
REMARK    6  A    between atoms: C_22  and  C_26
REMARK    7  A    between atoms: C_26  and  C_27
REMARK    8  A    between atoms: C_29  and  C_31
REMARK    9  A    between atoms: C_31  and  O_32
REMARK                            x       y       z     vdW  Elec       q    Type
REMARK                         _______ _______ _______ _____ _____    ______ ____
ROOT
ATOM      1  O   UNL     1     -31.644  27.670   6.643  0.00  0.00    -0.286 OA
ATOM      2  O   UNL     1     -31.974  30.267   1.985  0.00  0.00    -0.287 OA
ATOM      3  C   UNL     1     -32.730  27.873   4.569  0.00  0.00    +0.076 C 
ATOM      4  C   UNL     1     -32.815  28.552   3.352  0.00  0.00    +0.045 C 
ATOM      5  C   UNL     1     -34.642  27.114   2.679  0.00  0.00    -0.005 C 
ATOM      6  C   UNL     1     -34.558  26.437   3.894  0.00  0.00    +0.064 C 
ATOM      7  C   UNL     1     -33.604  26.813   4.840  0.00  0.00    +0.139 C 
ATOM      8  C   UNL     1     -33.774  28.171   2.406  0.00  0.00    -0.000 C 
ATOM      9  C   UNL     1     -30.807  29.383   5.276  0.00  0.00    +0.076 C 
ATOM     10  C   UNL     1     -30.892  30.063   4.059  0.00  0.00    +0.045 C 
ATOM     11  C   UNL     1     -31.723  28.264   5.576  0.00  0.00    +0.202 C 
ATOM     12  C   UNL     1     -31.900  29.672   3.053  0.00  0.00    +0.196 C 
ATOM     13  C   UNL     1     -29.846  29.763   6.222  0.00  0.00    +0.137 C 
ATOM     14  C   UNL     1     -30.017  31.121   3.787  0.00  0.00    +0.003 C 
ATOM     15  C   UNL     1     -28.977  30.819   5.947  0.00  0.00    +0.037 C 
ATOM     16  C   UNL     1     -29.062  31.496   4.732  0.00  0.00    +0.003 C 
ENDROOT
BRANCH   7  17
ATOM     17  O   UNL     1     -33.553  26.122   6.018  0.00  0.00    -0.505 OA
ATOM     18  H   UNL     1     -33.834  26.531   6.813  0.00  0.00    +0.292 HD
ENDBRANCH   7  17
BRANCH  13  19
ATOM     19  O   UNL     1     -29.707  29.146   7.430  0.00  0.00    -0.505 OA
ATOM     20  H   UNL     1     -29.389  29.627   8.168  0.00  0.00    +0.292 HD
ENDBRANCH  13  19
BRANCH   6  21
ATOM     21  C   UNL     1     -35.469  25.330   4.173  0.00  0.00    +0.139 C 
ATOM     22  C   UNL     1     -35.181  24.056   3.820  0.00  0.00    +0.074 C 
BRANCH  21  23
ATOM     23  O   UNL     1     -36.646  25.702   4.802  0.00  0.00    -0.505 OA
ATOM     24  H   UNL     1     -36.628  26.334   5.494  0.00  0.00    +0.292 HD
ENDBRANCH  21  23
BRANCH  22  26
ATOM     25  O   UNL     1     -37.219  22.829   3.644  0.00  0.00    -0.291 OA
ATOM     26  C   UNL     1     -36.068  22.878   4.068  0.00  0.00    +0.176 C 
BRANCH  26  27
ATOM     27  C   UNL     1     -35.445  21.754   4.879  0.00  0.00    +0.069 C 
ATOM     28  C   UNL     1     -35.220  22.139   6.331  0.00  0.00    +0.009 C 
ENDBRANCH  26  27
ENDBRANCH  22  26
ENDBRANCH   6  21
BRANCH   5  29
ATOM     29  C   UNL     1     -35.650  26.737   1.641  0.00  0.00    +0.136 C 
BRANCH  29  31
ATOM     30  O   UNL     1     -37.065  28.679   1.244  0.00  0.00    -0.250 OA
ATOM     31  C   UNL     1     -36.921  27.557   1.710  0.00  0.00    +0.318 C 
BRANCH  31  32
ATOM     32  O   UNL     1     -37.912  26.896   2.366  0.00  0.00    -0.480 OA
ATOM     33  H   UNL     1     -37.750  26.044   2.723  0.00  0.00    +0.295 HD
ENDBRANCH  31  32
ENDBRANCH  29  31
ENDBRANCH   5  29
TORSDOF 9
ENDMDL
MODEL 5
REMARK VINA RESULT:      -6.5      4.698      7.823
REMARK  Name = 5282120
REMARK  9 active torsions:
REMARK  status: ('A' for Active; 'I' for Inactive)
REMARK    1  A    between atoms: C_5  and  C_29
REMARK    2  A    between atoms: C_6  and  C_21
REMARK    3  A    between atoms: C_7  and  O_17
REMARK    4  A    between atoms: C_13  and  O_19
REMARK    5  A    between atoms: C_21  and  O_23
REMARK    6  A    between atoms: C_22  and  C_26
REMARK    7  A    between atoms: C_26  and  C_27
REMARK    8  A    between atoms: C_29  and  C_31
REMARK    9  A    between atoms: C_31  and  O_32
REMARK                            x       y       z     vdW  Elec       q    Type
REMARK                         _______ _______ _______ _____ _____    ______ ____
ROOT
ATOM      1  O   UNL     1     -34.094  28.262   2.212  0.00  0.00    -0.286 OA
ATOM      2  O   UNL     1     -32.658  26.612   7.087  0.00  0.00    -0.287 OA
ATOM      3  C   UNL     1     -34.339  26.646   3.901  0.00  0.00    +0.076 C 
ATOM      4  C   UNL     1     -33.964  26.216   5.175  0.00  0.00    +0.045 C 
ATOM      5  C   UNL     1     -35.438  24.308   4.964  0.00  0.00    -0.005 C 
ATOM      6  C   UNL     1     -35.812  24.737   3.692  0.00  0.00    +0.064 C 
ATOM      7  C   UNL     1     -35.266  25.904   3.158  0.00  0.00    +0.139 C 
ATOM      8  C   UNL     1     -34.515  25.044   5.707  0.00  0.00    -0.000 C 
ATOM      9  C   UNL     1     -32.791  28.654   4.123  0.00  0.00    +0.076 C 
ATOM     10  C   UNL     1     -32.415  28.225   5.398  0.00  0.00    +0.045 C 
ATOM     11  C   UNL     1     -33.766  27.881   3.328  0.00  0.00    +0.202 C 
ATOM     12  C   UNL     1     -32.988  26.989   5.970  0.00  0.00    +0.196 C 
ATOM     13  C   UNL     1     -32.241  29.828   3.593  0.00  0.00    +0.137 C 
ATOM     14  C   UNL     1     -31.491  28.967   6.141  0.00  0.00    +0.003 C 
ATOM     15  C   UNL     1     -31.319  30.565   4.336  0.00  0.00    +0.037 C 
ATOM     16  C   UNL     1     -30.945  30.135   5.608  0.00  0.00    +0.003 C 
ENDROOT
BRANCH   7  17
ATOM     17  O   UNL     1     -35.660  26.290   1.908  0.00  0.00    -0.505 OA
ATOM     18  H   UNL     1     -36.024  25.661   1.316  0.00  0.00    +0.292 HD
ENDBRANCH   7  17
BRANCH  13  19
ATOM     19  O   UNL     1     -32.561  30.305   2.355  0.00  0.00    -0.505 OA
ATOM     20  H   UNL     1     -33.402  30.687   2.204  0.00  0.00    +0.292 HD
ENDBRANCH  13  19
BRANCH   6  21
ATOM     21  C   UNL     1     -36.781  23.962   2.920  0.00  0.00    +0.139 C 
ATOM     22  C   UNL     1     -38.115  24.096   3.101  0.00  0.00    +0.074 C 
BRANCH  21  23
ATOM     23  O   UNL     1     -36.216  23.076   2.017  0.00  0.00    -0.505 OA
ATOM     24  H   UNL     1     -36.279  23.242   1.097  0.00  0.00    +0.292 HD
ENDBRANCH  21  23
BRANCH  22  26
ATOM     25  O   UNL     1     -39.059  22.128   2.138  0.00  0.00    -0.291 OA
ATOM     26  C   UNL     1     -39.161  23.332   2.353  0.00  0.00    +0.176 C 
BRANCH  26  27
ATOM     27  C   UNL     1     -40.350  24.151   1.880  0.00  0.00    +0.069 C 
ATOM     28  C   UNL     1     -40.431  25.507   2.560  0.00  0.00    +0.009 C 
ENDBRANCH  26  27
ENDBRANCH  22  26
ENDBRANCH   6  21
BRANCH   5  29
ATOM     29  C   UNL     1     -36.005  23.064   5.570  0.00  0.00    +0.136 C 
BRANCH  29  31
ATOM     30  O   UNL     1     -35.284  21.174   4.213  0.00  0.00    -0.250 OA
ATOM     31  C   UNL     1     -35.203  21.820   5.249  0.00  0.00    +0.318 C 
BRANCH  31  32
ATOM     32  O   UNL     1     -34.363  21.486   6.264  0.00  0.00    -0.480 OA
ATOM     33  H   UNL     1     -33.710  22.095   6.550  0.00  0.00    +0.295 HD
ENDBRANCH  31  32
ENDBRANCH  29  31
ENDBRANCH   5  29
TORSDOF 9
ENDMDL
MODEL 6
REMARK VINA RESULT:      -6.2      6.775      8.410
REMARK  Name = 5282120
REMARK  9 active torsions:
REMARK  status: ('A' for Active; 'I' for Inactive)
REMARK    1  A    between atoms: C_5  and  C_29
REMARK    2  A    between atoms: C_6  and  C_21
REMARK    3  A    between atoms: C_7  and  O_17
REMARK    4  A    between atoms: C_13  and  O_19
REMARK    5  A    between atoms: C_21  and  O_23
REMARK    6  A    between atoms: C_22  and  C_26
REMARK    7  A    between atoms: C_26  and  C_27
REMARK    8  A    between atoms: C_29  and  C_31
REMARK    9  A    between atoms: C_31  and  O_32
REMARK                            x       y       z     vdW  Elec       q    Type
REMARK                         _______ _______ _______ _____ _____    ______ ____
ROOT
ATOM      1  O   UNL     1     -37.162  30.754   1.125  0.00  0.00    -0.286 OA
ATOM      2  O   UNL     1     -32.490  32.597   2.947  0.00  0.00    -0.287 OA
ATOM      3  C   UNL     1     -35.153  30.275   2.246  0.00  0.00    +0.076 C 
ATOM      4  C   UNL     1     -33.932  30.757   2.722  0.00  0.00    +0.045 C 
ATOM      5  C   UNL     1     -33.396  28.556   3.575  0.00  0.00    -0.005 C 
ATOM      6  C   UNL     1     -34.613  28.075   3.099  0.00  0.00    +0.064 C 
ATOM      7  C   UNL     1     -35.494  28.930   2.435  0.00  0.00    +0.139 C 
ATOM      8  C   UNL     1     -33.052  29.895   3.387  0.00  0.00    -0.000 C 
ATOM      9  C   UNL     1     -35.719  32.590   1.351  0.00  0.00    +0.076 C 
ATOM     10  C   UNL     1     -34.498  33.073   1.827  0.00  0.00    +0.045 C 
ATOM     11  C   UNL     1     -36.091  31.173   1.543  0.00  0.00    +0.202 C 
ATOM     12  C   UNL     1     -33.560  32.174   2.529  0.00  0.00    +0.196 C 
ATOM     13  C   UNL     1     -36.600  33.453   0.687  0.00  0.00    +0.137 C 
ATOM     14  C   UNL     1     -34.158  34.417   1.639  0.00  0.00    +0.003 C 
ATOM     15  C   UNL     1     -36.257  34.792   0.502  0.00  0.00    +0.037 C 
ATOM     16  C   UNL     1     -35.038  35.274   0.977  0.00  0.00    +0.003 C 
ENDROOT
BRANCH   7  17
ATOM     17  O   UNL     1     -36.678  28.418   1.985  0.00  0.00    -0.505 OA
ATOM     18  H   UNL     1     -36.773  28.180   1.084  0.00  0.00    +0.292 HD
ENDBRANCH   7  17
BRANCH  13  19
ATOM     19  O   UNL     1     -37.806  33.049   0.195  0.00  0.00    -0.505 OA
ATOM     20  H   UNL     1     -38.114  32.181   0.364  0.00  0.00    +0.292 HD
ENDBRANCH  13  19
BRANCH   6  21
ATOM     21  C   UNL     1     -34.968  26.672   3.300  0.00  0.00    +0.139 C 
ATOM     22  C   UNL     1     -35.534  26.231   4.447  0.00  0.00    +0.074 C 
BRANCH  21  23
ATOM     23  O   UNL     1     -34.656  25.844   2.233  0.00  0.00    -0.505 OA
ATOM     24  H   UNL     1     -34.620  26.193   1.364  0.00  0.00    +0.292 HD
ENDBRANCH  21  23
BRANCH  22  26
ATOM     25  O   UNL     1     -37.060  24.402   4.559  0.00  0.00    -0.291 OA
ATOM     26  C   UNL     1     -35.915  24.812   4.723  0.00  0.00    +0.176 C 
BRANCH  26  27
ATOM     27  C   UNL     1     -34.790  23.920   5.220  0.00  0.00    +0.069 C 
ATOM     28  C   UNL     1     -35.299  22.710   5.984  0.00  0.00    +0.009 C 
ENDBRANCH  26  27
ENDBRANCH  22  26
ENDBRANCH   6  21
BRANCH   5  29
ATOM     29  C   UNL     1     -32.430  27.670   4.293  0.00  0.00    +0.136 C 
BRANCH  29  31
ATOM     30  O   UNL     1     -32.136  28.919   6.363  0.00  0.00    -0.250 OA
ATOM     31  C   UNL     1     -32.426  27.876   5.794  0.00  0.00    +0.318 C 
BRANCH  31  32
ATOM     32  O   UNL     1     -32.786  26.746   6.458  0.00  0.00    -0.480 OA
ATOM     33  H   UNL     1     -32.663  26.689   7.386  0.00  0.00    +0.295 HD
ENDBRANCH  31  32
ENDBRANCH  29  31
ENDBRANCH   5  29
TORSDOF 9
ENDMDL
MODEL 7
REMARK VINA RESULT:      -6.2      2.548      4.814
REMARK  Name = 5282120
REMARK  9 active torsions:
REMARK  status: ('A' for Active; 'I' for Inactive)
REMARK    1  A    between atoms: C_5  and  C_29
REMARK    2  A    between atoms: C_6  and  C_21
REMARK    3  A    between atoms: C_7  and  O_17
REMARK    4  A    between atoms: C_13  and  O_19
REMARK    5  A    between atoms: C_21  and  O_23
REMARK    6  A    between atoms: C_22  and  C_26
REMARK    7  A    between atoms: C_26  and  C_27
REMARK    8  A    between atoms: C_29  and  C_31
REMARK    9  A    between atoms: C_31  and  O_32
REMARK                            x       y       z     vdW  Elec       q    Type
REMARK                         _______ _______ _______ _____ _____    ______ ____
ROOT
ATOM      1  O   UNL     1     -41.369  27.532   3.795  0.00  0.00    -0.286 OA
ATOM      2  O   UNL     1     -43.461  24.088   0.286  0.00  0.00    -0.287 OA
ATOM      3  C   UNL     1     -41.007  25.689   2.383  0.00  0.00    +0.076 C 
ATOM      4  C   UNL     1     -41.554  24.789   1.465  0.00  0.00    +0.045 C 
ATOM      5  C   UNL     1     -39.401  23.708   1.242  0.00  0.00    -0.005 C 
ATOM      6  C   UNL     1     -38.855  24.604   2.158  0.00  0.00    +0.064 C 
ATOM      7  C   UNL     1     -39.653  25.595   2.729  0.00  0.00    +0.139 C 
ATOM      8  C   UNL     1     -40.749  23.797   0.895  0.00  0.00    -0.000 C 
ATOM      9  C   UNL     1     -43.271  26.828   2.616  0.00  0.00    +0.076 C 
ATOM     10  C   UNL     1     -43.819  25.929   1.699  0.00  0.00    +0.045 C 
ATOM     11  C   UNL     1     -41.845  26.741   2.992  0.00  0.00    +0.202 C 
ATOM     12  C   UNL     1     -42.981  24.876   1.091  0.00  0.00    +0.196 C 
ATOM     13  C   UNL     1     -44.077  27.822   3.186  0.00  0.00    +0.137 C 
ATOM     14  C   UNL     1     -45.171  26.024   1.351  0.00  0.00    +0.003 C 
ATOM     15  C   UNL     1     -45.424  27.913   2.837  0.00  0.00    +0.037 C 
ATOM     16  C   UNL     1     -45.971  27.015   1.921  0.00  0.00    +0.003 C 
ENDROOT
BRANCH   7  17
ATOM     17  O   UNL     1     -39.079  26.455   3.622  0.00  0.00    -0.505 OA
ATOM     18  H   UNL     1     -38.378  27.015   3.349  0.00  0.00    +0.292 HD
ENDBRANCH   7  17
BRANCH  13  19
ATOM     19  O   UNL     1     -43.609  28.732   4.088  0.00  0.00    -0.505 OA
ATOM     20  H   UNL     1     -44.210  29.235   4.601  0.00  0.00    +0.292 HD
ENDBRANCH  13  19
BRANCH   6  21
ATOM     21  C   UNL     1     -37.442  24.507   2.516  0.00  0.00    +0.139 C 
ATOM     22  C   UNL     1     -37.008  23.708   3.519  0.00  0.00    +0.074 C 
BRANCH  21  23
ATOM     23  O   UNL     1     -36.603  25.311   1.762  0.00  0.00    -0.505 OA
ATOM     24  H   UNL     1     -35.861  25.720   2.163  0.00  0.00    +0.292 HD
ENDBRANCH  21  23
BRANCH  22  26
ATOM     25  O   UNL     1     -34.674  23.413   3.131  0.00  0.00    -0.291 OA
ATOM     26  C   UNL     1     -35.582  23.564   3.942  0.00  0.00    +0.176 C 
BRANCH  26  27
ATOM     27  C   UNL     1     -35.340  23.617   5.441  0.00  0.00    +0.069 C 
ATOM     28  C   UNL     1     -35.411  22.246   6.092  0.00  0.00    +0.009 C 
ENDBRANCH  26  27
ENDBRANCH  22  26
ENDBRANCH   6  21
BRANCH   5  29
ATOM     29  C   UNL     1     -38.574  22.635   0.607  0.00  0.00    +0.136 C 
BRANCH  29  31
ATOM     30  O   UNL     1     -39.633  20.470   0.255  0.00  0.00    -0.250 OA
ATOM     31  C   UNL     1     -39.014  21.235   0.983  0.00  0.00    +0.318 C 
BRANCH  31  32
ATOM     32  O   UNL     1     -38.641  20.913   2.249  0.00  0.00    -0.480 OA
ATOM     33  H   UNL     1     -37.907  20.347   2.391  0.00  0.00    +0.295 HD
ENDBRANCH  31  32
ENDBRANCH  29  31
ENDBRANCH   5  29
TORSDOF 9
ENDMDL
MODEL 8
REMARK VINA RESULT:      -6.0      5.009      7.598
REMARK  Name = 5282120
REMARK  9 active torsions:
REMARK  status: ('A' for Active; 'I' for Inactive)
REMARK    1  A    between atoms: C_5  and  C_29
REMARK    2  A    between atoms: C_6  and  C_21
REMARK    3  A    between atoms: C_7  and  O_17
REMARK    4  A    between atoms: C_13  and  O_19
REMARK    5  A    between atoms: C_21  and  O_23
REMARK    6  A    between atoms: C_22  and  C_26
REMARK    7  A    between atoms: C_26  and  C_27
REMARK    8  A    between atoms: C_29  and  C_31
REMARK    9  A    between atoms: C_31  and  O_32
REMARK                            x       y       z     vdW  Elec       q    Type
REMARK                         _______ _______ _______ _____ _____    ______ ____
ROOT
ATOM      1  O   UNL     1     -35.263  23.426   3.713  0.00  0.00    -0.286 OA
ATOM      2  O   UNL     1     -38.100  27.259   1.302  0.00  0.00    -0.287 OA
ATOM      3  C   UNL     1     -35.390  25.686   3.080  0.00  0.00    +0.076 C 
ATOM      4  C   UNL     1     -36.132  26.687   2.450  0.00  0.00    +0.045 C 
ATOM      5  C   UNL     1     -34.386  28.290   2.941  0.00  0.00    -0.005 C 
ATOM      6  C   UNL     1     -33.645  27.290   3.569  0.00  0.00    +0.064 C 
ATOM      7  C   UNL     1     -34.143  25.989   3.641  0.00  0.00    +0.139 C 
ATOM      8  C   UNL     1     -35.628  27.991   2.381  0.00  0.00    -0.000 C 
ATOM      9  C   UNL     1     -37.227  24.001   2.566  0.00  0.00    +0.076 C 
ATOM     10  C   UNL     1     -37.970  25.001   1.936  0.00  0.00    +0.045 C 
ATOM     11  C   UNL     1     -35.910  24.306   3.161  0.00  0.00    +0.202 C 
ATOM     12  C   UNL     1     -37.449  26.381   1.855  0.00  0.00    +0.196 C 
ATOM     13  C   UNL     1     -37.733  22.697   2.637  0.00  0.00    +0.137 C 
ATOM     14  C   UNL     1     -39.217  24.699   1.377  0.00  0.00    +0.003 C 
ATOM     15  C   UNL     1     -38.976  22.399   2.078  0.00  0.00    +0.037 C 
ATOM     16  C   UNL     1     -39.717  23.399   1.449  0.00  0.00    +0.003 C 
ENDROOT
BRANCH   7  17
ATOM     17  O   UNL     1     -33.386  25.039   4.266  0.00  0.00    -0.505 OA
ATOM     18  H   UNL     1     -32.542  25.263   4.608  0.00  0.00    +0.292 HD
ENDBRANCH   7  17
BRANCH  13  19
ATOM     19  O   UNL     1     -37.062  21.671   3.235  0.00  0.00    -0.505 OA
ATOM     20  H   UNL     1     -36.489  21.843   3.955  0.00  0.00    +0.292 HD
ENDBRANCH  13  19
BRANCH   6  21
ATOM     21  C   UNL     1     -32.345  27.610   4.156  0.00  0.00    +0.139 C 
ATOM     22  C   UNL     1     -32.229  28.180   5.377  0.00  0.00    +0.074 C 
BRANCH  21  23
ATOM     23  O   UNL     1     -31.262  27.301   3.349  0.00  0.00    -0.505 OA
ATOM     24  H   UNL     1     -30.549  26.800   3.695  0.00  0.00    +0.292 HD
ENDBRANCH  21  23
BRANCH  22  26
ATOM     25  O   UNL     1     -30.049  27.711   6.222  0.00  0.00    -0.291 OA
ATOM     26  C   UNL     1     -30.935  28.540   6.034  0.00  0.00    +0.176 C 
BRANCH  26  27
ATOM     27  C   UNL     1     -30.799  29.994   6.451  0.00  0.00    +0.069 C 
ATOM     28  C   UNL     1     -31.495  30.943   5.491  0.00  0.00    +0.009 C 
ENDBRANCH  26  27
ENDBRANCH  22  26
ENDBRANCH   6  21
BRANCH   5  29
ATOM     29  C   UNL     1     -33.885  29.695   2.849  0.00  0.00    +0.136 C 
BRANCH  29  31
ATOM     30  O   UNL     1     -35.365  31.324   1.807  0.00  0.00    -0.250 OA
ATOM     31  C   UNL     1     -34.992  30.727   2.808  0.00  0.00    +0.318 C 
BRANCH  31  32
ATOM     32  O   UNL     1     -35.541  30.926   4.035  0.00  0.00    -0.480 OA
ATOM     33  H   UNL     1     -36.048  30.247   4.437  0.00  0.00    +0.295 HD
ENDBRANCH  31  32
ENDBRANCH  29  31
ENDBRANCH   5  29
TORSDOF 9
ENDMDL
MODEL 9
REMARK VINA RESULT:      -6.0      4.881      7.431
REMARK  Name = 5282120
REMARK  9 active torsions:
REMARK  status: ('A' for Active; 'I' for Inactive)
REMARK    1  A    between atoms: C_5  and  C_29
REMARK    2  A    between atoms: C_6  and  C_21
REMARK    3  A    between atoms: C_7  and  O_17
REMARK    4  A    between atoms: C_13  and  O_19
REMARK    5  A    between atoms: C_21  and  O_23
REMARK    6  A    between atoms: C_22  and  C_26
REMARK    7  A    between atoms: C_26  and  C_27
REMARK    8  A    between atoms: C_29  and  C_31
REMARK    9  A    between atoms: C_31  and  O_32
REMARK                            x       y       z     vdW  Elec       q    Type
REMARK                         _______ _______ _______ _____ _____    ______ ____
ROOT
ATOM      1  O   UNL     1     -32.321  27.487   1.832  0.00  0.00    -0.286 OA
ATOM      2  O   UNL     1     -33.463  26.730   6.997  0.00  0.00    -0.287 OA
ATOM      3  C   UNL     1     -33.466  26.202   3.433  0.00  0.00    +0.076 C 
ATOM      4  C   UNL     1     -33.764  26.005   4.782  0.00  0.00    +0.045 C 
ATOM      5  C   UNL     1     -35.138  24.100   4.200  0.00  0.00    -0.005 C 
ATOM      6  C   UNL     1     -34.839  24.295   2.853  0.00  0.00    +0.064 C 
ATOM      7  C   UNL     1     -34.005  25.344   2.466  0.00  0.00    +0.139 C 
ATOM      8  C   UNL     1     -34.602  24.951   5.166  0.00  0.00    -0.000 C 
ATOM      9  C   UNL     1     -32.022  28.208   4.045  0.00  0.00    +0.076 C 
ATOM     10  C   UNL     1     -32.320  28.012   5.395  0.00  0.00    +0.045 C 
ATOM     11  C   UNL     1     -32.584  27.310   3.014  0.00  0.00    +0.202 C 
ATOM     12  C   UNL     1     -33.202  26.902   5.813  0.00  0.00    +0.196 C 
ATOM     13  C   UNL     1     -31.186  29.264   3.661  0.00  0.00    +0.137 C 
ATOM     14  C   UNL     1     -31.783  28.870   6.360  0.00  0.00    +0.003 C 
ATOM     15  C   UNL     1     -30.651  30.116   4.627  0.00  0.00    +0.037 C 
ATOM     16  C   UNL     1     -30.949  29.920   5.974  0.00  0.00    +0.003 C 
ENDROOT
BRANCH   7  17
ATOM     17  O   UNL     1     -33.738  25.502   1.135  0.00  0.00    -0.505 OA
ATOM     18  H   UNL     1     -34.014  24.850   0.522  0.00  0.00    +0.292 HD
ENDBRANCH   7  17
BRANCH  13  19
ATOM     19  O   UNL     1     -30.851  29.513   2.362  0.00  0.00    -0.505 OA
ATOM     20  H   UNL     1     -30.240  30.192   2.158  0.00  0.00    +0.292 HD
ENDBRANCH  13  19
BRANCH   6  21
ATOM     21  C   UNL     1     -35.405  23.401   1.847  0.00  0.00    +0.139 C 
ATOM     22  C   UNL     1     -34.837  22.211   1.542  0.00  0.00    +0.074 C 
BRANCH  21  23
ATOM     23  O   UNL     1     -36.546  23.885   1.227  0.00  0.00    -0.505 OA
ATOM     24  H   UNL     1     -36.686  23.726   0.314  0.00  0.00    +0.292 HD
ENDBRANCH  21  23
BRANCH  22  26
ATOM     25  O   UNL     1     -36.514  21.297   0.114  0.00  0.00    -0.291 OA
ATOM     26  C   UNL     1     -35.357  21.251   0.520  0.00  0.00    +0.176 C 
BRANCH  26  27
ATOM     27  C   UNL     1     -34.356  20.221   0.026  0.00  0.00    +0.069 C 
ATOM     28  C   UNL     1     -32.922  20.595   0.360  0.00  0.00    +0.009 C 
ENDBRANCH  26  27
ENDBRANCH  22  26
ENDBRANCH   6  21
BRANCH   5  29
ATOM     29  C   UNL     1     -36.031  22.988   4.651  0.00  0.00    +0.136 C 
BRANCH  29  31
ATOM     30  O   UNL     1     -34.807  21.986   6.503  0.00  0.00    -0.250 OA
ATOM     31  C   UNL     1     -35.295  21.886   5.386  0.00  0.00    +0.318 C 
BRANCH  31  32
ATOM     32  O   UNL     1     -35.231  20.746   4.649  0.00  0.00    -0.480 OA
ATOM     33  H   UNL     1     -34.465  20.559   4.141  0.00  0.00    +0.295 HD
ENDBRANCH  31  32
ENDBRANCH  29  31
ENDBRANCH   5  29
TORSDOF 9
ENDMDL
