MODEL 1
REMARK VINA RESULT:      -6.7      0.000      0.000
REMARK  Name = 5281855
REMARK  4 active torsions:
REMARK  status: ('A' for Active; 'I' for Inactive)
REMARK    1  A    between atoms: C_11  and  O_19
REMARK    2  A    between atoms: C_12  and  O_21
REMARK    3  A    between atoms: C_17  and  O_23
REMARK    4  A    between atoms: C_18  and  O_25
REMARK                            x       y       z     vdW  Elec       q    Type
REMARK                         _______ _______ _______ _____ _____    ______ ____
ROOT
ATOM      1  O   UNL     1     -38.355  25.897   3.511  0.00  0.00    -0.418 OA
ATOM      2  O   UNL     1     -37.264  21.152   2.209  0.00  0.00    -0.418 OA
ATOM      3  O   UNL     1     -40.308  26.343   2.398  0.00  0.00    -0.244 OA
ATOM      4  O   UNL     1     -35.310  20.707   3.321  0.00  0.00    -0.244 OA
ATOM      5  C   UNL     1     -37.283  23.731   3.300  0.00  0.00    +0.047 A 
ATOM      6  C   UNL     1     -38.337  23.318   2.420  0.00  0.00    +0.047 A 
ATOM      7  C   UNL     1     -39.381  24.183   2.093  0.00  0.00    +0.082 A 
ATOM      8  C   UNL     1     -36.239  22.867   3.628  0.00  0.00    +0.082 A 
ATOM      9  C   UNL     1     -37.301  25.013   3.836  0.00  0.00    +0.185 A 
ATOM     10  C   UNL     1     -38.318  22.037   1.884  0.00  0.00    +0.185 A 
ATOM     11  C   UNL     1     -36.301  25.459   4.695  0.00  0.00    +0.203 C 
ATOM     12  C   UNL     1     -39.318  21.590   1.026  0.00  0.00    +0.203 C 
ATOM     13  C   UNL     1     -40.397  23.753   1.231  0.00  0.00    +0.046 C 
ATOM     14  C   UNL     1     -35.223  23.296   4.490  0.00  0.00    +0.046 C 
ATOM     15  C   UNL     1     -39.411  25.553   2.660  0.00  0.00    +0.346 A 
ATOM     16  C   UNL     1     -36.208  21.496   3.061  0.00  0.00    +0.346 A 
ATOM     17  C   UNL     1     -35.259  24.591   5.021  0.00  0.00    +0.171 C 
ATOM     18  C   UNL     1     -40.361  22.458   0.701  0.00  0.00    +0.171 C 
ENDROOT
BRANCH  11  19
ATOM     19  O   UNL     1     -36.339  26.718   5.209  0.00  0.00    -0.501 OA
ATOM     20  H   UNL     1     -36.383  27.457   4.635  0.00  0.00    +0.292 HD
ENDBRANCH  11  19
BRANCH  12  21
ATOM     21  O   UNL     1     -39.281  20.331   0.512  0.00  0.00    -0.501 OA
ATOM     22  H   UNL     1     -38.663  20.116  -0.159  0.00  0.00    +0.292 HD
ENDBRANCH  12  21
BRANCH  17  23
ATOM     23  O   UNL     1     -34.262  24.995   5.857  0.00  0.00    -0.503 OA
ATOM     24  H   UNL     1     -33.696  24.362   6.252  0.00  0.00    +0.292 HD
ENDBRANCH  17  23
BRANCH  18  25
ATOM     25  O   UNL     1     -41.357  22.054  -0.136  0.00  0.00    -0.503 OA
ATOM     26  H   UNL     1     -42.167  22.525  -0.163  0.00  0.00    +0.292 HD
ENDBRANCH  18  25
TORSDOF 4
ENDMDL
MODEL 2
REMARK VINA RESULT:      -6.7      0.059      6.255
REMARK  Name = 5281855
REMARK  4 active torsions:
REMARK  status: ('A' for Active; 'I' for Inactive)
REMARK    1  A    between atoms: C_11  and  O_19
REMARK    2  A    between atoms: C_12  and  O_21
REMARK    3  A    between atoms: C_17  and  O_23
REMARK    4  A    between atoms: C_18  and  O_25
REMARK                            x       y       z     vdW  Elec       q    Type
REMARK                         _______ _______ _______ _____ _____    ______ ____
ROOT
ATOM      1  O   UNL     1     -37.227  21.173   2.249  0.00  0.00    -0.418 OA
ATOM      2  O   UNL     1     -38.343  25.933   3.472  0.00  0.00    -0.418 OA
ATOM      3  O   UNL     1     -35.284  20.748   3.387  0.00  0.00    -0.244 OA
ATOM      4  O   UNL     1     -40.284  26.359   2.331  0.00  0.00    -0.244 OA
ATOM      5  C   UNL     1     -38.307  23.339   2.418  0.00  0.00    +0.047 A 
ATOM      6  C   UNL     1     -37.263  23.766   3.303  0.00  0.00    +0.047 A 
ATOM      7  C   UNL     1     -36.220  22.909   3.653  0.00  0.00    +0.082 A 
ATOM      8  C   UNL     1     -39.349  24.195   2.068  0.00  0.00    +0.082 A 
ATOM      9  C   UNL     1     -38.280  22.050   1.900  0.00  0.00    +0.185 A 
ATOM     10  C   UNL     1     -37.290  25.056   3.820  0.00  0.00    +0.185 A 
ATOM     11  C   UNL     1     -39.270  21.589   1.038  0.00  0.00    +0.203 C 
ATOM     12  C   UNL     1     -36.300  25.517   4.683  0.00  0.00    +0.203 C 
ATOM     13  C   UNL     1     -35.214  23.354   4.519  0.00  0.00    +0.046 C 
ATOM     14  C   UNL     1     -40.356  23.751   1.202  0.00  0.00    +0.046 C 
ATOM     15  C   UNL     1     -36.181  21.531   3.106  0.00  0.00    +0.346 A 
ATOM     16  C   UNL     1     -39.389  25.575   2.614  0.00  0.00    +0.346 A 
ATOM     17  C   UNL     1     -40.312  22.449   0.691  0.00  0.00    +0.171 C 
ATOM     18  C   UNL     1     -35.259  24.656   5.031  0.00  0.00    +0.171 C 
ENDROOT
BRANCH  11  19
ATOM     19  O   UNL     1     -39.224  20.323   0.543  0.00  0.00    -0.501 OA
ATOM     20  H   UNL     1     -38.416  19.972   0.225  0.00  0.00    +0.292 HD
ENDBRANCH  11  19
BRANCH  12  21
ATOM     21  O   UNL     1     -36.346  26.783   5.178  0.00  0.00    -0.501 OA
ATOM     22  H   UNL     1     -35.566  27.301   5.214  0.00  0.00    +0.292 HD
ENDBRANCH  12  21
BRANCH  17  23
ATOM     23  O   UNL     1     -41.298  22.031  -0.152  0.00  0.00    -0.503 OA
ATOM     24  H   UNL     1     -41.078  21.633  -0.971  0.00  0.00    +0.292 HD
ENDBRANCH  17  23
BRANCH  18  25
ATOM     25  O   UNL     1     -34.272  25.074   5.873  0.00  0.00    -0.503 OA
ATOM     26  H   UNL     1     -33.425  24.675   5.837  0.00  0.00    +0.292 HD
ENDBRANCH  18  25
TORSDOF 4
ENDMDL
MODEL 3
REMARK VINA RESULT:      -6.6      1.300      4.649
REMARK  Name = 5281855
REMARK  4 active torsions:
REMARK  status: ('A' for Active; 'I' for Inactive)
REMARK    1  A    between atoms: C_11  and  O_19
REMARK    2  A    between atoms: C_12  and  O_21
REMARK    3  A    between atoms: C_17  and  O_23
REMARK    4  A    between atoms: C_18  and  O_25
REMARK                            x       y       z     vdW  Elec       q    Type
REMARK                         _______ _______ _______ _____ _____    ______ ____
ROOT
ATOM      1  O   UNL     1     -37.694  24.850   3.863  0.00  0.00    -0.418 OA
ATOM      2  O   UNL     1     -38.876  20.963   0.881  0.00  0.00    -0.418 OA
ATOM      3  O   UNL     1     -35.671  24.261   4.767  0.00  0.00    -0.244 OA
ATOM      4  O   UNL     1     -40.901  21.550  -0.020  0.00  0.00    -0.244 OA
ATOM      5  C   UNL     1     -38.827  23.371   2.309  0.00  0.00    +0.047 A 
ATOM      6  C   UNL     1     -37.743  22.442   2.436  0.00  0.00    +0.047 A 
ATOM      7  C   UNL     1     -36.654  22.714   3.263  0.00  0.00    +0.082 A 
ATOM      8  C   UNL     1     -39.916  23.099   1.482  0.00  0.00    +0.082 A 
ATOM      9  C   UNL     1     -38.793  24.563   3.022  0.00  0.00    +0.185 A 
ATOM     10  C   UNL     1     -37.777  21.249   1.723  0.00  0.00    +0.185 A 
ATOM     11  C   UNL     1     -39.821  25.497   2.931  0.00  0.00    +0.203 C 
ATOM     12  C   UNL     1     -36.749  20.315   1.813  0.00  0.00    +0.203 C 
ATOM     13  C   UNL     1     -35.610  21.787   3.368  0.00  0.00    +0.046 C 
ATOM     14  C   UNL     1     -40.960  24.026   1.376  0.00  0.00    +0.046 C 
ATOM     15  C   UNL     1     -36.607  23.984   4.029  0.00  0.00    +0.346 A 
ATOM     16  C   UNL     1     -39.963  21.829   0.716  0.00  0.00    +0.346 A 
ATOM     17  C   UNL     1     -40.908  25.222   2.102  0.00  0.00    +0.171 C 
ATOM     18  C   UNL     1     -35.662  20.592   2.642  0.00  0.00    +0.171 C 
ENDROOT
BRANCH  11  19
ATOM     19  O   UNL     1     -39.767  26.658   3.638  0.00  0.00    -0.501 OA
ATOM     20  H   UNL     1     -39.747  26.637   4.574  0.00  0.00    +0.292 HD
ENDBRANCH  11  19
BRANCH  12  21
ATOM     21  O   UNL     1     -36.803  19.154   1.107  0.00  0.00    -0.501 OA
ATOM     22  H   UNL     1     -37.620  18.853   0.761  0.00  0.00    +0.292 HD
ENDBRANCH  12  21
BRANCH  17  23
ATOM     23  O   UNL     1     -41.932  26.112   1.990  0.00  0.00    -0.503 OA
ATOM     24  H   UNL     1     -41.959  26.709   1.268  0.00  0.00    +0.292 HD
ENDBRANCH  17  23
BRANCH  18  25
ATOM     25  O   UNL     1     -34.638  19.700   2.754  0.00  0.00    -0.503 OA
ATOM     26  H   UNL     1     -33.879  19.918   3.259  0.00  0.00    +0.292 HD
ENDBRANCH  18  25
TORSDOF 4
ENDMDL
MODEL 4
REMARK VINA RESULT:      -6.6      1.567      1.732
REMARK  Name = 5281855
REMARK  4 active torsions:
REMARK  status: ('A' for Active; 'I' for Inactive)
REMARK    1  A    between atoms: C_11  and  O_19
REMARK    2  A    between atoms: C_12  and  O_21
REMARK    3  A    between atoms: C_17  and  O_23
REMARK    4  A    between atoms: C_18  and  O_25
REMARK                            x       y       z     vdW  Elec       q    Type
REMARK                         _______ _______ _______ _____ _____    ______ ____
ROOT
ATOM      1  O   UNL     1     -36.982  27.014   2.415  0.00  0.00    -0.418 OA
ATOM      2  O   UNL     1     -36.949  22.122   3.623  0.00  0.00    -0.418 OA
ATOM      3  O   UNL     1     -38.780  27.226   1.008  0.00  0.00    -0.244 OA
ATOM      4  O   UNL     1     -35.150  21.909   5.028  0.00  0.00    -0.244 OA
ATOM      5  C   UNL     1     -36.410  24.857   3.368  0.00  0.00    +0.047 A 
ATOM      6  C   UNL     1     -37.521  24.279   2.670  0.00  0.00    +0.047 A 
ATOM      7  C   UNL     1     -38.347  25.057   1.860  0.00  0.00    +0.082 A 
ATOM      8  C   UNL     1     -35.584  24.080   4.178  0.00  0.00    +0.082 A 
ATOM      9  C   UNL     1     -36.151  26.216   3.234  0.00  0.00    +0.185 A 
ATOM     10  C   UNL     1     -37.780  22.920   2.804  0.00  0.00    +0.185 A 
ATOM     11  C   UNL     1     -35.085  26.824   3.890  0.00  0.00    +0.203 C 
ATOM     12  C   UNL     1     -38.846  22.312   2.148  0.00  0.00    +0.203 C 
ATOM     13  C   UNL     1     -39.425  24.464   1.191  0.00  0.00    +0.046 C 
ATOM     14  C   UNL     1     -34.507  24.672   4.848  0.00  0.00    +0.046 C 
ATOM     15  C   UNL     1     -38.080  26.508   1.710  0.00  0.00    +0.346 A 
ATOM     16  C   UNL     1     -35.851  22.628   4.328  0.00  0.00    +0.346 A 
ATOM     17  C   UNL     1     -34.262  26.042   4.701  0.00  0.00    +0.171 C 
ATOM     18  C   UNL     1     -39.669  23.094   1.338  0.00  0.00    +0.171 C 
ENDROOT
BRANCH  11  19
ATOM     19  O   UNL     1     -34.850  28.156   3.746  0.00  0.00    -0.501 OA
ATOM     20  H   UNL     1     -35.562  28.743   3.581  0.00  0.00    +0.292 HD
ENDBRANCH  11  19
BRANCH  12  21
ATOM     21  O   UNL     1     -39.081  20.980   2.292  0.00  0.00    -0.501 OA
ATOM     22  H   UNL     1     -39.893  20.613   2.005  0.00  0.00    +0.292 HD
ENDBRANCH  12  21
BRANCH  17  23
ATOM     23  O   UNL     1     -33.209  26.604   5.358  0.00  0.00    -0.503 OA
ATOM     24  H   UNL     1     -33.334  26.988   6.203  0.00  0.00    +0.292 HD
ENDBRANCH  17  23
BRANCH  18  25
ATOM     25  O   UNL     1     -40.722  22.532   0.680  0.00  0.00    -0.503 OA
ATOM     26  H   UNL     1     -41.309  21.961   1.135  0.00  0.00    +0.292 HD
ENDBRANCH  18  25
TORSDOF 4
ENDMDL
MODEL 5
REMARK VINA RESULT:      -6.6      3.505      6.376
REMARK  Name = 5281855
REMARK  4 active torsions:
REMARK  status: ('A' for Active; 'I' for Inactive)
REMARK    1  A    between atoms: C_11  and  O_19
REMARK    2  A    between atoms: C_12  and  O_21
REMARK    3  A    between atoms: C_17  and  O_23
REMARK    4  A    between atoms: C_18  and  O_25
REMARK                            x       y       z     vdW  Elec       q    Type
REMARK                         _______ _______ _______ _____ _____    ______ ____
ROOT
ATOM      1  O   UNL     1     -35.949  21.614   4.321  0.00  0.00    -0.418 OA
ATOM      2  O   UNL     1     -33.875  25.318   1.607  0.00  0.00    -0.418 OA
ATOM      3  O   UNL     1     -35.821  22.370   6.482  0.00  0.00    -0.244 OA
ATOM      4  O   UNL     1     -34.000  24.561  -0.553  0.00  0.00    -0.244 OA
ATOM      5  C   UNL     1     -35.102  22.962   2.491  0.00  0.00    +0.047 A 
ATOM      6  C   UNL     1     -34.722  23.970   3.437  0.00  0.00    +0.047 A 
ATOM      7  C   UNL     1     -34.953  23.800   4.802  0.00  0.00    +0.082 A 
ATOM      8  C   UNL     1     -34.872  23.132   1.127  0.00  0.00    +0.082 A 
ATOM      9  C   UNL     1     -35.711  21.797   2.940  0.00  0.00    +0.185 A 
ATOM     10  C   UNL     1     -34.114  25.136   2.988  0.00  0.00    +0.185 A 
ATOM     11  C   UNL     1     -36.098  20.790   2.061  0.00  0.00    +0.203 C 
ATOM     12  C   UNL     1     -33.726  26.142   3.867  0.00  0.00    +0.203 C 
ATOM     13  C   UNL     1     -34.571  24.801   5.703  0.00  0.00    +0.046 C 
ATOM     14  C   UNL     1     -35.254  22.132   0.225  0.00  0.00    +0.046 C 
ATOM     15  C   UNL     1     -35.602  22.559   5.293  0.00  0.00    +0.346 A 
ATOM     16  C   UNL     1     -34.222  24.373   0.636  0.00  0.00    +0.346 A 
ATOM     17  C   UNL     1     -35.866  20.965   0.696  0.00  0.00    +0.171 C 
ATOM     18  C   UNL     1     -33.959  25.968   5.232  0.00  0.00    +0.171 C 
ENDROOT
BRANCH  11  19
ATOM     19  O   UNL     1     -36.692  19.657   2.522  0.00  0.00    -0.501 OA
ATOM     20  H   UNL     1     -36.941  18.980   1.923  0.00  0.00    +0.292 HD
ENDBRANCH  11  19
BRANCH  12  21
ATOM     21  O   UNL     1     -33.132  27.276   3.406  0.00  0.00    -0.501 OA
ATOM     22  H   UNL     1     -32.614  27.250   2.626  0.00  0.00    +0.292 HD
ENDBRANCH  12  21
BRANCH  17  23
ATOM     23  O   UNL     1     -36.231  19.999  -0.193  0.00  0.00    -0.503 OA
ATOM     24  H   UNL     1     -36.598  19.194   0.113  0.00  0.00    +0.292 HD
ENDBRANCH  17  23
BRANCH  18  25
ATOM     25  O   UNL     1     -33.593  26.933   6.121  0.00  0.00    -0.503 OA
ATOM     26  H   UNL     1     -32.765  26.881   6.556  0.00  0.00    +0.292 HD
ENDBRANCH  18  25
TORSDOF 4
ENDMDL
MODEL 6
REMARK VINA RESULT:      -6.5      3.447      3.852
REMARK  Name = 5281855
REMARK  4 active torsions:
REMARK  status: ('A' for Active; 'I' for Inactive)
REMARK    1  A    between atoms: C_11  and  O_19
REMARK    2  A    between atoms: C_12  and  O_21
REMARK    3  A    between atoms: C_17  and  O_23
REMARK    4  A    between atoms: C_18  and  O_25
REMARK                            x       y       z     vdW  Elec       q    Type
REMARK                         _______ _______ _______ _____ _____    ______ ____
ROOT
ATOM      1  O   UNL     1     -34.003  25.310   1.481  0.00  0.00    -0.418 OA
ATOM      2  O   UNL     1     -35.959  21.629   4.312  0.00  0.00    -0.418 OA
ATOM      3  O   UNL     1     -34.195  24.524  -0.663  0.00  0.00    -0.244 OA
ATOM      4  O   UNL     1     -35.765  22.414   6.457  0.00  0.00    -0.244 OA
ATOM      5  C   UNL     1     -34.779  23.981   3.357  0.00  0.00    +0.047 A 
ATOM      6  C   UNL     1     -35.183  22.958   2.437  0.00  0.00    +0.047 A 
ATOM      7  C   UNL     1     -34.999  23.111   1.063  0.00  0.00    +0.082 A 
ATOM      8  C   UNL     1     -34.963  23.828   4.730  0.00  0.00    +0.082 A 
ATOM      9  C   UNL     1     -34.195  25.145   2.872  0.00  0.00    +0.185 A 
ATOM     10  C   UNL     1     -35.768  21.794   2.921  0.00  0.00    +0.185 A 
ATOM     11  C   UNL     1     -33.786  26.166   3.725  0.00  0.00    +0.203 C 
ATOM     12  C   UNL     1     -36.177  20.773   2.069  0.00  0.00    +0.203 C 
ATOM     13  C   UNL     1     -35.403  22.096   0.188  0.00  0.00    +0.046 C 
ATOM     14  C   UNL     1     -34.560  24.844   5.605  0.00  0.00    +0.046 C 
ATOM     15  C   UNL     1     -34.376  24.350   0.535  0.00  0.00    +0.346 A 
ATOM     16  C   UNL     1     -35.587  22.589   5.259  0.00  0.00    +0.346 A 
ATOM     17  C   UNL     1     -33.973  26.009   5.098  0.00  0.00    +0.171 C 
ATOM     18  C   UNL     1     -35.991  20.931   0.695  0.00  0.00    +0.171 C 
ENDROOT
BRANCH  11  19
ATOM     19  O   UNL     1     -33.216  27.297   3.229  0.00  0.00    -0.501 OA
ATOM     20  H   UNL     1     -32.427  27.243   2.727  0.00  0.00    +0.292 HD
ENDBRANCH  11  19
BRANCH  12  21
ATOM     21  O   UNL     1     -36.747  19.642   2.564  0.00  0.00    -0.501 OA
ATOM     22  H   UNL     1     -36.831  19.526   3.490  0.00  0.00    +0.292 HD
ENDBRANCH  12  21
BRANCH  17  23
ATOM     23  O   UNL     1     -33.584  26.987   5.962  0.00  0.00    -0.503 OA
ATOM     24  H   UNL     1     -34.158  27.262   6.650  0.00  0.00    +0.292 HD
ENDBRANCH  17  23
BRANCH  18  25
ATOM     25  O   UNL     1     -36.379  19.951  -0.169  0.00  0.00    -0.503 OA
ATOM     26  H   UNL     1     -36.167  20.018  -1.079  0.00  0.00    +0.292 HD
ENDBRANCH  18  25
TORSDOF 4
ENDMDL
MODEL 7
REMARK VINA RESULT:      -6.5      2.673      4.954
REMARK  Name = 5281855
REMARK  4 active torsions:
REMARK  status: ('A' for Active; 'I' for Inactive)
REMARK    1  A    between atoms: C_11  and  O_19
REMARK    2  A    between atoms: C_12  and  O_21
REMARK    3  A    between atoms: C_17  and  O_23
REMARK    4  A    between atoms: C_18  and  O_25
REMARK                            x       y       z     vdW  Elec       q    Type
REMARK                         _______ _______ _______ _____ _____    ______ ____
ROOT
ATOM      1  O   UNL     1     -35.031  26.853   4.355  0.00  0.00    -0.418 OA
ATOM      2  O   UNL     1     -36.538  22.801   1.766  0.00  0.00    -0.418 OA
ATOM      3  O   UNL     1     -34.260  25.992   6.335  0.00  0.00    -0.244 OA
ATOM      4  O   UNL     1     -37.312  23.661  -0.212  0.00  0.00    -0.244 OA
ATOM      5  C   UNL     1     -35.915  25.388   2.634  0.00  0.00    +0.047 A 
ATOM      6  C   UNL     1     -35.654  24.265   3.487  0.00  0.00    +0.047 A 
ATOM      7  C   UNL     1     -35.092  24.436   4.752  0.00  0.00    +0.082 A 
ATOM      8  C   UNL     1     -36.477  25.218   1.370  0.00  0.00    +0.082 A 
ATOM      9  C   UNL     1     -35.602  26.668   3.075  0.00  0.00    +0.185 A 
ATOM     10  C   UNL     1     -35.967  22.985   3.046  0.00  0.00    +0.185 A 
ATOM     11  C   UNL     1     -35.836  27.790   2.284  0.00  0.00    +0.203 C 
ATOM     12  C   UNL     1     -35.734  21.864   3.837  0.00  0.00    +0.203 C 
ATOM     13  C   UNL     1     -34.849  23.321   5.562  0.00  0.00    +0.046 C 
ATOM     14  C   UNL     1     -36.719  26.332   0.559  0.00  0.00    +0.046 C 
ATOM     15  C   UNL     1     -34.754  25.799   5.232  0.00  0.00    +0.346 A 
ATOM     16  C   UNL     1     -36.815  23.855   0.890  0.00  0.00    +0.346 A 
ATOM     17  C   UNL     1     -36.397  27.614   1.020  0.00  0.00    +0.171 C 
ATOM     18  C   UNL     1     -35.171  22.039   5.101  0.00  0.00    +0.171 C 
ENDROOT
BRANCH  11  19
ATOM     19  O   UNL     1     -35.522  29.034   2.735  0.00  0.00    -0.501 OA
ATOM     20  H   UNL     1     -35.365  29.728   2.126  0.00  0.00    +0.292 HD
ENDBRANCH  11  19
BRANCH  12  21
ATOM     21  O   UNL     1     -36.048  20.620   3.386  0.00  0.00    -0.501 OA
ATOM     22  H   UNL     1     -36.257  20.487   2.483  0.00  0.00    +0.292 HD
ENDBRANCH  12  21
BRANCH  17  23
ATOM     23  O   UNL     1     -36.641  28.689   0.219  0.00  0.00    -0.503 OA
ATOM     24  H   UNL     1     -36.941  29.494   0.593  0.00  0.00    +0.292 HD
ENDBRANCH  17  23
BRANCH  18  25
ATOM     25  O   UNL     1     -34.928  20.964   5.902  0.00  0.00    -0.503 OA
ATOM     26  H   UNL     1     -34.961  20.098   5.547  0.00  0.00    +0.292 HD
ENDBRANCH  18  25
TORSDOF 4
ENDMDL
MODEL 8
REMARK VINA RESULT:      -6.5      2.709      5.139
REMARK  Name = 5281855
REMARK  4 active torsions:
REMARK  status: ('A' for Active; 'I' for Inactive)
REMARK    1  A    between atoms: C_11  and  O_19
REMARK    2  A    between atoms: C_12  and  O_21
REMARK    3  A    between atoms: C_17  and  O_23
REMARK    4  A    between atoms: C_18  and  O_25
REMARK                            x       y       z     vdW  Elec       q    Type
REMARK                         _______ _______ _______ _____ _____    ______ ____
ROOT
ATOM      1  O   UNL     1     -36.477  22.777   1.796  0.00  0.00    -0.418 OA
ATOM      2  O   UNL     1     -35.026  26.854   4.378  0.00  0.00    -0.418 OA
ATOM      3  O   UNL     1     -37.225  23.621  -0.200  0.00  0.00    -0.244 OA
ATOM      4  O   UNL     1     -34.281  26.010   6.375  0.00  0.00    -0.244 OA
ATOM      5  C   UNL     1     -35.625  24.257   3.519  0.00  0.00    +0.047 A 
ATOM      6  C   UNL     1     -35.878  25.373   2.655  0.00  0.00    +0.047 A 
ATOM      7  C   UNL     1     -36.421  25.191   1.383  0.00  0.00    +0.082 A 
ATOM      8  C   UNL     1     -35.082  24.439   4.790  0.00  0.00    +0.082 A 
ATOM      9  C   UNL     1     -35.926  22.973   3.083  0.00  0.00    +0.185 A 
ATOM     10  C   UNL     1     -35.577  26.658   3.091  0.00  0.00    +0.185 A 
ATOM     11  C   UNL     1     -35.699  21.858   3.884  0.00  0.00    +0.203 C 
ATOM     12  C   UNL     1     -35.804  27.773   2.290  0.00  0.00    +0.203 C 
ATOM     13  C   UNL     1     -36.657  26.300   0.562  0.00  0.00    +0.046 C 
ATOM     14  C   UNL     1     -34.845  23.331   5.612  0.00  0.00    +0.046 C 
ATOM     15  C   UNL     1     -36.746  23.824   0.908  0.00  0.00    +0.346 A 
ATOM     16  C   UNL     1     -34.757  25.806   5.266  0.00  0.00    +0.346 A 
ATOM     17  C   UNL     1     -35.155  22.044   5.155  0.00  0.00    +0.171 C 
ATOM     18  C   UNL     1     -36.347  27.586   1.019  0.00  0.00    +0.171 C 
ENDROOT
BRANCH  11  19
ATOM     19  O   UNL     1     -36.001  20.609   3.437  0.00  0.00    -0.501 OA
ATOM     20  H   UNL     1     -35.401  20.152   2.883  0.00  0.00    +0.292 HD
ENDBRANCH  11  19
BRANCH  12  21
ATOM     21  O   UNL     1     -35.502  29.021   2.736  0.00  0.00    -0.501 OA
ATOM     22  H   UNL     1     -34.658  29.390   2.565  0.00  0.00    +0.292 HD
ENDBRANCH  12  21
BRANCH  17  23
ATOM     23  O   UNL     1     -34.920  20.976   5.967  0.00  0.00    -0.503 OA
ATOM     24  H   UNL     1     -35.515  20.775   6.662  0.00  0.00    +0.292 HD
ENDBRANCH  17  23
BRANCH  18  25
ATOM     25  O   UNL     1     -36.583  28.655   0.207  0.00  0.00    -0.503 OA
ATOM     26  H   UNL     1     -35.963  29.356   0.162  0.00  0.00    +0.292 HD
ENDBRANCH  18  25
TORSDOF 4
ENDMDL
MODEL 9
REMARK VINA RESULT:      -6.4      3.539      4.458
REMARK  Name = 5281855
REMARK  4 active torsions:
REMARK  status: ('A' for Active; 'I' for Inactive)
REMARK    1  A    between atoms: C_11  and  O_19
REMARK    2  A    between atoms: C_12  and  O_21
REMARK    3  A    between atoms: C_17  and  O_23
REMARK    4  A    between atoms: C_18  and  O_25
REMARK                            x       y       z     vdW  Elec       q    Type
REMARK                         _______ _______ _______ _____ _____    ______ ____
ROOT
ATOM      1  O   UNL     1     -34.903  24.154   5.788  0.00  0.00    -0.418 OA
ATOM      2  O   UNL     1     -34.527  23.780   0.777  0.00  0.00    -0.418 OA
ATOM      3  O   UNL     1     -35.845  22.164   6.425  0.00  0.00    -0.244 OA
ATOM      4  O   UNL     1     -33.587  25.771   0.140  0.00  0.00    -0.244 OA
ATOM      5  C   UNL     1     -34.450  24.612   3.449  0.00  0.00    +0.047 A 
ATOM      6  C   UNL     1     -34.979  23.322   3.116  0.00  0.00    +0.047 A 
ATOM      7  C   UNL     1     -35.462  22.465   4.104  0.00  0.00    +0.082 A 
ATOM      8  C   UNL     1     -33.968  25.469   2.461  0.00  0.00    +0.082 A 
ATOM      9  C   UNL     1     -34.417  25.016   4.778  0.00  0.00    +0.185 A 
ATOM     10  C   UNL     1     -35.013  22.919   1.787  0.00  0.00    +0.185 A 
ATOM     11  C   UNL     1     -33.912  26.258   5.151  0.00  0.00    +0.203 C 
ATOM     12  C   UNL     1     -35.517  21.676   1.414  0.00  0.00    +0.203 C 
ATOM     13  C   UNL     1     -35.973  21.211   3.750  0.00  0.00    +0.046 C 
ATOM     14  C   UNL     1     -33.456  26.723   2.815  0.00  0.00    +0.046 C 
ATOM     15  C   UNL     1     -35.431  22.885   5.527  0.00  0.00    +0.346 A 
ATOM     16  C   UNL     1     -33.999  25.049   1.038  0.00  0.00    +0.346 A 
ATOM     17  C   UNL     1     -33.430  27.112   4.159  0.00  0.00    +0.171 C 
ATOM     18  C   UNL     1     -35.998  20.822   2.405  0.00  0.00    +0.171 C 
ENDROOT
BRANCH  11  19
ATOM     19  O   UNL     1     -33.889  26.633   6.458  0.00  0.00    -0.501 OA
ATOM     20  H   UNL     1     -34.652  27.006   6.853  0.00  0.00    +0.292 HD
ENDBRANCH  11  19
BRANCH  12  21
ATOM     21  O   UNL     1     -35.540  21.301   0.106  0.00  0.00    -0.501 OA
ATOM     22  H   UNL     1     -35.080  21.805  -0.535  0.00  0.00    +0.292 HD
ENDBRANCH  12  21
BRANCH  17  23
ATOM     23  O   UNL     1     -32.930  28.336   4.488  0.00  0.00    -0.503 OA
ATOM     24  H   UNL     1     -33.449  28.937   4.985  0.00  0.00    +0.292 HD
ENDBRANCH  17  23
BRANCH  18  25
ATOM     25  O   UNL     1     -36.499  19.598   2.077  0.00  0.00    -0.503 OA
ATOM     26  H   UNL     1     -35.919  18.877   1.931  0.00  0.00    +0.292 HD
ENDBRANCH  18  25
TORSDOF 4
ENDMDL
