MODEL 1
REMARK VINA RESULT:      -5.2      0.000      0.000
REMARK  Name = 21627889
REMARK  5 active torsions:
REMARK  status: ('A' for Active; 'I' for Inactive)
REMARK    1  A    between atoms: C2*_2  and  O2*_15
REMARK    2  A    between atoms: C3*_3  and  O3*_17
REMARK    3  A    between atoms: C1*_4  and  N_8
REMARK    4  A    between atoms: C4*_5  and  C5*_19
REMARK    5  A    between atoms: C5*_19  and  O5*_20
REMARK                            x       y       z     vdW  Elec       q    Type
REMARK                         _______ _______ _______ _____ _____    ______ ____
ROOT
ATOM      1  O4* UNL     1     -36.718  24.126   4.530  0.00  0.00    -0.333 OA
ATOM      2  C2* UNL     1     -35.409  22.185   4.168  0.00  0.00    +0.187 C 
ATOM      3  C3* UNL     1     -35.236  22.626   5.607  0.00  0.00    +0.171 C 
ATOM      4  C1* UNL     1     -36.683  22.909   3.763  0.00  0.00    +0.227 C 
ATOM      5  C4* UNL     1     -35.700  24.074   5.553  0.00  0.00    +0.175 C 
ENDROOT
BRANCH   4   8
ATOM      6  S   UNL     1     -39.225  22.230   1.866  0.00  0.00    -0.018 S 
ATOM      7  S   UNL     1     -36.324  24.225  -2.053  0.00  0.00    -0.035 S 
ATOM      8  N   UNL     1     -36.676  23.195   2.350  0.00  0.00    -0.244 N 
ATOM      9  N   UNL     1     -37.544  23.280   0.120  0.00  0.00    -0.290 N 
ATOM     10  C   UNL     1     -37.750  22.926   1.456  0.00  0.00    +0.144 C 
ATOM     11  C   UNL     1     -35.516  23.785   1.832  0.00  0.00    +0.071 C 
ATOM     12  C   UNL     1     -35.329  24.119   0.553  0.00  0.00    +0.038 C 
ATOM     13  C   UNL     1     -36.410  23.862  -0.420  0.00  0.00    +0.087 C 
ATOM     14  H   UNL     1     -38.285  23.096  -0.504  0.00  0.00    +0.154 HD
ENDBRANCH   4   8
BRANCH   2  15
ATOM     15  O2* UNL     1     -35.521  20.781   4.050  0.00  0.00    -0.378 OA
ATOM     16  H2* UNL     1     -34.809  20.356   4.553  0.00  0.00    +0.211 HD
ENDBRANCH   2  15
BRANCH   3  17
ATOM     17  O3* UNL     1     -36.132  21.909   6.456  0.00  0.00    -0.379 OA
ATOM     18  H3* UNL     1     -36.303  21.032   6.077  0.00  0.00    +0.211 HD
ENDBRANCH   3  17
BRANCH   5  19
ATOM     19  C5* UNL     1     -34.593  25.048   5.171  0.00  0.00    +0.169 C 
BRANCH  19  20
ATOM     20  O5* UNL     1     -34.998  26.358   5.532  0.00  0.00    -0.379 OA
ATOM     21  H5* UNL     1     -34.226  26.862   5.833  0.00  0.00    +0.211 HD
ENDBRANCH  19  20
ENDBRANCH   5  19
TORSDOF 5
ENDMDL
MODEL 2
REMARK VINA RESULT:      -5.1      2.628      4.047
REMARK  Name = 21627889
REMARK  5 active torsions:
REMARK  status: ('A' for Active; 'I' for Inactive)
REMARK    1  A    between atoms: C2*_2  and  O2*_15
REMARK    2  A    between atoms: C3*_3  and  O3*_17
REMARK    3  A    between atoms: C1*_4  and  N_8
REMARK    4  A    between atoms: C4*_5  and  C5*_19
REMARK    5  A    between atoms: C5*_19  and  O5*_20
REMARK                            x       y       z     vdW  Elec       q    Type
REMARK                         _______ _______ _______ _____ _____    ______ ____
ROOT
ATOM      1  O4* UNL     1     -35.498  24.235   3.078  0.00  0.00    -0.333 OA
ATOM      2  C2* UNL     1     -36.300  25.363   5.000  0.00  0.00    +0.187 C 
ATOM      3  C3* UNL     1     -35.067  24.571   5.381  0.00  0.00    +0.171 C 
ATOM      4  C1* UNL     1     -36.179  25.435   3.486  0.00  0.00    +0.227 C 
ATOM      5  C4* UNL     1     -34.971  23.566   4.243  0.00  0.00    +0.175 C 
ENDROOT
BRANCH   4   8
ATOM      6  S   UNL     1     -36.845  27.589   1.154  0.00  0.00    -0.018 S 
ATOM      7  S   UNL     1     -41.685  25.506   1.170  0.00  0.00    -0.035 S 
ATOM      8  N   UNL     1     -37.482  25.517   2.876  0.00  0.00    -0.244 N 
ATOM      9  N   UNL     1     -39.167  26.351   1.392  0.00  0.00    -0.290 N 
ATOM     10  C   UNL     1     -37.850  26.433   1.851  0.00  0.00    +0.144 C 
ATOM     11  C   UNL     1     -38.452  24.618   3.337  0.00  0.00    +0.071 C 
ATOM     12  C   UNL     1     -39.709  24.546   2.892  0.00  0.00    +0.038 C 
ATOM     13  C   UNL     1     -40.145  25.474   1.829  0.00  0.00    +0.087 C 
ATOM     14  H   UNL     1     -39.427  26.983   0.682  0.00  0.00    +0.154 HD
ENDBRANCH   4   8
BRANCH   2  15
ATOM     15  O2* UNL     1     -36.323  26.640   5.605  0.00  0.00    -0.378 OA
ATOM     16  H2* UNL     1     -37.121  26.727   6.150  0.00  0.00    +0.211 HD
ENDBRANCH   2  15
BRANCH   3  17
ATOM     17  O3* UNL     1     -33.908  25.404   5.330  0.00  0.00    -0.379 OA
ATOM     18  H3* UNL     1     -33.982  26.013   4.578  0.00  0.00    +0.211 HD
ENDBRANCH   3  17
BRANCH   5  19
ATOM     19  C5* UNL     1     -35.794  22.306   4.480  0.00  0.00    +0.169 C 
BRANCH  19  20
ATOM     20  O5* UNL     1     -36.008  22.161   5.873  0.00  0.00    -0.379 OA
ATOM     21  H5* UNL     1     -36.958  22.223   6.062  0.00  0.00    +0.211 HD
ENDBRANCH  19  20
ENDBRANCH   5  19
TORSDOF 5
ENDMDL
MODEL 3
REMARK VINA RESULT:      -5.0      4.193      5.769
REMARK  Name = 21627889
REMARK  5 active torsions:
REMARK  status: ('A' for Active; 'I' for Inactive)
REMARK    1  A    between atoms: C2*_2  and  O2*_15
REMARK    2  A    between atoms: C3*_3  and  O3*_17
REMARK    3  A    between atoms: C1*_4  and  N_8
REMARK    4  A    between atoms: C4*_5  and  C5*_19
REMARK    5  A    between atoms: C5*_19  and  O5*_20
REMARK                            x       y       z     vdW  Elec       q    Type
REMARK                         _______ _______ _______ _____ _____    ______ ____
ROOT
ATOM      1  O4* UNL     1     -36.063  25.080   4.969  0.00  0.00    -0.333 OA
ATOM      2  C2* UNL     1     -34.512  24.443   3.296  0.00  0.00    +0.187 C 
ATOM      3  C3* UNL     1     -35.548  23.348   3.440  0.00  0.00    +0.171 C 
ATOM      4  C1* UNL     1     -35.204  25.627   3.951  0.00  0.00    +0.227 C 
ATOM      5  C4* UNL     1     -36.138  23.647   4.810  0.00  0.00    +0.175 C 
ENDROOT
BRANCH   4   8
ATOM      6  S   UNL     1     -34.032  28.164   2.305  0.00  0.00    -0.018 S 
ATOM      7  S   UNL     1     -31.203  29.156   6.638  0.00  0.00    -0.035 S 
ATOM      8  N   UNL     1     -34.236  26.526   4.528  0.00  0.00    -0.244 N 
ATOM      9  N   UNL     1     -32.752  28.403   4.604  0.00  0.00    -0.290 N 
ATOM     10  C   UNL     1     -33.677  27.657   3.869  0.00  0.00    +0.144 C 
ATOM     11  C   UNL     1     -33.825  26.253   5.838  0.00  0.00    +0.071 C 
ATOM     12  C   UNL     1     -32.940  26.973   6.532  0.00  0.00    +0.038 C 
ATOM     13  C   UNL     1     -32.326  28.158   5.898  0.00  0.00    +0.087 C 
ATOM     14  H   UNL     1     -32.361  29.188   4.153  0.00  0.00    +0.154 HD
ENDBRANCH   4   8
BRANCH   2  15
ATOM     15  O2* UNL     1     -34.178  24.689   1.944  0.00  0.00    -0.378 OA
ATOM     16  H2* UNL     1     -33.673  25.514   1.881  0.00  0.00    +0.211 HD
ENDBRANCH   2  15
BRANCH   3  17
ATOM     17  O3* UNL     1     -36.582  23.514   2.470  0.00  0.00    -0.379 OA
ATOM     18  H3* UNL     1     -37.116  22.705   2.426  0.00  0.00    +0.211 HD
ENDBRANCH   3  17
BRANCH   5  19
ATOM     19  C5* UNL     1     -35.367  23.001   5.953  0.00  0.00    +0.169 C 
BRANCH  19  20
ATOM     20  O5* UNL     1     -36.075  21.853   6.386  0.00  0.00    -0.379 OA
ATOM     21  H5* UNL     1     -37.015  22.071   6.481  0.00  0.00    +0.211 HD
ENDBRANCH  19  20
ENDBRANCH   5  19
TORSDOF 5
ENDMDL
MODEL 4
REMARK VINA RESULT:      -5.0      2.368      2.825
REMARK  Name = 21627889
REMARK  5 active torsions:
REMARK  status: ('A' for Active; 'I' for Inactive)
REMARK    1  A    between atoms: C2*_2  and  O2*_15
REMARK    2  A    between atoms: C3*_3  and  O3*_17
REMARK    3  A    between atoms: C1*_4  and  N_8
REMARK    4  A    between atoms: C4*_5  and  C5*_19
REMARK    5  A    between atoms: C5*_19  and  O5*_20
REMARK                            x       y       z     vdW  Elec       q    Type
REMARK                         _______ _______ _______ _____ _____    ______ ____
ROOT
ATOM      1  O4* UNL     1     -36.449  24.305   2.725  0.00  0.00    -0.333 OA
ATOM      2  C2* UNL     1     -35.778  22.991   4.578  0.00  0.00    +0.187 C 
ATOM      3  C3* UNL     1     -35.521  24.448   4.898  0.00  0.00    +0.171 C 
ATOM      4  C1* UNL     1     -36.761  23.085   3.423  0.00  0.00    +0.227 C 
ATOM      5  C4* UNL     1     -35.524  25.083   3.515  0.00  0.00    +0.175 C 
ENDROOT
BRANCH   4   8
ATOM      6  S   UNL     1     -39.316  21.784   1.906  0.00  0.00    -0.018 S 
ATOM      7  S   UNL     1     -35.859  18.371  -0.133  0.00  0.00    -0.035 S 
ATOM      8  N   UNL     1     -36.628  21.947   2.549  0.00  0.00    -0.244 N 
ATOM      9  N   UNL     1     -37.360  20.228   1.050  0.00  0.00    -0.290 N 
ATOM     10  C   UNL     1     -37.700  21.322   1.850  0.00  0.00    +0.144 C 
ATOM     11  C   UNL     1     -35.338  21.428   2.381  0.00  0.00    +0.071 C 
ATOM     12  C   UNL     1     -35.024  20.382   1.613  0.00  0.00    +0.038 C 
ATOM     13  C   UNL     1     -36.096  19.694   0.867  0.00  0.00    +0.087 C 
ATOM     14  H   UNL     1     -38.098  19.792   0.564  0.00  0.00    +0.154 HD
ENDBRANCH   4   8
BRANCH   2  15
ATOM     15  O2* UNL     1     -36.305  22.285   5.684  0.00  0.00    -0.378 OA
ATOM     16  H2* UNL     1     -36.827  22.890   6.234  0.00  0.00    +0.211 HD
ENDBRANCH   2  15
BRANCH   3  17
ATOM     17  O3* UNL     1     -36.615  24.994   5.635  0.00  0.00    -0.379 OA
ATOM     18  H3* UNL     1     -37.023  24.295   6.171  0.00  0.00    +0.211 HD
ENDBRANCH   3  17
BRANCH   5  19
ATOM     19  C5* UNL     1     -34.164  25.043   2.830  0.00  0.00    +0.169 C 
BRANCH  19  20
ATOM     20  O5* UNL     1     -33.176  25.448   3.761  0.00  0.00    -0.379 OA
ATOM     21  H5* UNL     1     -33.018  26.401   3.669  0.00  0.00    +0.211 HD
ENDBRANCH  19  20
ENDBRANCH   5  19
TORSDOF 5
ENDMDL
MODEL 5
REMARK VINA RESULT:      -5.0      2.031      3.503
REMARK  Name = 21627889
REMARK  5 active torsions:
REMARK  status: ('A' for Active; 'I' for Inactive)
REMARK    1  A    between atoms: C2*_2  and  O2*_15
REMARK    2  A    between atoms: C3*_3  and  O3*_17
REMARK    3  A    between atoms: C1*_4  and  N_8
REMARK    4  A    between atoms: C4*_5  and  C5*_19
REMARK    5  A    between atoms: C5*_19  and  O5*_20
REMARK                            x       y       z     vdW  Elec       q    Type
REMARK                         _______ _______ _______ _____ _____    ______ ____
ROOT
ATOM      1  O4* UNL     1     -35.010  23.524   3.946  0.00  0.00    -0.333 OA
ATOM      2  C2* UNL     1     -36.297  25.190   5.031  0.00  0.00    +0.187 C 
ATOM      3  C3* UNL     1     -35.171  24.770   5.952  0.00  0.00    +0.171 C 
ATOM      4  C1* UNL     1     -35.809  24.691   3.681  0.00  0.00    +0.227 C 
ATOM      5  C4* UNL     1     -34.765  23.426   5.366  0.00  0.00    +0.175 C 
ENDROOT
BRANCH   4   8
ATOM      6  S   UNL     1     -37.019  26.821   1.556  0.00  0.00    -0.018 S 
ATOM      7  S   UNL     1     -40.435  23.013   0.293  0.00  0.00    -0.035 S 
ATOM      8  N   UNL     1     -36.924  24.364   2.827  0.00  0.00    -0.244 N 
ATOM      9  N   UNL     1     -38.585  24.734   1.143  0.00  0.00    -0.290 N 
ATOM     10  C   UNL     1     -37.509  25.244   1.873  0.00  0.00    +0.144 C 
ATOM     11  C   UNL     1     -37.461  23.077   2.957  0.00  0.00    +0.071 C 
ATOM     12  C   UNL     1     -38.490  22.599   2.253  0.00  0.00    +0.038 C 
ATOM     13  C   UNL     1     -39.137  23.469   1.250  0.00  0.00    +0.087 C 
ATOM     14  H   UNL     1     -38.994  25.339   0.481  0.00  0.00    +0.154 HD
ENDBRANCH   4   8
BRANCH   2  15
ATOM     15  O2* UNL     1     -36.510  26.587   5.050  0.00  0.00    -0.378 OA
ATOM     16  H2* UNL     1     -35.922  26.996   5.704  0.00  0.00    +0.211 HD
ENDBRANCH   2  15
BRANCH   3  17
ATOM     17  O3* UNL     1     -34.063  25.661   5.818  0.00  0.00    -0.379 OA
ATOM     18  H3* UNL     1     -33.541  25.411   5.039  0.00  0.00    +0.211 HD
ENDBRANCH   3  17
BRANCH   5  19
ATOM     19  C5* UNL     1     -35.580  22.260   5.910  0.00  0.00    +0.169 C 
BRANCH  19  20
ATOM     20  O5* UNL     1     -34.881  21.056   5.645  0.00  0.00    -0.379 OA
ATOM     21  H5* UNL     1     -34.887  20.498   6.439  0.00  0.00    +0.211 HD
ENDBRANCH  19  20
ENDBRANCH   5  19
TORSDOF 5
ENDMDL
MODEL 6
REMARK VINA RESULT:      -4.9      1.538      3.329
REMARK  Name = 21627889
REMARK  5 active torsions:
REMARK  status: ('A' for Active; 'I' for Inactive)
REMARK    1  A    between atoms: C2*_2  and  O2*_15
REMARK    2  A    between atoms: C3*_3  and  O3*_17
REMARK    3  A    between atoms: C1*_4  and  N_8
REMARK    4  A    between atoms: C4*_5  and  C5*_19
REMARK    5  A    between atoms: C5*_19  and  O5*_20
REMARK                            x       y       z     vdW  Elec       q    Type
REMARK                         _______ _______ _______ _____ _____    ______ ____
ROOT
ATOM      1  O4* UNL     1     -34.868  23.687   3.966  0.00  0.00    -0.333 OA
ATOM      2  C2* UNL     1     -36.801  24.996   4.365  0.00  0.00    +0.187 C 
ATOM      3  C3* UNL     1     -35.869  25.132   5.551  0.00  0.00    +0.171 C 
ATOM      4  C1* UNL     1     -35.871  24.464   3.287  0.00  0.00    +0.227 C 
ATOM      5  C4* UNL     1     -34.968  23.917   5.388  0.00  0.00    +0.175 C 
ENDROOT
BRANCH   4   8
ATOM      6  S   UNL     1     -35.226  24.532   0.109  0.00  0.00    -0.018 S 
ATOM      7  S   UNL     1     -39.077  20.963  -0.340  0.00  0.00    -0.035 S 
ATOM      8  N   UNL     1     -36.599  23.651   2.346  0.00  0.00    -0.244 N 
ATOM      9  N   UNL     1     -37.189  22.766   0.200  0.00  0.00    -0.290 N 
ATOM     10  C   UNL     1     -36.374  23.626   0.940  0.00  0.00    +0.144 C 
ATOM     11  C   UNL     1     -37.601  22.824   2.869  0.00  0.00    +0.071 C 
ATOM     12  C   UNL     1     -38.374  22.004   2.153  0.00  0.00    +0.038 C 
ATOM     13  C   UNL     1     -38.186  21.939   0.690  0.00  0.00    +0.087 C 
ATOM     14  H   UNL     1     -37.038  22.745  -0.773  0.00  0.00    +0.154 HD
ENDBRANCH   4   8
BRANCH   2  15
ATOM     15  O2* UNL     1     -37.396  26.229   4.010  0.00  0.00    -0.378 OA
ATOM     16  H2* UNL     1     -38.199  26.063   3.492  0.00  0.00    +0.211 HD
ENDBRANCH   2  15
BRANCH   3  17
ATOM     17  O3* UNL     1     -35.060  26.301   5.415  0.00  0.00    -0.379 OA
ATOM     18  H3* UNL     1     -35.482  27.041   5.879  0.00  0.00    +0.211 HD
ENDBRANCH   3  17
BRANCH   5  19
ATOM     19  C5* UNL     1     -35.531  22.658   6.035  0.00  0.00    +0.169 C 
BRANCH  19  20
ATOM     20  O5* UNL     1     -34.506  21.681   6.092  0.00  0.00    -0.379 OA
ATOM     21  H5* UNL     1     -34.822  20.858   5.688  0.00  0.00    +0.211 HD
ENDBRANCH  19  20
ENDBRANCH   5  19
TORSDOF 5
ENDMDL
MODEL 7
REMARK VINA RESULT:      -4.8      3.210      4.413
REMARK  Name = 21627889
REMARK  5 active torsions:
REMARK  status: ('A' for Active; 'I' for Inactive)
REMARK    1  A    between atoms: C2*_2  and  O2*_15
REMARK    2  A    between atoms: C3*_3  and  O3*_17
REMARK    3  A    between atoms: C1*_4  and  N_8
REMARK    4  A    between atoms: C4*_5  and  C5*_19
REMARK    5  A    between atoms: C5*_19  and  O5*_20
REMARK                            x       y       z     vdW  Elec       q    Type
REMARK                         _______ _______ _______ _____ _____    ______ ____
ROOT
ATOM      1  O4* UNL     1     -34.782  22.419   1.993  0.00  0.00    -0.333 OA
ATOM      2  C2* UNL     1     -36.384  20.676   1.934  0.00  0.00    +0.187 C 
ATOM      3  C3* UNL     1     -35.119  20.196   1.253  0.00  0.00    +0.171 C 
ATOM      4  C1* UNL     1     -35.884  21.866   2.736  0.00  0.00    +0.227 C 
ATOM      5  C4* UNL     1     -34.412  21.506   0.937  0.00  0.00    +0.175 C 
ENDROOT
BRANCH   4   8
ATOM      6  S   UNL     1     -35.775  24.115   5.071  0.00  0.00    -0.018 S 
ATOM      7  S   UNL     1     -40.391  25.766   3.139  0.00  0.00    -0.035 S 
ATOM      8  N   UNL     1     -36.931  22.843   2.900  0.00  0.00    -0.244 N 
ATOM      9  N   UNL     1     -38.063  24.707   3.889  0.00  0.00    -0.290 N 
ATOM     10  C   UNL     1     -36.954  23.857   3.899  0.00  0.00    +0.144 C 
ATOM     11  C   UNL     1     -38.002  22.777   2.000  0.00  0.00    +0.071 C 
ATOM     12  C   UNL     1     -39.057  23.596   1.999  0.00  0.00    +0.038 C 
ATOM     13  C   UNL     1     -39.134  24.666   3.013  0.00  0.00    +0.087 C 
ATOM     14  H   UNL     1     -38.084  25.412   4.578  0.00  0.00    +0.154 HD
ENDBRANCH   4   8
BRANCH   2  15
ATOM     15  O2* UNL     1     -36.963  19.676   2.749  0.00  0.00    -0.378 OA
ATOM     16  H2* UNL     1     -37.906  19.591   2.537  0.00  0.00    +0.211 HD
ENDBRANCH   2  15
BRANCH   3  17
ATOM     17  O3* UNL     1     -34.306  19.468   2.173  0.00  0.00    -0.379 OA
ATOM     18  H3* UNL     1     -34.054  18.618   1.778  0.00  0.00    +0.211 HD
ENDBRANCH   3  17
BRANCH   5  19
ATOM     19  C5* UNL     1     -34.839  22.118  -0.391  0.00  0.00    +0.169 C 
BRANCH  19  20
ATOM     20  O5* UNL     1     -35.123  23.491  -0.187  0.00  0.00    -0.379 OA
ATOM     21  H5* UNL     1     -35.912  23.736  -0.695  0.00  0.00    +0.211 HD
ENDBRANCH  19  20
ENDBRANCH   5  19
TORSDOF 5
ENDMDL
MODEL 8
REMARK VINA RESULT:      -4.7      3.123      4.368
REMARK  Name = 21627889
REMARK  5 active torsions:
REMARK  status: ('A' for Active; 'I' for Inactive)
REMARK    1  A    between atoms: C2*_2  and  O2*_15
REMARK    2  A    between atoms: C3*_3  and  O3*_17
REMARK    3  A    between atoms: C1*_4  and  N_8
REMARK    4  A    between atoms: C4*_5  and  C5*_19
REMARK    5  A    between atoms: C5*_19  and  O5*_20
REMARK                            x       y       z     vdW  Elec       q    Type
REMARK                         _______ _______ _______ _____ _____    ______ ____
ROOT
ATOM      1  O4* UNL     1     -34.247  24.737   4.626  0.00  0.00    -0.333 OA
ATOM      2  C2* UNL     1     -36.041  25.574   3.326  0.00  0.00    +0.187 C 
ATOM      3  C3* UNL     1     -36.548  25.283   4.724  0.00  0.00    +0.171 C 
ATOM      4  C1* UNL     1     -34.537  25.632   3.537  0.00  0.00    +0.227 C 
ATOM      5  C4* UNL     1     -35.482  24.338   5.258  0.00  0.00    +0.175 C 
ENDROOT
BRANCH   4   8
ATOM      6  S   UNL     1     -31.772  27.047   2.602  0.00  0.00    -0.018 S 
ATOM      7  S   UNL     1     -31.909  23.708  -1.471  0.00  0.00    -0.035 S 
ATOM      8  N   UNL     1     -33.841  25.227   2.341  0.00  0.00    -0.244 N 
ATOM      9  N   UNL     1     -32.112  25.262   0.685  0.00  0.00    -0.290 N 
ATOM     10  C   UNL     1     -32.627  25.799   1.868  0.00  0.00    +0.144 C 
ATOM     11  C   UNL     1     -34.416  24.186   1.600  0.00  0.00    +0.071 C 
ATOM     12  C   UNL     1     -33.915  23.680   0.470  0.00  0.00    +0.038 C 
ATOM     13  C   UNL     1     -32.657  24.236  -0.068  0.00  0.00    +0.087 C 
ATOM     14  H   UNL     1     -31.272  25.654   0.353  0.00  0.00    +0.154 HD
ENDBRANCH   4   8
BRANCH   2  15
ATOM     15  O2* UNL     1     -36.565  26.781   2.809  0.00  0.00    -0.378 OA
ATOM     16  H2* UNL     1     -35.890  27.221   2.270  0.00  0.00    +0.211 HD
ENDBRANCH   2  15
BRANCH   3  17
ATOM     17  O3* UNL     1     -36.521  26.470   5.517  0.00  0.00    -0.379 OA
ATOM     18  H3* UNL     1     -36.254  26.246   6.423  0.00  0.00    +0.211 HD
ENDBRANCH   3  17
BRANCH   5  19
ATOM     19  C5* UNL     1     -35.742  22.878   4.911  0.00  0.00    +0.169 C 
BRANCH  19  20
ATOM     20  O5* UNL     1     -36.032  22.173   6.106  0.00  0.00    -0.379 OA
ATOM     21  H5* UNL     1     -35.304  22.294   6.736  0.00  0.00    +0.211 HD
ENDBRANCH  19  20
ENDBRANCH   5  19
TORSDOF 5
ENDMDL
MODEL 9
REMARK VINA RESULT:      -4.7      2.876      3.840
REMARK  Name = 21627889
REMARK  5 active torsions:
REMARK  status: ('A' for Active; 'I' for Inactive)
REMARK    1  A    between atoms: C2*_2  and  O2*_15
REMARK    2  A    between atoms: C3*_3  and  O3*_17
REMARK    3  A    between atoms: C1*_4  and  N_8
REMARK    4  A    between atoms: C4*_5  and  C5*_19
REMARK    5  A    between atoms: C5*_19  and  O5*_20
REMARK                            x       y       z     vdW  Elec       q    Type
REMARK                         _______ _______ _______ _____ _____    ______ ____
ROOT
ATOM      1  O4* UNL     1     -37.707  24.448   3.803  0.00  0.00    -0.333 OA
ATOM      2  C2* UNL     1     -35.439  25.125   3.894  0.00  0.00    +0.187 C 
ATOM      3  C3* UNL     1     -36.317  26.338   4.117  0.00  0.00    +0.171 C 
ATOM      4  C1* UNL     1     -36.398  23.979   4.176  0.00  0.00    +0.227 C 
ATOM      5  C4* UNL     1     -37.653  25.870   3.560  0.00  0.00    +0.175 C 
ENDROOT
BRANCH   4   8
ATOM      6  S   UNL     1     -35.063  21.369   5.563  0.00  0.00    -0.018 S 
ATOM      7  S   UNL     1     -35.013  19.314   0.712  0.00  0.00    -0.035 S 
ATOM      8  N   UNL     1     -36.035  22.813   3.411  0.00  0.00    -0.244 N 
ATOM      9  N   UNL     1     -35.169  20.612   3.034  0.00  0.00    -0.290 N 
ATOM     10  C   UNL     1     -35.446  21.633   3.947  0.00  0.00    +0.144 C 
ATOM     11  C   UNL     1     -36.288  22.859   2.034  0.00  0.00    +0.071 C 
ATOM     12  C   UNL     1     -36.020  21.877   1.170  0.00  0.00    +0.038 C 
ATOM     13  C   UNL     1     -35.408  20.630   1.671  0.00  0.00    +0.087 C 
ATOM     14  H   UNL     1     -34.762  19.793   3.400  0.00  0.00    +0.154 HD
ENDBRANCH   4   8
BRANCH   2  15
ATOM     15  O2* UNL     1     -34.314  25.115   4.750  0.00  0.00    -0.378 OA
ATOM     16  H2* UNL     1     -34.330  24.313   5.296  0.00  0.00    +0.211 HD
ENDBRANCH   2  15
BRANCH   3  17
ATOM     17  O3* UNL     1     -36.484  26.579   5.515  0.00  0.00    -0.379 OA
ATOM     18  H3* UNL     1     -35.634  26.452   5.967  0.00  0.00    +0.211 HD
ENDBRANCH   3  17
BRANCH   5  19
ATOM     19  C5* UNL     1     -37.797  26.101   2.062  0.00  0.00    +0.169 C 
BRANCH  19  20
ATOM     20  O5* UNL     1     -37.534  27.466   1.787  0.00  0.00    -0.379 OA
ATOM     21  H5* UNL     1     -38.374  27.947   1.713  0.00  0.00    +0.211 HD
ENDBRANCH  19  20
ENDBRANCH   5  19
TORSDOF 5
ENDMDL
