MODEL 1
REMARK VINA RESULT:      -4.4      0.000      0.000
REMARK  Name = 194974
REMARK  13 active torsions:
REMARK  status: ('A' for Active; 'I' for Inactive)
REMARK    1  A    between atoms: S_1  and  S_2
REMARK    2  A    between atoms: S_1  and  C_14
REMARK    3  A    between atoms: S_2  and  C_3
REMARK    4  A    between atoms: C_3  and  C_4
REMARK    5  A    between atoms: C_4  and  N_6
REMARK    6  A    between atoms: C_7  and  C_10
REMARK    7  A    between atoms: C_9  and  C_11
REMARK    8  A    between atoms: C_11  and  C_12
REMARK    9  A    between atoms: C_14  and  C_15
REMARK   10  A    between atoms: C_15  and  N_17
REMARK   11  A    between atoms: C_18  and  C_21
REMARK   12  A    between atoms: C_20  and  C_22
REMARK   13  A    between atoms: C_22  and  C_23
REMARK                            x       y       z     vdW  Elec       q    Type
REMARK                         _______ _______ _______ _____ _____    ______ ____
ROOT
ATOM      1  S   UNL     1     -36.038  21.095  -1.197  0.00  0.00    -0.080 S 
ENDROOT
BRANCH   1   2
ATOM      2  S   UNL     1     -35.357  19.734   0.184  0.00  0.00    -0.080 S 
BRANCH   2   3
ATOM      3  C   UNL     1     -34.784  20.815   1.517  0.00  0.00    +0.090 C 
BRANCH   3   4
ATOM      4  C   UNL     1     -35.547  20.583   2.814  0.00  0.00    +0.102 C 
BRANCH   4   6
ATOM      5  O   UNL     1     -35.034  20.875   5.620  0.00  0.00    -0.270 OA
ATOM      6  N   UNL     1     -35.712  21.781   3.592  0.00  0.00    -0.300 N 
ATOM      7  C   UNL     1     -35.436  21.821   4.951  0.00  0.00    +0.246 C 
ATOM      8  H   UNL     1     -36.030  22.598   3.146  0.00  0.00    +0.150 HD
BRANCH   7  10
ATOM      9  C   UNL     1     -34.951  24.221   5.133  0.00  0.00    -0.021 C 
ATOM     10  C   UNL     1     -35.680  23.169   5.532  0.00  0.00    +0.053 C 
BRANCH   9  11
ATOM     11  C   UNL     1     -35.143  25.610   5.669  0.00  0.00    +0.026 C 
BRANCH  11  12
ATOM     12  C   UNL     1     -33.808  26.343   5.801  0.00  0.00    +0.005 C 
ATOM     13  C   UNL     1     -33.391  26.980   4.485  0.00  0.00    +0.000 C 
ENDBRANCH  11  12
ENDBRANCH   9  11
ENDBRANCH   7  10
ENDBRANCH   4   6
ENDBRANCH   3   4
ENDBRANCH   2   3
ENDBRANCH   1   2
BRANCH   1  14
ATOM     14  C   UNL     1     -37.803  20.669  -1.284  0.00  0.00    +0.090 C 
BRANCH  14  15
ATOM     15  C   UNL     1     -38.409  20.443   0.094  0.00  0.00    +0.102 C 
BRANCH  15  17
ATOM     16  O   UNL     1     -40.455  21.134   1.983  0.00  0.00    -0.270 OA
ATOM     17  N   UNL     1     -38.473  21.647   0.888  0.00  0.00    -0.300 N 
ATOM     18  C   UNL     1     -39.507  21.886   1.776  0.00  0.00    +0.246 C 
ATOM     19  H   UNL     1     -37.757  22.318   0.797  0.00  0.00    +0.150 HD
BRANCH  18  21
ATOM     20  C   UNL     1     -38.227  23.907   2.325  0.00  0.00    -0.021 C 
ATOM     21  C   UNL     1     -39.349  23.189   2.477  0.00  0.00    +0.053 C 
BRANCH  20  22
ATOM     22  C   UNL     1     -37.998  25.231   2.996  0.00  0.00    +0.026 C 
BRANCH  22  23
ATOM     23  C   UNL     1     -36.845  25.992   2.341  0.00  0.00    +0.005 C 
ATOM     24  C   UNL     1     -35.789  25.043   1.798  0.00  0.00    +0.000 C 
ENDBRANCH  22  23
ENDBRANCH  20  22
ENDBRANCH  18  21
ENDBRANCH  15  17
ENDBRANCH  14  15
ENDBRANCH   1  14
TORSDOF 13
ENDMDL
MODEL 2
REMARK VINA RESULT:      -4.3      5.776      7.647
REMARK  Name = 194974
REMARK  13 active torsions:
REMARK  status: ('A' for Active; 'I' for Inactive)
REMARK    1  A    between atoms: S_1  and  S_2
REMARK    2  A    between atoms: S_1  and  C_14
REMARK    3  A    between atoms: S_2  and  C_3
REMARK    4  A    between atoms: C_3  and  C_4
REMARK    5  A    between atoms: C_4  and  N_6
REMARK    6  A    between atoms: C_7  and  C_10
REMARK    7  A    between atoms: C_9  and  C_11
REMARK    8  A    between atoms: C_11  and  C_12
REMARK    9  A    between atoms: C_14  and  C_15
REMARK   10  A    between atoms: C_15  and  N_17
REMARK   11  A    between atoms: C_18  and  C_21
REMARK   12  A    between atoms: C_20  and  C_22
REMARK   13  A    between atoms: C_22  and  C_23
REMARK                            x       y       z     vdW  Elec       q    Type
REMARK                         _______ _______ _______ _____ _____    ______ ____
ROOT
ATOM      1  S   UNL     1     -33.068  28.076   1.016  0.00  0.00    -0.080 S 
ENDROOT
BRANCH   1   2
ATOM      2  S   UNL     1     -31.977  26.835   2.238  0.00  0.00    -0.080 S 
BRANCH   2   3
ATOM      3  C   UNL     1     -31.233  28.013   3.391  0.00  0.00    +0.090 C 
BRANCH   3   4
ATOM      4  C   UNL     1     -32.233  28.517   4.423  0.00  0.00    +0.102 C 
BRANCH   4   6
ATOM      5  O   UNL     1     -32.457  26.902   6.783  0.00  0.00    -0.270 OA
ATOM      6  N   UNL     1     -33.272  27.565   4.711  0.00  0.00    -0.300 N 
ATOM      7  C   UNL     1     -33.293  26.828   5.887  0.00  0.00    +0.246 C 
ATOM      8  H   UNL     1     -33.991  27.432   4.053  0.00  0.00    +0.150 HD
BRANCH   7  10
ATOM      9  C   UNL     1     -34.697  25.037   4.970  0.00  0.00    -0.021 C 
ATOM     10  C   UNL     1     -34.465  25.915   5.956  0.00  0.00    +0.053 C 
BRANCH   9  11
ATOM     11  C   UNL     1     -35.856  24.082   4.972  0.00  0.00    +0.026 C 
BRANCH  11  12
ATOM     12  C   UNL     1     -35.378  22.630   5.015  0.00  0.00    +0.005 C 
ATOM     13  C   UNL     1     -35.295  22.114   6.443  0.00  0.00    +0.000 C 
ENDBRANCH  11  12
ENDBRANCH   9  11
ENDBRANCH   7  10
ENDBRANCH   4   6
ENDBRANCH   3   4
ENDBRANCH   2   3
ENDBRANCH   1   2
BRANCH   1  14
ATOM     14  C   UNL     1     -34.724  27.332   1.131  0.00  0.00    +0.090 C 
BRANCH  14  15
ATOM     15  C   UNL     1     -35.636  28.103   2.075  0.00  0.00    +0.102 C 
BRANCH  15  17
ATOM     16  O   UNL     1     -35.242  30.611   3.411  0.00  0.00    -0.270 OA
ATOM     17  N   UNL     1     -35.996  29.408   1.573  0.00  0.00    -0.300 N 
ATOM     18  C   UNL     1     -35.762  30.562   2.299  0.00  0.00    +0.246 C 
ATOM     19  H   UNL     1     -36.420  29.479   0.687  0.00  0.00    +0.150 HD
BRANCH  18  21
ATOM     20  C   UNL     1     -37.355  32.391   1.924  0.00  0.00    -0.021 C 
ATOM     21  C   UNL     1     -36.217  31.778   1.572  0.00  0.00    +0.053 C 
BRANCH  20  22
ATOM     22  C   UNL     1     -37.874  33.624   1.241  0.00  0.00    +0.026 C 
BRANCH  22  23
ATOM     23  C   UNL     1     -38.837  34.395   2.143  0.00  0.00    +0.005 C 
ATOM     24  C   UNL     1     -38.620  35.896   2.034  0.00  0.00    +0.000 C 
ENDBRANCH  22  23
ENDBRANCH  20  22
ENDBRANCH  18  21
ENDBRANCH  15  17
ENDBRANCH  14  15
ENDBRANCH   1  14
TORSDOF 13
ENDMDL
MODEL 3
REMARK VINA RESULT:      -4.2      2.547      3.090
REMARK  Name = 194974
REMARK  13 active torsions:
REMARK  status: ('A' for Active; 'I' for Inactive)
REMARK    1  A    between atoms: S_1  and  S_2
REMARK    2  A    between atoms: S_1  and  C_14
REMARK    3  A    between atoms: S_2  and  C_3
REMARK    4  A    between atoms: C_3  and  C_4
REMARK    5  A    between atoms: C_4  and  N_6
REMARK    6  A    between atoms: C_7  and  C_10
REMARK    7  A    between atoms: C_9  and  C_11
REMARK    8  A    between atoms: C_11  and  C_12
REMARK    9  A    between atoms: C_14  and  C_15
REMARK   10  A    between atoms: C_15  and  N_17
REMARK   11  A    between atoms: C_18  and  C_21
REMARK   12  A    between atoms: C_20  and  C_22
REMARK   13  A    between atoms: C_22  and  C_23
REMARK                            x       y       z     vdW  Elec       q    Type
REMARK                         _______ _______ _______ _____ _____    ______ ____
ROOT
ATOM      1  S   UNL     1     -37.950  22.973  -0.120  0.00  0.00    -0.080 S 
ENDROOT
BRANCH   1   2
ATOM      2  S   UNL     1     -36.210  22.888   0.970  0.00  0.00    -0.080 S 
BRANCH   2   3
ATOM      3  C   UNL     1     -36.030  21.109   1.240  0.00  0.00    +0.090 C 
BRANCH   3   4
ATOM      4  C   UNL     1     -35.905  20.761   2.717  0.00  0.00    +0.102 C 
BRANCH   4   6
ATOM      5  O   UNL     1     -34.962  20.927   5.421  0.00  0.00    -0.270 OA
ATOM      6  N   UNL     1     -35.967  21.914   3.574  0.00  0.00    -0.300 N 
ATOM      7  C   UNL     1     -35.481  21.895   4.874  0.00  0.00    +0.246 C 
ATOM      8  H   UNL     1     -36.366  22.744   3.227  0.00  0.00    +0.150 HD
BRANCH   7  10
ATOM      9  C   UNL     1     -35.031  24.298   5.094  0.00  0.00    -0.021 C 
ATOM     10  C   UNL     1     -35.656  23.206   5.556  0.00  0.00    +0.053 C 
BRANCH   9  11
ATOM     11  C   UNL     1     -35.163  25.653   5.726  0.00  0.00    +0.026 C 
BRANCH  11  12
ATOM     12  C   UNL     1     -33.804  26.343   5.848  0.00  0.00    +0.005 C 
ATOM     13  C   UNL     1     -33.375  26.963   4.527  0.00  0.00    +0.000 C 
ENDBRANCH  11  12
ENDBRANCH   9  11
ENDBRANCH   7  10
ENDBRANCH   4   6
ENDBRANCH   3   4
ENDBRANCH   2   3
ENDBRANCH   1   2
BRANCH   1  14
ATOM     14  C   UNL     1     -38.920  21.637   0.643  0.00  0.00    +0.090 C 
BRANCH  14  15
ATOM     15  C   UNL     1     -39.362  21.983   2.058  0.00  0.00    +0.102 C 
BRANCH  15  17
ATOM     16  O   UNL     1     -38.269  24.141   3.600  0.00  0.00    -0.270 OA
ATOM     17  N   UNL     1     -39.903  23.317   2.170  0.00  0.00    -0.300 N 
ATOM     18  C   UNL     1     -39.296  24.291   2.944  0.00  0.00    +0.246 C 
ATOM     19  H   UNL     1     -40.727  23.542   1.680  0.00  0.00    +0.150 HD
BRANCH  18  21
ATOM     20  C   UNL     1     -41.243  25.647   2.316  0.00  0.00    -0.021 C 
ATOM     21  C   UNL     1     -40.037  25.580   2.897  0.00  0.00    +0.053 C 
BRANCH  20  22
ATOM     22  C   UNL     1     -42.052  26.910   2.236  0.00  0.00    +0.026 C 
BRANCH  22  23
ATOM     23  C   UNL     1     -42.301  27.499   3.624  0.00  0.00    +0.005 C 
ATOM     24  C   UNL     1     -43.368  28.581   3.585  0.00  0.00    +0.000 C 
ENDBRANCH  22  23
ENDBRANCH  20  22
ENDBRANCH  18  21
ENDBRANCH  15  17
ENDBRANCH  14  15
ENDBRANCH   1  14
TORSDOF 13
ENDMDL
MODEL 4
REMARK VINA RESULT:      -4.2      1.118      4.843
REMARK  Name = 194974
REMARK  13 active torsions:
REMARK  status: ('A' for Active; 'I' for Inactive)
REMARK    1  A    between atoms: S_1  and  S_2
REMARK    2  A    between atoms: S_1  and  C_14
REMARK    3  A    between atoms: S_2  and  C_3
REMARK    4  A    between atoms: C_3  and  C_4
REMARK    5  A    between atoms: C_4  and  N_6
REMARK    6  A    between atoms: C_7  and  C_10
REMARK    7  A    between atoms: C_9  and  C_11
REMARK    8  A    between atoms: C_11  and  C_12
REMARK    9  A    between atoms: C_14  and  C_15
REMARK   10  A    between atoms: C_15  and  N_17
REMARK   11  A    between atoms: C_18  and  C_21
REMARK   12  A    between atoms: C_20  and  C_22
REMARK   13  A    between atoms: C_22  and  C_23
REMARK                            x       y       z     vdW  Elec       q    Type
REMARK                         _______ _______ _______ _____ _____    ______ ____
ROOT
ATOM      1  S   UNL     1     -36.570  19.410   0.456  0.00  0.00    -0.080 S 
ENDROOT
BRANCH   1   2
ATOM      2  S   UNL     1     -37.446  20.090  -1.275  0.00  0.00    -0.080 S 
BRANCH   2   3
ATOM      3  C   UNL     1     -39.117  19.410  -1.134  0.00  0.00    +0.090 C 
BRANCH   3   4
ATOM      4  C   UNL     1     -40.183  20.497  -1.158  0.00  0.00    +0.102 C 
BRANCH   4   6
ATOM      5  O   UNL     1     -40.470  21.064   1.638  0.00  0.00    -0.270 OA
ATOM      6  N   UNL     1     -39.776  21.700  -0.485  0.00  0.00    -0.300 N 
ATOM      7  C   UNL     1     -39.959  21.881   0.879  0.00  0.00    +0.246 C 
ATOM      8  H   UNL     1     -39.355  22.419  -1.008  0.00  0.00    +0.150 HD
BRANCH   7  10
ATOM      9  C   UNL     1     -39.746  23.645   2.573  0.00  0.00    -0.021 C 
ATOM     10  C   UNL     1     -39.456  23.203   1.341  0.00  0.00    +0.053 C 
BRANCH   9  11
ATOM     11  C   UNL     1     -39.271  24.963   3.110  0.00  0.00    +0.026 C 
BRANCH  11  12
ATOM     12  C   UNL     1     -37.751  24.979   3.276  0.00  0.00    +0.005 C 
ATOM     13  C   UNL     1     -37.134  26.214   2.639  0.00  0.00    +0.000 C 
ENDBRANCH  11  12
ENDBRANCH   9  11
ENDBRANCH   7  10
ENDBRANCH   4   6
ENDBRANCH   3   4
ENDBRANCH   2   3
ENDBRANCH   1   2
BRANCH   1  14
ATOM     14  C   UNL     1     -36.395  20.953   1.402  0.00  0.00    +0.090 C 
BRANCH  14  15
ATOM     15  C   UNL     1     -35.822  20.713   2.792  0.00  0.00    +0.102 C 
BRANCH  15  17
ATOM     16  O   UNL     1     -35.054  20.880   5.551  0.00  0.00    -0.270 OA
ATOM     17  N   UNL     1     -35.781  21.909   3.601  0.00  0.00    -0.300 N 
ATOM     18  C   UNL     1     -35.394  21.883   4.929  0.00  0.00    +0.246 C 
ATOM     19  H   UNL     1     -36.035  22.769   3.194  0.00  0.00    +0.150 HD
BRANCH  18  21
ATOM     20  C   UNL     1     -34.627  24.208   5.093  0.00  0.00    -0.021 C 
ATOM     21  C   UNL     1     -35.430  23.236   5.546  0.00  0.00    +0.053 C 
BRANCH  20  22
ATOM     22  C   UNL     1     -34.612  25.598   5.661  0.00  0.00    +0.026 C 
BRANCH  22  23
ATOM     23  C   UNL     1     -33.811  26.552   4.775  0.00  0.00    +0.005 C 
ATOM     24  C   UNL     1     -33.473  25.914   3.436  0.00  0.00    +0.000 C 
ENDBRANCH  22  23
ENDBRANCH  20  22
ENDBRANCH  18  21
ENDBRANCH  15  17
ENDBRANCH  14  15
ENDBRANCH   1  14
TORSDOF 13
ENDMDL
MODEL 5
REMARK VINA RESULT:      -4.2      2.874      5.980
REMARK  Name = 194974
REMARK  13 active torsions:
REMARK  status: ('A' for Active; 'I' for Inactive)
REMARK    1  A    between atoms: S_1  and  S_2
REMARK    2  A    between atoms: S_1  and  C_14
REMARK    3  A    between atoms: S_2  and  C_3
REMARK    4  A    between atoms: C_3  and  C_4
REMARK    5  A    between atoms: C_4  and  N_6
REMARK    6  A    between atoms: C_7  and  C_10
REMARK    7  A    between atoms: C_9  and  C_11
REMARK    8  A    between atoms: C_11  and  C_12
REMARK    9  A    between atoms: C_14  and  C_15
REMARK   10  A    between atoms: C_15  and  N_17
REMARK   11  A    between atoms: C_18  and  C_21
REMARK   12  A    between atoms: C_20  and  C_22
REMARK   13  A    between atoms: C_22  and  C_23
REMARK                            x       y       z     vdW  Elec       q    Type
REMARK                         _______ _______ _______ _____ _____    ______ ____
ROOT
ATOM      1  S   UNL     1     -38.242  24.535   1.061  0.00  0.00    -0.080 S 
ENDROOT
BRANCH   1   2
ATOM      2  S   UNL     1     -39.599  23.148   1.741  0.00  0.00    -0.080 S 
BRANCH   2   3
ATOM      3  C   UNL     1     -38.546  21.699   2.000  0.00  0.00    +0.090 C 
BRANCH   3   4
ATOM      4  C   UNL     1     -37.065  22.052   1.968  0.00  0.00    +0.102 C 
BRANCH   4   6
ATOM      5  O   UNL     1     -34.439  21.767   0.850  0.00  0.00    -0.270 OA
ATOM      6  N   UNL     1     -36.210  20.901   2.078  0.00  0.00    -0.300 N 
ATOM      7  C   UNL     1     -34.950  20.859   1.498  0.00  0.00    +0.246 C 
ATOM      8  H   UNL     1     -36.530  20.117   2.580  0.00  0.00    +0.150 HD
BRANCH   7  10
ATOM      9  C   UNL     1     -33.111  19.277   1.124  0.00  0.00    -0.021 C 
ATOM     10  C   UNL     1     -34.259  19.566   1.753  0.00  0.00    +0.053 C 
BRANCH   9  11
ATOM     11  C   UNL     1     -32.356  17.997   1.332  0.00  0.00    +0.026 C 
BRANCH  11  12
ATOM     12  C   UNL     1     -30.922  18.108   0.813  0.00  0.00    +0.005 C 
ATOM     13  C   UNL     1     -30.749  19.322  -0.085  0.00  0.00    +0.000 C 
ENDBRANCH  11  12
ENDBRANCH   9  11
ENDBRANCH   7  10
ENDBRANCH   4   6
ENDBRANCH   3   4
ENDBRANCH   2   3
ENDBRANCH   1   2
BRANCH   1  14
ATOM     14  C   UNL     1     -38.314  25.786   2.378  0.00  0.00    +0.090 C 
BRANCH  14  15
ATOM     15  C   UNL     1     -38.206  25.169   3.765  0.00  0.00    +0.102 C 
BRANCH  15  17
ATOM     16  O   UNL     1     -36.541  23.160   4.959  0.00  0.00    -0.270 OA
ATOM     17  N   UNL     1     -36.915  25.377   4.377  0.00  0.00    -0.300 N 
ATOM     18  C   UNL     1     -36.188  24.336   4.927  0.00  0.00    +0.246 C 
ATOM     19  H   UNL     1     -36.539  26.287   4.403  0.00  0.00    +0.150 HD
BRANCH  18  21
ATOM     20  C   UNL     1     -34.597  26.107   5.524  0.00  0.00    -0.021 C 
ATOM     21  C   UNL     1     -34.892  24.800   5.492  0.00  0.00    +0.053 C 
BRANCH  20  22
ATOM     22  C   UNL     1     -33.313  26.650   6.083  0.00  0.00    +0.026 C 
BRANCH  22  23
ATOM     23  C   UNL     1     -32.733  27.741   5.183  0.00  0.00    +0.005 C 
ATOM     24  C   UNL     1     -31.780  28.645   5.948  0.00  0.00    +0.000 C 
ENDBRANCH  22  23
ENDBRANCH  20  22
ENDBRANCH  18  21
ENDBRANCH  15  17
ENDBRANCH  14  15
ENDBRANCH   1  14
TORSDOF 13
ENDMDL
MODEL 6
REMARK VINA RESULT:      -4.2      3.830      5.432
REMARK  Name = 194974
REMARK  13 active torsions:
REMARK  status: ('A' for Active; 'I' for Inactive)
REMARK    1  A    between atoms: S_1  and  S_2
REMARK    2  A    between atoms: S_1  and  C_14
REMARK    3  A    between atoms: S_2  and  C_3
REMARK    4  A    between atoms: C_3  and  C_4
REMARK    5  A    between atoms: C_4  and  N_6
REMARK    6  A    between atoms: C_7  and  C_10
REMARK    7  A    between atoms: C_9  and  C_11
REMARK    8  A    between atoms: C_11  and  C_12
REMARK    9  A    between atoms: C_14  and  C_15
REMARK   10  A    between atoms: C_15  and  N_17
REMARK   11  A    between atoms: C_18  and  C_21
REMARK   12  A    between atoms: C_20  and  C_22
REMARK   13  A    between atoms: C_22  and  C_23
REMARK                            x       y       z     vdW  Elec       q    Type
REMARK                         _______ _______ _______ _____ _____    ______ ____
ROOT
ATOM      1  S   UNL     1     -36.939  29.031   0.272  0.00  0.00    -0.080 S 
ENDROOT
BRANCH   1   2
ATOM      2  S   UNL     1     -35.844  28.065   1.718  0.00  0.00    -0.080 S 
BRANCH   2   3
ATOM      3  C   UNL     1     -34.181  28.709   1.413  0.00  0.00    +0.090 C 
BRANCH   3   4
ATOM      4  C   UNL     1     -33.198  28.302   2.502  0.00  0.00    +0.102 C 
BRANCH   4   6
ATOM      5  O   UNL     1     -32.904  27.921   5.330  0.00  0.00    -0.270 OA
ATOM      6  N   UNL     1     -33.639  27.163   3.261  0.00  0.00    -0.300 N 
ATOM      7  C   UNL     1     -33.450  27.071   4.633  0.00  0.00    +0.246 C 
ATOM      8  H   UNL     1     -34.090  26.425   2.792  0.00  0.00    +0.150 HD
BRANCH   7  10
ATOM      9  C   UNL     1     -35.260  25.443   4.942  0.00  0.00    -0.021 C 
ATOM     10  C   UNL     1     -33.993  25.803   5.189  0.00  0.00    +0.053 C 
BRANCH   9  11
ATOM     11  C   UNL     1     -35.876  24.178   5.465  0.00  0.00    +0.026 C 
BRANCH  11  12
ATOM     12  C   UNL     1     -34.812  23.115   5.740  0.00  0.00    +0.005 C 
ATOM     13  C   UNL     1     -35.431  21.833   6.274  0.00  0.00    +0.000 C 
ENDBRANCH  11  12
ENDBRANCH   9  11
ENDBRANCH   7  10
ENDBRANCH   4   6
ENDBRANCH   3   4
ENDBRANCH   2   3
ENDBRANCH   1   2
BRANCH   1  14
ATOM     14  C   UNL     1     -37.763  27.634  -0.551  0.00  0.00    +0.090 C 
BRANCH  14  15
ATOM     15  C   UNL     1     -38.961  27.126   0.239  0.00  0.00    +0.102 C 
BRANCH  15  17
ATOM     16  O   UNL     1     -39.788  26.506   2.915  0.00  0.00    -0.270 OA
ATOM     17  N   UNL     1     -38.686  25.906   0.961  0.00  0.00    -0.300 N 
ATOM     18  C   UNL     1     -39.133  25.704   2.255  0.00  0.00    +0.246 C 
ATOM     19  H   UNL     1     -38.166  25.196   0.519  0.00  0.00    +0.150 HD
BRANCH  18  21
ATOM     20  C   UNL     1     -37.692  23.717   2.239  0.00  0.00    -0.021 C 
ATOM     21  C   UNL     1     -38.727  24.373   2.782  0.00  0.00    +0.053 C 
BRANCH  20  22
ATOM     22  C   UNL     1     -37.222  22.374   2.720  0.00  0.00    +0.026 C 
BRANCH  22  23
ATOM     23  C   UNL     1     -35.780  22.104   2.289  0.00  0.00    +0.005 C 
ATOM     24  C   UNL     1     -35.353  20.686   2.636  0.00  0.00    +0.000 C 
ENDBRANCH  22  23
ENDBRANCH  20  22
ENDBRANCH  18  21
ENDBRANCH  15  17
ENDBRANCH  14  15
ENDBRANCH   1  14
TORSDOF 13
ENDMDL
MODEL 7
REMARK VINA RESULT:      -4.1      3.192      6.841
REMARK  Name = 194974
REMARK  13 active torsions:
REMARK  status: ('A' for Active; 'I' for Inactive)
REMARK    1  A    between atoms: S_1  and  S_2
REMARK    2  A    between atoms: S_1  and  C_14
REMARK    3  A    between atoms: S_2  and  C_3
REMARK    4  A    between atoms: C_3  and  C_4
REMARK    5  A    between atoms: C_4  and  N_6
REMARK    6  A    between atoms: C_7  and  C_10
REMARK    7  A    between atoms: C_9  and  C_11
REMARK    8  A    between atoms: C_11  and  C_12
REMARK    9  A    between atoms: C_14  and  C_15
REMARK   10  A    between atoms: C_15  and  N_17
REMARK   11  A    between atoms: C_18  and  C_21
REMARK   12  A    between atoms: C_20  and  C_22
REMARK   13  A    between atoms: C_22  and  C_23
REMARK                            x       y       z     vdW  Elec       q    Type
REMARK                         _______ _______ _______ _____ _____    ______ ____
ROOT
ATOM      1  S   UNL     1     -37.174  26.805   1.479  0.00  0.00    -0.080 S 
ENDROOT
BRANCH   1   2
ATOM      2  S   UNL     1     -38.552  25.668   2.496  0.00  0.00    -0.080 S 
BRANCH   2   3
ATOM      3  C   UNL     1     -38.209  24.012   1.853  0.00  0.00    +0.090 C 
BRANCH   3   4
ATOM      4  C   UNL     1     -37.947  23.006   2.967  0.00  0.00    +0.102 C 
BRANCH   4   6
ATOM      5  O   UNL     1     -35.461  22.328   4.225  0.00  0.00    -0.270 OA
ATOM      6  N   UNL     1     -37.051  21.953   2.574  0.00  0.00    -0.300 N 
ATOM      7  C   UNL     1     -35.865  21.702   3.250  0.00  0.00    +0.246 C 
ATOM      8  H   UNL     1     -37.286  21.391   1.802  0.00  0.00    +0.150 HD
BRANCH   7  10
ATOM      9  C   UNL     1     -35.139  20.349   1.336  0.00  0.00    -0.021 C 
ATOM     10  C   UNL     1     -35.113  20.563   2.659  0.00  0.00    +0.053 C 
BRANCH   9  11
ATOM     11  C   UNL     1     -34.403  19.224   0.667  0.00  0.00    +0.026 C 
BRANCH  11  12
ATOM     12  C   UNL     1     -33.198  18.779   1.496  0.00  0.00    +0.005 C 
ATOM     13  C   UNL     1     -31.912  18.844   0.687  0.00  0.00    +0.000 C 
ENDBRANCH  11  12
ENDBRANCH   9  11
ENDBRANCH   7  10
ENDBRANCH   4   6
ENDBRANCH   3   4
ENDBRANCH   2   3
ENDBRANCH   1   2
BRANCH   1  14
ATOM     14  C   UNL     1     -35.674  26.524   2.467  0.00  0.00    +0.090 C 
BRANCH  14  15
ATOM     15  C   UNL     1     -35.995  26.111   3.897  0.00  0.00    +0.102 C 
BRANCH  15  17
ATOM     16  O   UNL     1     -33.514  25.001   4.812  0.00  0.00    -0.270 OA
ATOM     17  N   UNL     1     -35.101  26.695   4.868  0.00  0.00    -0.300 N 
ATOM     18  C   UNL     1     -33.921  26.076   5.243  0.00  0.00    +0.246 C 
ATOM     19  H   UNL     1     -35.336  27.561   5.275  0.00  0.00    +0.150 HD
BRANCH  18  21
ATOM     20  C   UNL     1     -32.466  27.949   5.877  0.00  0.00    -0.021 C 
ATOM     21  C   UNL     1     -33.171  26.872   6.252  0.00  0.00    +0.053 C 
BRANCH  20  22
ATOM     22  C   UNL     1     -31.690  28.803   6.839  0.00  0.00    +0.026 C 
BRANCH  22  23
ATOM     23  C   UNL     1     -31.378  30.173   6.236  0.00  0.00    +0.005 C 
ATOM     24  C   UNL     1     -29.965  30.225   5.677  0.00  0.00    +0.000 C 
ENDBRANCH  22  23
ENDBRANCH  20  22
ENDBRANCH  18  21
ENDBRANCH  15  17
ENDBRANCH  14  15
ENDBRANCH   1  14
TORSDOF 13
ENDMDL
MODEL 8
REMARK VINA RESULT:      -4.1      2.699      5.256
REMARK  Name = 194974
REMARK  13 active torsions:
REMARK  status: ('A' for Active; 'I' for Inactive)
REMARK    1  A    between atoms: S_1  and  S_2
REMARK    2  A    between atoms: S_1  and  C_14
REMARK    3  A    between atoms: S_2  and  C_3
REMARK    4  A    between atoms: C_3  and  C_4
REMARK    5  A    between atoms: C_4  and  N_6
REMARK    6  A    between atoms: C_7  and  C_10
REMARK    7  A    between atoms: C_9  and  C_11
REMARK    8  A    between atoms: C_11  and  C_12
REMARK    9  A    between atoms: C_14  and  C_15
REMARK   10  A    between atoms: C_15  and  N_17
REMARK   11  A    between atoms: C_18  and  C_21
REMARK   12  A    between atoms: C_20  and  C_22
REMARK   13  A    between atoms: C_22  and  C_23
REMARK                            x       y       z     vdW  Elec       q    Type
REMARK                         _______ _______ _______ _____ _____    ______ ____
ROOT
ATOM      1  S   UNL     1     -37.701  24.744  -0.830  0.00  0.00    -0.080 S 
ENDROOT
BRANCH   1   2
ATOM      2  S   UNL     1     -36.654  23.276   0.157  0.00  0.00    -0.080 S 
BRANCH   2   3
ATOM      3  C   UNL     1     -37.989  22.296   0.885  0.00  0.00    +0.090 C 
BRANCH   3   4
ATOM      4  C   UNL     1     -37.464  21.090   1.651  0.00  0.00    +0.102 C 
BRANCH   4   6
ATOM      5  O   UNL     1     -35.123  20.401   3.158  0.00  0.00    -0.270 OA
ATOM      6  N   UNL     1     -36.227  20.582   1.122  0.00  0.00    -0.300 N 
ATOM      7  C   UNL     1     -35.146  20.277   1.938  0.00  0.00    +0.246 C 
ATOM      8  H   UNL     1     -36.144  20.446   0.151  0.00  0.00    +0.150 HD
BRANCH   7  10
ATOM      9  C   UNL     1     -33.243  18.757   1.635  0.00  0.00    -0.021 C 
ATOM     10  C   UNL     1     -33.985  19.767   1.160  0.00  0.00    +0.053 C 
BRANCH   9  11
ATOM     11  C   UNL     1     -32.061  18.187   0.906  0.00  0.00    +0.026 C 
BRANCH  11  12
ATOM     12  C   UNL     1     -31.796  18.941  -0.396  0.00  0.00    +0.005 C 
ATOM     13  C   UNL     1     -30.551  19.809  -0.293  0.00  0.00    +0.000 C 
ENDBRANCH  11  12
ENDBRANCH   9  11
ENDBRANCH   7  10
ENDBRANCH   4   6
ENDBRANCH   3   4
ENDBRANCH   2   3
ENDBRANCH   1   2
BRANCH   1  14
ATOM     14  C   UNL     1     -39.297  24.696   0.040  0.00  0.00    +0.090 C 
BRANCH  14  15
ATOM     15  C   UNL     1     -39.418  25.797   1.084  0.00  0.00    +0.102 C 
BRANCH  15  17
ATOM     16  O   UNL     1     -39.287  24.548   3.663  0.00  0.00    -0.270 OA
ATOM     17  N   UNL     1     -38.301  25.833   1.999  0.00  0.00    -0.300 N 
ATOM     18  C   UNL     1     -38.339  25.193   3.226  0.00  0.00    +0.246 C 
ATOM     19  H   UNL     1     -37.488  26.325   1.742  0.00  0.00    +0.150 HD
BRANCH  18  21
ATOM     20  C   UNL     1     -36.529  24.342   4.649  0.00  0.00    -0.021 C 
ATOM     21  C   UNL     1     -37.071  25.372   3.985  0.00  0.00    +0.053 C 
BRANCH  20  22
ATOM     22  C   UNL     1     -35.251  24.445   5.431  0.00  0.00    +0.026 C 
BRANCH  22  23
ATOM     23  C   UNL     1     -34.613  23.071   5.634  0.00  0.00    +0.005 C 
ATOM     24  C   UNL     1     -35.572  22.107   6.314  0.00  0.00    +0.000 C 
ENDBRANCH  22  23
ENDBRANCH  20  22
ENDBRANCH  18  21
ENDBRANCH  15  17
ENDBRANCH  14  15
ENDBRANCH   1  14
TORSDOF 13
ENDMDL
MODEL 9
REMARK VINA RESULT:      -4.0      3.027      5.772
REMARK  Name = 194974
REMARK  13 active torsions:
REMARK  status: ('A' for Active; 'I' for Inactive)
REMARK    1  A    between atoms: S_1  and  S_2
REMARK    2  A    between atoms: S_1  and  C_14
REMARK    3  A    between atoms: S_2  and  C_3
REMARK    4  A    between atoms: C_3  and  C_4
REMARK    5  A    between atoms: C_4  and  N_6
REMARK    6  A    between atoms: C_7  and  C_10
REMARK    7  A    between atoms: C_9  and  C_11
REMARK    8  A    between atoms: C_11  and  C_12
REMARK    9  A    between atoms: C_14  and  C_15
REMARK   10  A    between atoms: C_15  and  N_17
REMARK   11  A    between atoms: C_18  and  C_21
REMARK   12  A    between atoms: C_20  and  C_22
REMARK   13  A    between atoms: C_22  and  C_23
REMARK                            x       y       z     vdW  Elec       q    Type
REMARK                         _______ _______ _______ _____ _____    ______ ____
ROOT
ATOM      1  S   UNL     1     -37.818  26.898  -0.621  0.00  0.00    -0.080 S 
ENDROOT
BRANCH   1   2
ATOM      2  S   UNL     1     -38.307  26.465   1.328  0.00  0.00    -0.080 S 
BRANCH   2   3
ATOM      3  C   UNL     1     -39.703  25.334   1.116  0.00  0.00    +0.090 C 
BRANCH   3   4
ATOM      4  C   UNL     1     -39.726  24.244   2.178  0.00  0.00    +0.102 C 
BRANCH   4   6
ATOM      5  O   UNL     1     -39.930  21.387   2.023  0.00  0.00    -0.270 OA
ATOM      6  N   UNL     1     -38.635  23.315   2.056  0.00  0.00    -0.300 N 
ATOM      7  C   UNL     1     -38.837  21.944   1.988  0.00  0.00    +0.246 C 
ATOM      8  H   UNL     1     -37.715  23.663   2.019  0.00  0.00    +0.150 HD
BRANCH   7  10
ATOM      9  C   UNL     1     -36.602  21.324   2.792  0.00  0.00    -0.021 C 
ATOM     10  C   UNL     1     -37.558  21.195   1.861  0.00  0.00    +0.053 C 
BRANCH   9  11
ATOM     11  C   UNL     1     -35.290  20.598   2.735  0.00  0.00    +0.026 C 
BRANCH  11  12
ATOM     12  C   UNL     1     -35.055  19.986   1.354  0.00  0.00    +0.005 C 
ATOM     13  C   UNL     1     -33.696  19.307   1.270  0.00  0.00    +0.000 C 
ENDBRANCH  11  12
ENDBRANCH   9  11
ENDBRANCH   7  10
ENDBRANCH   4   6
ENDBRANCH   3   4
ENDBRANCH   2   3
ENDBRANCH   1   2
BRANCH   1  14
ATOM     14  C   UNL     1     -36.116  27.512  -0.439  0.00  0.00    +0.090 C 
BRANCH  14  15
ATOM     15  C   UNL     1     -35.082  26.419  -0.668  0.00  0.00    +0.102 C 
BRANCH  15  17
ATOM     16  O   UNL     1     -35.927  23.927   0.476  0.00  0.00    -0.270 OA
ATOM     17  N   UNL     1     -34.600  25.831   0.560  0.00  0.00    -0.300 N 
ATOM     18  C   UNL     1     -35.075  24.618   1.027  0.00  0.00    +0.246 C 
ATOM     19  H   UNL     1     -33.912  26.307   1.079  0.00  0.00    +0.150 HD
BRANCH  18  21
ATOM     20  C   UNL     1     -35.049  24.425   3.474  0.00  0.00    -0.021 C 
ATOM     21  C   UNL     1     -34.424  24.222   2.306  0.00  0.00    +0.053 C 
BRANCH  20  22
ATOM     22  C   UNL     1     -34.458  24.048   4.802  0.00  0.00    +0.026 C 
BRANCH  22  23
ATOM     23  C   UNL     1     -35.512  23.432   5.723  0.00  0.00    +0.005 C 
ATOM     24  C   UNL     1     -35.098  22.046   6.192  0.00  0.00    +0.000 C 
ENDBRANCH  22  23
ENDBRANCH  20  22
ENDBRANCH  18  21
ENDBRANCH  15  17
ENDBRANCH  14  15
ENDBRANCH   1  14
TORSDOF 13
ENDMDL
