MODEL 1
REMARK VINA RESULT:      -6.1      0.000      0.000
REMARK  Name = 5491510
REMARK  6 active torsions:
REMARK  status: ('A' for Active; 'I' for Inactive)
REMARK    1  A    between atoms: N_1  and  C_2
REMARK    2  A    between atoms: N_1  and  N_3
REMARK    3  A    between atoms: C_2  and  C_12
REMARK    4  A    between atoms: C_2  and  C_21
REMARK    5  A    between atoms: N_3  and  C_6
REMARK    6  A    between atoms: C_13  and  N_18
REMARK                            x       y       z     vdW  Elec       q    Type
REMARK                         _______ _______ _______ _____ _____    ______ ____
ROOT
ATOM      1  C   UNL     1     -35.867  21.296   2.427  0.00  0.00    +0.144 C 
ENDROOT
BRANCH   1   3
ATOM      2 CL   UNL     1     -32.194  17.871   1.272  0.00  0.00    -0.082 Cl
ATOM      3  C   UNL     1     -34.688  20.937   1.554  0.00  0.00    +0.013 C 
ATOM      4  C   UNL     1     -34.283  21.810   0.581  0.00  0.00    +0.039 C 
ATOM      5  C   UNL     1     -34.085  19.732   1.799  0.00  0.00    +0.010 C 
ATOM      6  C   UNL     1     -33.191  21.451  -0.209  0.00  0.00    +0.015 C 
ATOM      7  C   UNL     1     -32.992  19.373   1.008  0.00  0.00    +0.057 C 
ATOM      8  C   UNL     1     -32.546  20.232   0.005  0.00  0.00    +0.013 C 
BRANCH   4   9
ATOM      9  N   UNL     1     -34.921  23.047   0.349  0.00  0.00    -0.357 N 
ATOM     10  H   UNL     1     -34.902  23.451  -0.550  0.00  0.00    +0.142 HD
ATOM     11  H   UNL     1     -35.383  23.509   1.085  0.00  0.00    +0.142 HD
ENDBRANCH   4   9
ENDBRANCH   1   3
BRANCH   1  12
ATOM     12  C   UNL     1     -35.635  21.977   3.691  0.00  0.00    -0.000 C 
ATOM     13  C   UNL     1     -35.698  23.369   3.756  0.00  0.00    -0.003 C 
ATOM     14  C   UNL     1     -35.349  21.238   4.839  0.00  0.00    -0.003 C 
ATOM     15  C   UNL     1     -35.475  24.021   4.967  0.00  0.00    -0.000 C 
ATOM     16  C   UNL     1     -35.128  21.891   6.051  0.00  0.00    -0.000 C 
ATOM     17  C   UNL     1     -35.190  23.283   6.116  0.00  0.00    -0.000 C 
ENDBRANCH   1  12
BRANCH   1  18
ATOM     18  N   UNL     1     -37.057  20.951   1.976  0.00  0.00    -0.090 NA
BRANCH  18  19
ATOM     19  N   UNL     1     -37.785  22.015   1.453  0.00  0.00    -0.145 NA
BRANCH  19  22
ATOM     20  N   UNL     1     -39.984  21.294   2.077  0.00  0.00    -0.369 N 
ATOM     21  N   UNL     1     -39.194  23.323   2.775  0.00  0.00    -0.369 N 
ATOM     22  C   UNL     1     -38.930  22.180   2.059  0.00  0.00    +0.207 C 
ATOM     23  H   UNL     1     -39.915  20.437   1.598  0.00  0.00    +0.159 HD
ATOM     24  H   UNL     1     -40.807  21.519   2.568  0.00  0.00    +0.159 HD
ATOM     25  H   UNL     1     -38.515  24.033   2.836  0.00  0.00    +0.159 HD
ATOM     26  H   UNL     1     -40.062  23.432   3.226  0.00  0.00    +0.159 HD
ENDBRANCH  19  22
ENDBRANCH  18  19
ENDBRANCH   1  18
TORSDOF 6
ENDMDL
MODEL 2
REMARK VINA RESULT:      -6.1      4.756      6.599
REMARK  Name = 5491510
REMARK  6 active torsions:
REMARK  status: ('A' for Active; 'I' for Inactive)
REMARK    1  A    between atoms: N_1  and  C_2
REMARK    2  A    between atoms: N_1  and  N_3
REMARK    3  A    between atoms: C_2  and  C_12
REMARK    4  A    between atoms: C_2  and  C_21
REMARK    5  A    between atoms: N_3  and  C_6
REMARK    6  A    between atoms: C_13  and  N_18
REMARK                            x       y       z     vdW  Elec       q    Type
REMARK                         _______ _______ _______ _____ _____    ______ ____
ROOT
ATOM      1  C   UNL     1     -35.505  25.408   4.581  0.00  0.00    +0.144 C 
ENDROOT
BRANCH   1   3
ATOM      2 CL   UNL     1     -40.218  25.723   2.520  0.00  0.00    -0.082 Cl
ATOM      3  C   UNL     1     -36.370  25.907   3.447  0.00  0.00    +0.013 C 
ATOM      4  C   UNL     1     -35.796  26.612   2.424  0.00  0.00    +0.039 C 
ATOM      5  C   UNL     1     -37.706  25.615   3.518  0.00  0.00    +0.010 C 
ATOM      6  C   UNL     1     -36.620  27.059   1.392  0.00  0.00    +0.015 C 
ATOM      7  C   UNL     1     -38.531  26.063   2.486  0.00  0.00    +0.057 C 
ATOM      8  C   UNL     1     -37.988  26.784   1.423  0.00  0.00    +0.013 C 
BRANCH   4   9
ATOM      9  N   UNL     1     -34.415  26.900   2.374  0.00  0.00    -0.357 N 
ATOM     10  H   UNL     1     -34.104  27.833   2.414  0.00  0.00    +0.142 HD
ATOM     11  H   UNL     1     -33.761  26.168   2.296  0.00  0.00    +0.142 HD
ENDBRANCH   4   9
ENDBRANCH   1   3
BRANCH   1  12
ATOM     12  C   UNL     1     -35.401  23.977   4.819  0.00  0.00    -0.000 C 
ATOM     13  C   UNL     1     -35.338  23.490   6.125  0.00  0.00    -0.003 C 
ATOM     14  C   UNL     1     -35.363  23.092   3.742  0.00  0.00    -0.003 C 
ATOM     15  C   UNL     1     -35.238  22.118   6.353  0.00  0.00    -0.000 C 
ATOM     16  C   UNL     1     -35.264  21.720   3.971  0.00  0.00    -0.000 C 
ATOM     17  C   UNL     1     -35.201  21.233   5.277  0.00  0.00    -0.000 C 
ENDBRANCH   1  12
BRANCH   1  18
ATOM     18  N   UNL     1     -34.894  26.328   5.301  0.00  0.00    -0.090 NA
BRANCH  18  19
ATOM     19  N   UNL     1     -33.507  26.214   5.291  0.00  0.00    -0.145 NA
BRANCH  19  22
ATOM     20  N   UNL     1     -32.531  27.168   7.261  0.00  0.00    -0.369 N 
ATOM     21  N   UNL     1     -32.639  28.379   5.325  0.00  0.00    -0.369 N 
ATOM     22  C   UNL     1     -32.925  27.185   5.942  0.00  0.00    +0.207 C 
ATOM     23  H   UNL     1     -32.683  26.365   7.810  0.00  0.00    +0.159 HD
ATOM     24  H   UNL     1     -32.098  27.960   7.655  0.00  0.00    +0.159 HD
ATOM     25  H   UNL     1     -32.875  28.513   4.379  0.00  0.00    +0.159 HD
ATOM     26  H   UNL     1     -32.201  29.102   5.830  0.00  0.00    +0.159 HD
ENDBRANCH  19  22
ENDBRANCH  18  19
ENDBRANCH   1  18
TORSDOF 6
ENDMDL
MODEL 3
REMARK VINA RESULT:      -6.1      2.502      4.970
REMARK  Name = 5491510
REMARK  6 active torsions:
REMARK  status: ('A' for Active; 'I' for Inactive)
REMARK    1  A    between atoms: N_1  and  C_2
REMARK    2  A    between atoms: N_1  and  N_3
REMARK    3  A    between atoms: C_2  and  C_12
REMARK    4  A    between atoms: C_2  and  C_21
REMARK    5  A    between atoms: N_3  and  C_6
REMARK    6  A    between atoms: C_13  and  N_18
REMARK                            x       y       z     vdW  Elec       q    Type
REMARK                         _______ _______ _______ _____ _____    ______ ____
ROOT
ATOM      1  C   UNL     1     -35.741  22.712   2.167  0.00  0.00    +0.144 C 
ENDROOT
BRANCH   1   3
ATOM      2 CL   UNL     1     -33.153  27.007   3.355  0.00  0.00    -0.082 Cl
ATOM      3  C   UNL     1     -35.225  23.632   3.249  0.00  0.00    +0.013 C 
ATOM      4  C   UNL     1     -35.471  23.330   4.561  0.00  0.00    +0.039 C 
ATOM      5  C   UNL     1     -34.527  24.736   2.837  0.00  0.00    +0.010 C 
ATOM      6  C   UNL     1     -34.982  24.197   5.537  0.00  0.00    +0.015 C 
ATOM      7  C   UNL     1     -34.038  25.605   3.814  0.00  0.00    +0.057 C 
ATOM      8  C   UNL     1     -34.266  25.335   5.163  0.00  0.00    +0.013 C 
BRANCH   4   9
ATOM      9  N   UNL     1     -36.193  22.184   4.960  0.00  0.00    -0.357 N 
ATOM     10  H   UNL     1     -36.062  21.329   4.488  0.00  0.00    +0.142 HD
ATOM     11  H   UNL     1     -36.830  22.239   5.709  0.00  0.00    +0.142 HD
ENDBRANCH   4   9
ENDBRANCH   1   3
BRANCH   1  12
ATOM     12  C   UNL     1     -34.859  21.693   1.620  0.00  0.00    -0.000 C 
ATOM     13  C   UNL     1     -34.859  20.407   2.162  0.00  0.00    -0.003 C 
ATOM     14  C   UNL     1     -34.013  22.001   0.555  0.00  0.00    -0.003 C 
ATOM     15  C   UNL     1     -34.014  19.430   1.638  0.00  0.00    -0.000 C 
ATOM     16  C   UNL     1     -33.168  21.023   0.031  0.00  0.00    -0.000 C 
ATOM     17  C   UNL     1     -33.168  19.737   0.573  0.00  0.00    -0.000 C 
ENDBRANCH   1  12
BRANCH   1  18
ATOM     18  N   UNL     1     -36.985  22.907   1.776  0.00  0.00    -0.090 NA
BRANCH  18  19
ATOM     19  N   UNL     1     -37.925  22.243   2.557  0.00  0.00    -0.145 NA
BRANCH  19  22
ATOM     20  N   UNL     1     -38.245  20.583   0.859  0.00  0.00    -0.369 N 
ATOM     21  N   UNL     1     -40.026  21.353   2.067  0.00  0.00    -0.369 N 
ATOM     22  C   UNL     1     -38.670  21.432   1.856  0.00  0.00    +0.207 C 
ATOM     23  H   UNL     1     -37.292  20.549   0.615  0.00  0.00    +0.159 HD
ATOM     24  H   UNL     1     -38.894  20.010   0.390  0.00  0.00    +0.159 HD
ATOM     25  H   UNL     1     -40.449  21.915   2.756  0.00  0.00    +0.159 HD
ATOM     26  H   UNL     1     -40.573  20.737   1.529  0.00  0.00    +0.159 HD
ENDBRANCH  19  22
ENDBRANCH  18  19
ENDBRANCH   1  18
TORSDOF 6
ENDMDL
MODEL 4
REMARK VINA RESULT:      -6.1      2.502      4.872
REMARK  Name = 5491510
REMARK  6 active torsions:
REMARK  status: ('A' for Active; 'I' for Inactive)
REMARK    1  A    between atoms: N_1  and  C_2
REMARK    2  A    between atoms: N_1  and  N_3
REMARK    3  A    between atoms: C_2  and  C_12
REMARK    4  A    between atoms: C_2  and  C_21
REMARK    5  A    between atoms: N_3  and  C_6
REMARK    6  A    between atoms: C_13  and  N_18
REMARK                            x       y       z     vdW  Elec       q    Type
REMARK                         _______ _______ _______ _____ _____    ______ ____
ROOT
ATOM      1  C   UNL     1     -35.740  22.713   2.163  0.00  0.00    +0.144 C 
ENDROOT
BRANCH   1   3
ATOM      2 CL   UNL     1     -33.159  27.010   3.358  0.00  0.00    -0.082 Cl
ATOM      3  C   UNL     1     -35.226  23.632   3.247  0.00  0.00    +0.013 C 
ATOM      4  C   UNL     1     -35.471  23.327   4.558  0.00  0.00    +0.039 C 
ATOM      5  C   UNL     1     -34.530  24.738   2.837  0.00  0.00    +0.010 C 
ATOM      6  C   UNL     1     -34.983  24.194   5.535  0.00  0.00    +0.015 C 
ATOM      7  C   UNL     1     -34.042  25.606   3.815  0.00  0.00    +0.057 C 
ATOM      8  C   UNL     1     -34.269  25.333   5.164  0.00  0.00    +0.013 C 
BRANCH   4   9
ATOM      9  N   UNL     1     -36.191  22.179   4.955  0.00  0.00    -0.357 N 
ATOM     10  H   UNL     1     -36.377  22.020   5.909  0.00  0.00    +0.142 HD
ATOM     11  H   UNL     1     -36.506  21.537   4.279  0.00  0.00    +0.142 HD
ENDBRANCH   4   9
ENDBRANCH   1   3
BRANCH   1  12
ATOM     12  C   UNL     1     -34.858  21.693   1.618  0.00  0.00    -0.000 C 
ATOM     13  C   UNL     1     -34.010  22.000   0.554  0.00  0.00    -0.003 C 
ATOM     14  C   UNL     1     -34.861  20.407   2.160  0.00  0.00    -0.003 C 
ATOM     15  C   UNL     1     -33.165  21.021   0.032  0.00  0.00    -0.000 C 
ATOM     16  C   UNL     1     -34.015  19.429   1.637  0.00  0.00    -0.000 C 
ATOM     17  C   UNL     1     -33.167  19.736   0.573  0.00  0.00    -0.000 C 
ENDBRANCH   1  12
BRANCH   1  18
ATOM     18  N   UNL     1     -36.983  22.910   1.768  0.00  0.00    -0.090 NA
BRANCH  18  19
ATOM     19  N   UNL     1     -37.927  22.253   2.552  0.00  0.00    -0.145 NA
BRANCH  19  22
ATOM     20  N   UNL     1     -38.243  20.588   0.857  0.00  0.00    -0.369 N 
ATOM     21  N   UNL     1     -40.024  21.353   2.068  0.00  0.00    -0.369 N 
ATOM     22  C   UNL     1     -38.670  21.437   1.853  0.00  0.00    +0.207 C 
ATOM     23  H   UNL     1     -37.291  20.557   0.611  0.00  0.00    +0.159 HD
ATOM     24  H   UNL     1     -38.891  20.011   0.391  0.00  0.00    +0.159 HD
ATOM     25  H   UNL     1     -40.449  21.914   2.757  0.00  0.00    +0.159 HD
ATOM     26  H   UNL     1     -40.571  20.734   1.532  0.00  0.00    +0.159 HD
ENDBRANCH  19  22
ENDBRANCH  18  19
ENDBRANCH   1  18
TORSDOF 6
ENDMDL
MODEL 5
REMARK VINA RESULT:      -6.0      1.439      2.017
REMARK  Name = 5491510
REMARK  6 active torsions:
REMARK  status: ('A' for Active; 'I' for Inactive)
REMARK    1  A    between atoms: N_1  and  C_2
REMARK    2  A    between atoms: N_1  and  N_3
REMARK    3  A    between atoms: C_2  and  C_12
REMARK    4  A    between atoms: C_2  and  C_21
REMARK    5  A    between atoms: N_3  and  C_6
REMARK    6  A    between atoms: C_13  and  N_18
REMARK                            x       y       z     vdW  Elec       q    Type
REMARK                         _______ _______ _______ _____ _____    ______ ____
ROOT
ATOM      1  C   UNL     1     -36.214  22.126   2.224  0.00  0.00    +0.144 C 
ENDROOT
BRANCH   1   3
ATOM      2 CL   UNL     1     -31.867  21.613  -0.494  0.00  0.00    -0.082 Cl
ATOM      3  C   UNL     1     -35.323  21.224   1.402  0.00  0.00    +0.013 C 
ATOM      4  C   UNL     1     -35.697  19.925   1.189  0.00  0.00    +0.039 C 
ATOM      5  C   UNL     1     -34.171  21.779   0.912  0.00  0.00    +0.010 C 
ATOM      6  C   UNL     1     -34.854  19.118   0.426  0.00  0.00    +0.015 C 
ATOM      7  C   UNL     1     -33.327  20.970   0.149  0.00  0.00    +0.057 C 
ATOM      8  C   UNL     1     -33.669  19.640  -0.093  0.00  0.00    +0.013 C 
BRANCH   4   9
ATOM      9  N   UNL     1     -36.891  19.377   1.705  0.00  0.00    -0.357 N 
ATOM     10  H   UNL     1     -37.349  19.815   2.459  0.00  0.00    +0.142 HD
ATOM     11  H   UNL     1     -37.266  18.556   1.313  0.00  0.00    +0.142 HD
ENDBRANCH   4   9
ENDBRANCH   1   3
BRANCH   1  12
ATOM     12  C   UNL     1     -35.851  22.423   3.601  0.00  0.00    -0.000 C 
ATOM     13  C   UNL     1     -35.909  23.736   4.070  0.00  0.00    -0.003 C 
ATOM     14  C   UNL     1     -35.445  21.395   4.451  0.00  0.00    -0.003 C 
ATOM     15  C   UNL     1     -35.561  24.019   5.390  0.00  0.00    -0.000 C 
ATOM     16  C   UNL     1     -35.097  21.680   5.772  0.00  0.00    -0.000 C 
ATOM     17  C   UNL     1     -35.155  22.992   6.241  0.00  0.00    -0.000 C 
ENDBRANCH   1  12
BRANCH   1  18
ATOM     18  N   UNL     1     -37.293  22.589   1.623  0.00  0.00    -0.090 NA
BRANCH  18  19
ATOM     19  N   UNL     1     -38.482  22.116   2.171  0.00  0.00    -0.145 NA
BRANCH  19  22
ATOM     20  N   UNL     1     -39.353  24.124   3.148  0.00  0.00    -0.369 N 
ATOM     21  N   UNL     1     -40.512  23.049   1.496  0.00  0.00    -0.369 N 
ATOM     22  C   UNL     1     -39.384  23.054   2.282  0.00  0.00    +0.207 C 
ATOM     23  H   UNL     1     -38.594  24.237   3.764  0.00  0.00    +0.159 HD
ATOM     24  H   UNL     1     -40.090  24.776   3.150  0.00  0.00    +0.159 HD
ATOM     25  H   UNL     1     -40.648  22.331   0.837  0.00  0.00    +0.159 HD
ATOM     26  H   UNL     1     -41.183  23.762   1.594  0.00  0.00    +0.159 HD
ENDBRANCH  19  22
ENDBRANCH  18  19
ENDBRANCH   1  18
TORSDOF 6
ENDMDL
MODEL 6
REMARK VINA RESULT:      -6.0      2.558      4.954
REMARK  Name = 5491510
REMARK  6 active torsions:
REMARK  status: ('A' for Active; 'I' for Inactive)
REMARK    1  A    between atoms: N_1  and  C_2
REMARK    2  A    between atoms: N_1  and  N_3
REMARK    3  A    between atoms: C_2  and  C_12
REMARK    4  A    between atoms: C_2  and  C_21
REMARK    5  A    between atoms: N_3  and  C_6
REMARK    6  A    between atoms: C_13  and  N_18
REMARK                            x       y       z     vdW  Elec       q    Type
REMARK                         _______ _______ _______ _____ _____    ______ ____
ROOT
ATOM      1  C   UNL     1     -35.410  20.283   1.646  0.00  0.00    +0.144 C 
ENDROOT
BRANCH   1   3
ATOM      2 CL   UNL     1     -35.109  22.154   6.438  0.00  0.00    -0.082 Cl
ATOM      3  C   UNL     1     -35.625  21.457   2.572  0.00  0.00    +0.013 C 
ATOM      4  C   UNL     1     -36.120  22.629   2.067  0.00  0.00    +0.039 C 
ATOM      5  C   UNL     1     -35.305  21.268   3.890  0.00  0.00    +0.010 C 
ATOM      6  C   UNL     1     -36.308  23.694   2.947  0.00  0.00    +0.015 C 
ATOM      7  C   UNL     1     -35.493  22.334   4.770  0.00  0.00    +0.057 C 
ATOM      8  C   UNL     1     -35.995  23.547   4.298  0.00  0.00    +0.013 C 
BRANCH   4   9
ATOM      9  N   UNL     1     -36.444  22.799   0.704  0.00  0.00    -0.357 N 
ATOM     10  H   UNL     1     -37.027  22.147   0.251  0.00  0.00    +0.142 HD
ATOM     11  H   UNL     1     -36.085  23.567   0.204  0.00  0.00    +0.142 HD
ENDBRANCH   4   9
ENDBRANCH   1   3
BRANCH   1  12
ATOM     12  C   UNL     1     -34.065  19.979   1.184  0.00  0.00    -0.000 C 
ATOM     13  C   UNL     1     -33.377  20.895   0.386  0.00  0.00    -0.003 C 
ATOM     14  C   UNL     1     -33.462  18.772   1.538  0.00  0.00    -0.003 C 
ATOM     15  C   UNL     1     -32.088  20.603  -0.057  0.00  0.00    -0.000 C 
ATOM     16  C   UNL     1     -32.172  18.482   1.095  0.00  0.00    -0.000 C 
ATOM     17  C   UNL     1     -31.484  19.397   0.297  0.00  0.00    -0.000 C 
ENDBRANCH   1  12
BRANCH   1  18
ATOM     18  N   UNL     1     -36.485  19.601   1.304  0.00  0.00    -0.090 NA
BRANCH  18  19
ATOM     19  N   UNL     1     -36.731  19.599  -0.066  0.00  0.00    -0.145 NA
BRANCH  19  22
ATOM     20  N   UNL     1     -37.729  18.195  -1.733  0.00  0.00    -0.369 N 
ATOM     21  N   UNL     1     -37.296  17.375   0.357  0.00  0.00    -0.369 N 
ATOM     22  C   UNL     1     -37.228  18.464  -0.479  0.00  0.00    +0.207 C 
ATOM     23  H   UNL     1     -37.735  18.898  -2.421  0.00  0.00    +0.159 HD
ATOM     24  H   UNL     1     -38.082  17.300  -1.940  0.00  0.00    +0.159 HD
ATOM     25  H   UNL     1     -36.968  17.444   1.282  0.00  0.00    +0.159 HD
ATOM     26  H   UNL     1     -37.674  16.527   0.030  0.00  0.00    +0.159 HD
ENDBRANCH  19  22
ENDBRANCH  18  19
ENDBRANCH   1  18
TORSDOF 6
ENDMDL
MODEL 7
REMARK VINA RESULT:      -6.0      1.937      4.469
REMARK  Name = 5491510
REMARK  6 active torsions:
REMARK  status: ('A' for Active; 'I' for Inactive)
REMARK    1  A    between atoms: N_1  and  C_2
REMARK    2  A    between atoms: N_1  and  N_3
REMARK    3  A    between atoms: C_2  and  C_12
REMARK    4  A    between atoms: C_2  and  C_21
REMARK    5  A    between atoms: N_3  and  C_6
REMARK    6  A    between atoms: C_13  and  N_18
REMARK                            x       y       z     vdW  Elec       q    Type
REMARK                         _______ _______ _______ _____ _____    ______ ____
ROOT
ATOM      1  C   UNL     1     -35.527  21.794   1.633  0.00  0.00    +0.144 C 
ENDROOT
BRANCH   1   3
ATOM      2 CL   UNL     1     -35.432  22.119   6.775  0.00  0.00    -0.082 Cl
ATOM      3  C   UNL     1     -35.370  22.673   2.853  0.00  0.00    +0.013 C 
ATOM      4  C   UNL     1     -35.148  24.013   2.691  0.00  0.00    +0.039 C 
ATOM      5  C   UNL     1     -35.464  22.055   4.072  0.00  0.00    +0.010 C 
ATOM      6  C   UNL     1     -35.008  24.797   3.835  0.00  0.00    +0.015 C 
ATOM      7  C   UNL     1     -35.323  22.840   5.217  0.00  0.00    +0.057 C 
ATOM      8  C   UNL     1     -35.095  24.211   5.098  0.00  0.00    +0.013 C 
BRANCH   4   9
ATOM      9  N   UNL     1     -35.056  24.626   1.422  0.00  0.00    -0.357 N 
ATOM     10  H   UNL     1     -35.367  25.552   1.299  0.00  0.00    +0.142 HD
ATOM     11  H   UNL     1     -34.684  24.127   0.660  0.00  0.00    +0.142 HD
ENDBRANCH   4   9
ENDBRANCH   1   3
BRANCH   1  12
ATOM     12  C   UNL     1     -34.422  20.942   1.223  0.00  0.00    -0.000 C 
ATOM     13  C   UNL     1     -33.461  21.425   0.334  0.00  0.00    -0.003 C 
ATOM     14  C   UNL     1     -34.323  19.642   1.719  0.00  0.00    -0.003 C 
ATOM     15  C   UNL     1     -32.402  20.608  -0.058  0.00  0.00    -0.000 C 
ATOM     16  C   UNL     1     -33.263  18.825   1.326  0.00  0.00    -0.000 C 
ATOM     17  C   UNL     1     -32.302  19.308   0.437  0.00  0.00    -0.000 C 
ENDBRANCH   1  12
BRANCH   1  18
ATOM     18  N   UNL     1     -36.682  21.868   1.002  0.00  0.00    -0.090 NA
BRANCH  18  19
ATOM     19  N   UNL     1     -37.686  21.102   1.586  0.00  0.00    -0.145 NA
BRANCH  19  22
ATOM     20  N   UNL     1     -38.789  23.176   2.065  0.00  0.00    -0.369 N 
ATOM     21  N   UNL     1     -39.969  21.217   2.057  0.00  0.00    -0.369 N 
ATOM     22  C   UNL     1     -38.741  21.811   1.885  0.00  0.00    +0.207 C 
ATOM     23  H   UNL     1     -37.970  23.713   1.968  0.00  0.00    +0.159 HD
ATOM     24  H   UNL     1     -39.641  23.613   2.290  0.00  0.00    +0.159 HD
ATOM     25  H   UNL     1     -40.062  20.243   1.955  0.00  0.00    +0.159 HD
ATOM     26  H   UNL     1     -40.754  21.766   2.283  0.00  0.00    +0.159 HD
ENDBRANCH  19  22
ENDBRANCH  18  19
ENDBRANCH   1  18
TORSDOF 6
ENDMDL
MODEL 8
REMARK VINA RESULT:      -5.9      2.797      5.189
REMARK  Name = 5491510
REMARK  6 active torsions:
REMARK  status: ('A' for Active; 'I' for Inactive)
REMARK    1  A    between atoms: N_1  and  C_2
REMARK    2  A    between atoms: N_1  and  N_3
REMARK    3  A    between atoms: C_2  and  C_12
REMARK    4  A    between atoms: C_2  and  C_21
REMARK    5  A    between atoms: N_3  and  C_6
REMARK    6  A    between atoms: C_13  and  N_18
REMARK                            x       y       z     vdW  Elec       q    Type
REMARK                         _______ _______ _______ _____ _____    ______ ____
ROOT
ATOM      1  C   UNL     1     -36.362  22.769   3.011  0.00  0.00    +0.144 C 
ENDROOT
BRANCH   1   3
ATOM      2 CL   UNL     1     -34.434  27.530   3.427  0.00  0.00    -0.082 Cl
ATOM      3  C   UNL     1     -35.787  23.838   3.911  0.00  0.00    +0.013 C 
ATOM      4  C   UNL     1     -35.647  23.585   5.249  0.00  0.00    +0.039 C 
ATOM      5  C   UNL     1     -35.432  25.019   3.315  0.00  0.00    +0.010 C 
ATOM      6  C   UNL     1     -35.112  24.591   6.053  0.00  0.00    +0.015 C 
ATOM      7  C   UNL     1     -34.898  26.025   4.121  0.00  0.00    +0.057 C 
ATOM      8  C   UNL     1     -34.738  25.811   5.489  0.00  0.00    +0.013 C 
BRANCH   4   9
ATOM      9  N   UNL     1     -36.019  22.358   5.839  0.00  0.00    -0.357 N 
ATOM     10  H   UNL     1     -36.159  21.562   5.276  0.00  0.00    +0.142 HD
ATOM     11  H   UNL     1     -36.140  22.297   6.814  0.00  0.00    +0.142 HD
ENDBRANCH   4   9
ENDBRANCH   1   3
BRANCH   1  12
ATOM     12  C   UNL     1     -35.462  21.945   2.220  0.00  0.00    -0.000 C 
ATOM     13  C   UNL     1     -35.286  20.598   2.541  0.00  0.00    -0.003 C 
ATOM     14  C   UNL     1     -34.774  22.501   1.141  0.00  0.00    -0.003 C 
ATOM     15  C   UNL     1     -34.423  19.809   1.783  0.00  0.00    -0.000 C 
ATOM     16  C   UNL     1     -33.912  21.710   0.383  0.00  0.00    -0.000 C 
ATOM     17  C   UNL     1     -33.736  20.363   0.703  0.00  0.00    -0.000 C 
ENDBRANCH   1  12
BRANCH   1  18
ATOM     18  N   UNL     1     -37.676  22.659   2.997  0.00  0.00    -0.090 NA
BRANCH  18  19
ATOM     19  N   UNL     1     -38.295  23.482   2.061  0.00  0.00    -0.145 NA
BRANCH  19  22
ATOM     20  N   UNL     1     -40.650  23.901   1.924  0.00  0.00    -0.369 N 
ATOM     21  N   UNL     1     -39.435  24.716   3.680  0.00  0.00    -0.369 N 
ATOM     22  C   UNL     1     -39.408  23.994   2.511  0.00  0.00    +0.207 C 
ATOM     23  H   UNL     1     -40.760  23.407   1.079  0.00  0.00    +0.159 HD
ATOM     24  H   UNL     1     -41.429  24.328   2.349  0.00  0.00    +0.159 HD
ATOM     25  H   UNL     1     -38.605  24.853   4.192  0.00  0.00    +0.159 HD
ATOM     26  H   UNL     1     -40.283  25.097   4.004  0.00  0.00    +0.159 HD
ENDBRANCH  19  22
ENDBRANCH  18  19
ENDBRANCH   1  18
TORSDOF 6
ENDMDL
MODEL 9
REMARK VINA RESULT:      -5.9      1.598      2.460
REMARK  Name = 5491510
REMARK  6 active torsions:
REMARK  status: ('A' for Active; 'I' for Inactive)
REMARK    1  A    between atoms: N_1  and  C_2
REMARK    2  A    between atoms: N_1  and  N_3
REMARK    3  A    between atoms: C_2  and  C_12
REMARK    4  A    between atoms: C_2  and  C_21
REMARK    5  A    between atoms: N_3  and  C_6
REMARK    6  A    between atoms: C_13  and  N_18
REMARK                            x       y       z     vdW  Elec       q    Type
REMARK                         _______ _______ _______ _____ _____    ______ ____
ROOT
ATOM      1  C   UNL     1     -36.265  22.730   2.207  0.00  0.00    +0.144 C 
ENDROOT
BRANCH   1   3
ATOM      2 CL   UNL     1     -32.019  21.763  -0.548  0.00  0.00    -0.082 Cl
ATOM      3  C   UNL     1     -35.366  21.696   1.570  0.00  0.00    +0.013 C 
ATOM      4  C   UNL     1     -35.684  20.370   1.683  0.00  0.00    +0.039 C 
ATOM      5  C   UNL     1     -34.265  22.164   0.904  0.00  0.00    +0.010 C 
ATOM      6  C   UNL     1     -34.836  19.439   1.084  0.00  0.00    +0.015 C 
ATOM      7  C   UNL     1     -33.416  21.233   0.305  0.00  0.00    +0.057 C 
ATOM      8  C   UNL     1     -33.702  19.870   0.395  0.00  0.00    +0.013 C 
BRANCH   4   9
ATOM      9  N   UNL     1     -36.826  19.912   2.375  0.00  0.00    -0.357 N 
ATOM     10  H   UNL     1     -37.460  19.303   1.931  0.00  0.00    +0.142 HD
ATOM     11  H   UNL     1     -36.991  20.203   3.301  0.00  0.00    +0.142 HD
ENDBRANCH   4   9
ENDBRANCH   1   3
BRANCH   1  12
ATOM     12  C   UNL     1     -35.791  23.465   3.370  0.00  0.00    -0.000 C 
ATOM     13  C   UNL     1     -35.558  22.794   4.571  0.00  0.00    -0.003 C 
ATOM     14  C   UNL     1     -35.571  24.839   3.285  0.00  0.00    -0.003 C 
ATOM     15  C   UNL     1     -35.104  23.498   5.686  0.00  0.00    -0.000 C 
ATOM     16  C   UNL     1     -35.116  25.543   4.400  0.00  0.00    -0.000 C 
ATOM     17  C   UNL     1     -34.883  24.872   5.601  0.00  0.00    -0.000 C 
ENDBRANCH   1  12
BRANCH   1  18
ATOM     18  N   UNL     1     -37.451  22.895   1.657  0.00  0.00    -0.090 NA
BRANCH  18  19
ATOM     19  N   UNL     1     -38.508  22.597   2.511  0.00  0.00    -0.145 NA
BRANCH  19  22
ATOM     20  N   UNL     1     -40.481  23.738   1.768  0.00  0.00    -0.369 N 
ATOM     21  N   UNL     1     -39.265  24.560   3.520  0.00  0.00    -0.369 N 
ATOM     22  C   UNL     1     -39.381  23.567   2.578  0.00  0.00    +0.207 C 
ATOM     23  H   UNL     1     -40.671  23.089   1.053  0.00  0.00    +0.159 HD
ATOM     24  H   UNL     1     -41.078  24.509   1.905  0.00  0.00    +0.159 HD
ATOM     25  H   UNL     1     -38.516  24.547   4.158  0.00  0.00    +0.159 HD
ATOM     26  H   UNL     1     -39.931  25.284   3.557  0.00  0.00    +0.159 HD
ENDBRANCH  19  22
ENDBRANCH  18  19
ENDBRANCH   1  18
TORSDOF 6
ENDMDL
