MODEL 1
REMARK VINA RESULT:      -6.6      0.000      0.000
REMARK  Name = 192867
REMARK  6 active torsions:
REMARK  status: ('A' for Active; 'I' for Inactive)
REMARK    1  A    between atoms: C_8  and  O_21
REMARK    2  A    between atoms: C_8  and  C_28
REMARK    3  A    between atoms: C_14  and  O_23
REMARK    4  A    between atoms: C_20  and  O_25
REMARK    5  A    between atoms: C_28  and  C_29
REMARK    6  A    between atoms: C_29  and  O_30
REMARK                            x       y       z     vdW  Elec       q    Type
REMARK                         _______ _______ _______ _____ _____    ______ ____
ROOT
ATOM      1  O   UNL     1     -34.925  24.411   0.784  0.00  0.00    -0.296 OA
ATOM      2  C   UNL     1     -34.207  26.186   3.772  0.00  0.00    +0.007 C 
ATOM      3  C   UNL     1     -32.749  26.540   3.432  0.00  0.00    +0.003 C 
ATOM      4  C   UNL     1     -34.535  24.779   3.180  0.00  0.00    +0.060 C 
ATOM      5  C   UNL     1     -32.475  26.591   1.908  0.00  0.00    +0.036 C 
ATOM      6  C   UNL     1     -35.987  24.287   3.538  0.00  0.00    +0.031 C 
ATOM      7  C   UNL     1     -36.179  24.367   5.097  0.00  0.00    +0.005 C 
ATOM      8  C   UNL     1     -30.997  27.058   1.930  0.00  0.00    +0.142 C 
ATOM      9  C   UNL     1     -34.448  26.236   5.285  0.00  0.00    +0.000 C 
ATOM     10  C   UNL     1     -32.182  27.864   3.939  0.00  0.00    +0.003 C 
ATOM     11  C   UNL     1     -32.738  25.193   1.339  0.00  0.00    +0.067 C 
ATOM     12  C   UNL     1     -35.847  25.761   5.657  0.00  0.00    +0.000 C 
ATOM     13  C   UNL     1     -34.164  24.771   1.679  0.00  0.00    +0.150 C 
ATOM     14  C   UNL     1     -36.228  22.805   3.073  0.00  0.00    +0.113 C 
ATOM     15  C   UNL     1     -30.952  28.124   3.047  0.00  0.00    +0.034 C 
ATOM     16  C   UNL     1     -35.376  23.291   5.859  0.00  0.00    +0.029 C 
ATOM     17  C   UNL     1     -33.361  27.622   1.156  0.00  0.00    +0.003 C 
ATOM     18  C   UNL     1     -37.057  25.188   2.862  0.00  0.00    +0.003 C 
ATOM     19  C   UNL     1     -35.430  21.766   3.861  0.00  0.00    +0.058 C 
ATOM     20  C   UNL     1     -35.663  21.880   5.363  0.00  0.00    +0.113 C 
ENDROOT
BRANCH   8  21
ATOM     21  O   UNL     1     -30.128  25.980   2.265  0.00  0.00    -0.380 OA
ATOM     22  H   UNL     1     -29.718  26.152   3.127  0.00  0.00    +0.211 HD
ENDBRANCH   8  21
BRANCH  14  23
ATOM     23  O   UNL     1     -37.615  22.458   3.148  0.00  0.00    -0.384 OA
ATOM     24  H   UNL     1     -37.957  22.294   2.256  0.00  0.00    +0.210 HD
ENDBRANCH  14  23
BRANCH  20  25
ATOM     25  O   UNL     1     -34.799  20.976   6.047  0.00  0.00    -0.384 OA
ATOM     26  H   UNL     1     -33.886  21.112   5.746  0.00  0.00    +0.210 HD
ENDBRANCH  20  25
BRANCH   8  28
ATOM     27  O   UNL     1     -30.251  28.758   0.438  0.00  0.00    -0.291 OA
ATOM     28  C   UNL     1     -30.478  27.562   0.618  0.00  0.00    +0.204 C 
BRANCH  28  29
ATOM     29  C   UNL     1     -30.255  26.522  -0.459  0.00  0.00    +0.204 C 
BRANCH  29  30
ATOM     30  O   UNL     1     -29.069  25.795  -0.212  0.00  0.00    -0.375 OA
ATOM     31  H   UNL     1     -28.303  26.324  -0.484  0.00  0.00    +0.211 HD
ENDBRANCH  29  30
ENDBRANCH  28  29
ENDBRANCH   8  28
TORSDOF 6
ENDMDL
MODEL 2
REMARK VINA RESULT:      -6.0      3.127      6.920
REMARK  Name = 192867
REMARK  6 active torsions:
REMARK  status: ('A' for Active; 'I' for Inactive)
REMARK    1  A    between atoms: C_8  and  O_21
REMARK    2  A    between atoms: C_8  and  C_28
REMARK    3  A    between atoms: C_14  and  O_23
REMARK    4  A    between atoms: C_20  and  O_25
REMARK    5  A    between atoms: C_28  and  C_29
REMARK    6  A    between atoms: C_29  and  O_30
REMARK                            x       y       z     vdW  Elec       q    Type
REMARK                         _______ _______ _______ _____ _____    ______ ____
ROOT
ATOM      1  O   UNL     1     -36.296  26.599   0.118  0.00  0.00    -0.296 OA
ATOM      2  C   UNL     1     -34.374  27.766   2.865  0.00  0.00    +0.007 C 
ATOM      3  C   UNL     1     -34.955  26.808   3.918  0.00  0.00    +0.003 C 
ATOM      4  C   UNL     1     -35.501  28.146   1.853  0.00  0.00    +0.060 C 
ATOM      5  C   UNL     1     -35.507  25.495   3.308  0.00  0.00    +0.036 C 
ATOM      6  C   UNL     1     -35.029  29.187   0.771  0.00  0.00    +0.031 C 
ATOM      7  C   UNL     1     -34.405  30.431   1.504  0.00  0.00    +0.005 C 
ATOM      8  C   UNL     1     -35.902  24.754   4.611  0.00  0.00    +0.142 C 
ATOM      9  C   UNL     1     -33.763  29.006   3.525  0.00  0.00    +0.000 C 
ATOM     10  C   UNL     1     -34.045  26.321   5.043  0.00  0.00    +0.003 C 
ATOM     11  C   UNL     1     -36.654  25.864   2.361  0.00  0.00    +0.067 C 
ATOM     12  C   UNL     1     -33.300  30.032   2.498  0.00  0.00    +0.000 C 
ATOM     13  C   UNL     1     -36.144  26.847   1.312  0.00  0.00    +0.150 C 
ATOM     14  C   UNL     1     -36.223  29.674  -0.126  0.00  0.00    +0.113 C 
ATOM     15  C   UNL     1     -34.744  25.060   5.587  0.00  0.00    +0.034 C 
ATOM     16  C   UNL     1     -35.462  31.301   2.217  0.00  0.00    +0.029 C 
ATOM     17  C   UNL     1     -34.440  24.684   2.522  0.00  0.00    +0.003 C 
ATOM     18  C   UNL     1     -33.946  28.567  -0.156  0.00  0.00    +0.003 C 
ATOM     19  C   UNL     1     -37.240  30.548   0.608  0.00  0.00    +0.058 C 
ATOM     20  C   UNL     1     -36.585  31.744   1.290  0.00  0.00    +0.113 C 
ENDROOT
BRANCH   8  21
ATOM     21  O   UNL     1     -37.120  25.268   5.140  0.00  0.00    -0.380 OA
ATOM     22  H   UNL     1     -37.689  25.565   4.414  0.00  0.00    +0.211 HD
ENDBRANCH   8  21
BRANCH  14  23
ATOM     23  O   UNL     1     -35.752  30.397  -1.269  0.00  0.00    -0.384 OA
ATOM     24  H   UNL     1     -35.729  29.808  -2.038  0.00  0.00    +0.210 HD
ENDBRANCH  14  23
BRANCH  20  25
ATOM     25  O   UNL     1     -37.559  32.443   2.060  0.00  0.00    -0.384 OA
ATOM     26  H   UNL     1     -38.153  31.805   2.486  0.00  0.00    +0.210 HD
ENDBRANCH  20  25
BRANCH   8  28
ATOM     27  O   UNL     1     -37.019  22.869   3.675  0.00  0.00    -0.291 OA
ATOM     28  C   UNL     1     -36.156  23.287   4.447  0.00  0.00    +0.204 C 
BRANCH  28  29
ATOM     29  C   UNL     1     -35.297  22.360   5.280  0.00  0.00    +0.204 C 
BRANCH  29  30
ATOM     30  O   UNL     1     -36.037  21.830   6.361  0.00  0.00    -0.375 OA
ATOM     31  H   UNL     1     -35.444  21.669   7.110  0.00  0.00    +0.211 HD
ENDBRANCH  29  30
ENDBRANCH  28  29
ENDBRANCH   8  28
TORSDOF 6
ENDMDL
MODEL 3
REMARK VINA RESULT:      -6.0      3.451      5.769
REMARK  Name = 192867
REMARK  6 active torsions:
REMARK  status: ('A' for Active; 'I' for Inactive)
REMARK    1  A    between atoms: C_8  and  O_21
REMARK    2  A    between atoms: C_8  and  C_28
REMARK    3  A    between atoms: C_14  and  O_23
REMARK    4  A    between atoms: C_20  and  O_25
REMARK    5  A    between atoms: C_28  and  C_29
REMARK    6  A    between atoms: C_29  and  O_30
REMARK                            x       y       z     vdW  Elec       q    Type
REMARK                         _______ _______ _______ _____ _____    ______ ____
ROOT
ATOM      1  O   UNL     1     -34.353  24.340  -0.422  0.00  0.00    -0.296 OA
ATOM      2  C   UNL     1     -35.225  21.926   2.028  0.00  0.00    +0.007 C 
ATOM      3  C   UNL     1     -34.966  22.809   3.260  0.00  0.00    +0.003 C 
ATOM      4  C   UNL     1     -34.188  22.290   0.919  0.00  0.00    +0.060 C 
ATOM      5  C   UNL     1     -35.103  24.324   2.962  0.00  0.00    +0.036 C 
ATOM      6  C   UNL     1     -34.319  21.387  -0.363  0.00  0.00    +0.031 C 
ATOM      7  C   UNL     1     -34.259  19.877   0.073  0.00  0.00    +0.005 C 
ATOM      8  C   UNL     1     -34.887  24.886   4.390  0.00  0.00    +0.142 C 
ATOM      9  C   UNL     1     -35.167  20.439   2.394  0.00  0.00    +0.000 C 
ATOM     10  C   UNL     1     -35.839  22.611   4.497  0.00  0.00    +0.003 C 
ATOM     11  C   UNL     1     -34.043  24.693   1.918  0.00  0.00    +0.067 C 
ATOM     12  C   UNL     1     -35.287  19.542   1.167  0.00  0.00    +0.000 C 
ATOM     13  C   UNL     1     -34.228  23.818   0.683  0.00  0.00    +0.150 C 
ATOM     14  C   UNL     1     -33.160  21.664  -1.388  0.00  0.00    +0.113 C 
ATOM     15  C   UNL     1     -35.668  23.914   5.302  0.00  0.00    +0.034 C 
ATOM     16  C   UNL     1     -32.851  19.435   0.524  0.00  0.00    +0.029 C 
ATOM     17  C   UNL     1     -36.506  24.723   2.426  0.00  0.00    +0.003 C 
ATOM     18  C   UNL     1     -35.674  21.640  -1.081  0.00  0.00    +0.003 C 
ATOM     19  C   UNL     1     -31.783  21.198  -0.916  0.00  0.00    +0.058 C 
ATOM     20  C   UNL     1     -31.779  19.726  -0.518  0.00  0.00    +0.113 C 
ENDROOT
BRANCH   8  21
ATOM     21  O   UNL     1     -33.507  24.863   4.743  0.00  0.00    -0.380 OA
ATOM     22  H   UNL     1     -32.996  25.359   4.084  0.00  0.00    +0.211 HD
ENDBRANCH   8  21
BRANCH  14  23
ATOM     23  O   UNL     1     -33.432  21.052  -2.654  0.00  0.00    -0.384 OA
ATOM     24  H   UNL     1     -33.321  20.092  -2.580  0.00  0.00    +0.210 HD
ENDBRANCH  14  23
BRANCH  20  25
ATOM     25  O   UNL     1     -30.510  19.387   0.032  0.00  0.00    -0.384 OA
ATOM     26  H   UNL     1     -29.822  19.513  -0.641  0.00  0.00    +0.210 HD
ENDBRANCH  20  25
BRANCH   8  28
ATOM     27  O   UNL     1     -36.249  26.622   5.287  0.00  0.00    -0.291 OA
ATOM     28  C   UNL     1     -35.296  26.315   4.572  0.00  0.00    +0.204 C 
BRANCH  28  29
ATOM     29  C   UNL     1     -34.474  27.347   3.828  0.00  0.00    +0.204 C 
BRANCH  29  30
ATOM     30  O   UNL     1     -33.396  27.794   4.624  0.00  0.00    -0.375 OA
ATOM     31  H   UNL     1     -33.740  28.226   5.420  0.00  0.00    +0.211 HD
ENDBRANCH  29  30
ENDBRANCH  28  29
ENDBRANCH   8  28
TORSDOF 6
ENDMDL
MODEL 4
REMARK VINA RESULT:      -5.8      4.188      6.374
REMARK  Name = 192867
REMARK  6 active torsions:
REMARK  status: ('A' for Active; 'I' for Inactive)
REMARK    1  A    between atoms: C_8  and  O_21
REMARK    2  A    between atoms: C_8  and  C_28
REMARK    3  A    between atoms: C_14  and  O_23
REMARK    4  A    between atoms: C_20  and  O_25
REMARK    5  A    between atoms: C_28  and  C_29
REMARK    6  A    between atoms: C_29  and  O_30
REMARK                            x       y       z     vdW  Elec       q    Type
REMARK                         _______ _______ _______ _____ _____    ______ ____
ROOT
ATOM      1  O   UNL     1     -36.251  20.311   2.401  0.00  0.00    -0.296 OA
ATOM      2  C   UNL     1     -34.356  22.460   0.307  0.00  0.00    +0.007 C 
ATOM      3  C   UNL     1     -33.240  21.457  -0.028  0.00  0.00    +0.003 C 
ATOM      4  C   UNL     1     -34.832  22.215   1.774  0.00  0.00    +0.060 C 
ATOM      5  C   UNL     1     -33.696  19.980   0.082  0.00  0.00    +0.036 C 
ATOM      6  C   UNL     1     -35.926  23.243   2.244  0.00  0.00    +0.031 C 
ATOM      7  C   UNL     1     -35.389  24.701   2.000  0.00  0.00    +0.005 C 
ATOM      8  C   UNL     1     -32.403  19.277  -0.404  0.00  0.00    +0.142 C 
ATOM      9  C   UNL     1     -33.882  23.903   0.098  0.00  0.00    +0.000 C 
ATOM     10  C   UNL     1     -32.586  21.525  -1.406  0.00  0.00    +0.003 C 
ATOM     11  C   UNL     1     -34.104  19.723   1.536  0.00  0.00    +0.067 C 
ATOM     12  C   UNL     1     -34.924  24.919   0.549  0.00  0.00    +0.000 C 
ATOM     13  C   UNL     1     -35.188  20.719   1.938  0.00  0.00    +0.150 C 
ATOM     14  C   UNL     1     -36.262  23.076   3.770  0.00  0.00    +0.113 C 
ATOM     15  C   UNL     1     -31.918  20.147  -1.585  0.00  0.00    +0.034 C 
ATOM     16  C   UNL     1     -34.263  25.099   2.977  0.00  0.00    +0.029 C 
ATOM     17  C   UNL     1     -34.889  19.633  -0.851  0.00  0.00    +0.003 C 
ATOM     18  C   UNL     1     -37.240  23.060   1.434  0.00  0.00    +0.003 C 
ATOM     19  C   UNL     1     -35.131  23.497   4.708  0.00  0.00    +0.058 C 
ATOM     20  C   UNL     1     -34.657  24.920   4.436  0.00  0.00    +0.113 C 
ENDROOT
BRANCH   8  21
ATOM     21  O   UNL     1     -31.413  19.268   0.619  0.00  0.00    -0.380 OA
ATOM     22  H   UNL     1     -30.708  18.646   0.382  0.00  0.00    +0.211 HD
ENDBRANCH   8  21
BRANCH  14  23
ATOM     23  O   UNL     1     -37.438  23.813   4.125  0.00  0.00    -0.384 OA
ATOM     24  H   UNL     1     -37.185  24.605   4.625  0.00  0.00    +0.210 HD
ENDBRANCH  14  23
BRANCH  20  25
ATOM     25  O   UNL     1     -33.523  25.206   5.250  0.00  0.00    -0.384 OA
ATOM     26  H   UNL     1     -33.349  24.454   5.838  0.00  0.00    +0.210 HD
ENDBRANCH  20  25
BRANCH   8  28
ATOM     27  O   UNL     1     -32.695  17.484  -1.946  0.00  0.00    -0.291 OA
ATOM     28  C   UNL     1     -32.573  17.835  -0.773  0.00  0.00    +0.204 C 
BRANCH  28  29
ATOM     29  C   UNL     1     -32.587  16.847   0.375  0.00  0.00    +0.204 C 
BRANCH  29  30
ATOM     30  O   UNL     1     -31.270  16.500   0.750  0.00  0.00    -0.375 OA
ATOM     31  H   UNL     1     -30.814  17.284   1.093  0.00  0.00    +0.211 HD
ENDBRANCH  29  30
ENDBRANCH  28  29
ENDBRANCH   8  28
TORSDOF 6
ENDMDL
MODEL 5
REMARK VINA RESULT:      -5.7      2.287      7.118
REMARK  Name = 192867
REMARK  6 active torsions:
REMARK  status: ('A' for Active; 'I' for Inactive)
REMARK    1  A    between atoms: C_8  and  O_21
REMARK    2  A    between atoms: C_8  and  C_28
REMARK    3  A    between atoms: C_14  and  O_23
REMARK    4  A    between atoms: C_20  and  O_25
REMARK    5  A    between atoms: C_28  and  C_29
REMARK    6  A    between atoms: C_29  and  O_30
REMARK                            x       y       z     vdW  Elec       q    Type
REMARK                         _______ _______ _______ _____ _____    ______ ____
ROOT
ATOM      1  O   UNL     1     -34.275  27.079   0.270  0.00  0.00    -0.296 OA
ATOM      2  C   UNL     1     -33.137  27.265   3.627  0.00  0.00    +0.007 C 
ATOM      3  C   UNL     1     -34.403  26.691   4.284  0.00  0.00    +0.003 C 
ATOM      4  C   UNL     1     -33.554  28.108   2.380  0.00  0.00    +0.060 C 
ATOM      5  C   UNL     1     -35.216  25.770   3.339  0.00  0.00    +0.036 C 
ATOM      6  C   UNL     1     -32.332  28.805   1.675  0.00  0.00    +0.031 C 
ATOM      7  C   UNL     1     -31.533  29.633   2.747  0.00  0.00    +0.005 C 
ATOM      8  C   UNL     1     -36.321  25.306   4.321  0.00  0.00    +0.142 C 
ATOM      9  C   UNL     1     -32.324  28.094   4.627  0.00  0.00    +0.000 C 
ATOM     10  C   UNL     1     -34.252  25.853   5.552  0.00  0.00    +0.003 C 
ATOM     11  C   UNL     1     -35.677  26.614   2.146  0.00  0.00    +0.067 C 
ATOM     12  C   UNL     1     -31.136  28.783   3.967  0.00  0.00    +0.000 C 
ATOM     13  C   UNL     1     -34.460  27.242   1.474  0.00  0.00    +0.150 C 
ATOM     14  C   UNL     1     -32.798  29.776   0.531  0.00  0.00    +0.113 C 
ATOM     15  C   UNL     1     -35.570  25.059   5.648  0.00  0.00    +0.034 C 
ATOM     16  C   UNL     1     -32.284  30.898   3.213  0.00  0.00    +0.029 C 
ATOM     17  C   UNL     1     -34.404  24.552   2.817  0.00  0.00    +0.003 C 
ATOM     18  C   UNL     1     -31.375  27.748   1.055  0.00  0.00    +0.003 C 
ATOM     19  C   UNL     1     -33.522  31.026   1.029  0.00  0.00    +0.058 C 
ATOM     20  C   UNL     1     -32.700  31.797   2.056  0.00  0.00    +0.113 C 
ENDROOT
BRANCH   8  21
ATOM     21  O   UNL     1     -37.296  26.328   4.510  0.00  0.00    -0.380 OA
ATOM     22  H   UNL     1     -36.970  26.970   5.160  0.00  0.00    +0.211 HD
ENDBRANCH   8  21
BRANCH  14  23
ATOM     23  O   UNL     1     -31.693  30.190  -0.280  0.00  0.00    -0.384 OA
ATOM     24  H   UNL     1     -30.980  29.537  -0.214  0.00  0.00    +0.210 HD
ENDBRANCH  14  23
BRANCH  20  25
ATOM     25  O   UNL     1     -33.476  32.873   2.576  0.00  0.00    -0.384 OA
ATOM     26  H   UNL     1     -33.904  33.345   1.844  0.00  0.00    +0.210 HD
ENDBRANCH  20  25
BRANCH   8  28
ATOM     27  O   UNL     1     -36.767  22.972   4.157  0.00  0.00    -0.291 OA
ATOM     28  C   UNL     1     -37.109  24.118   3.864  0.00  0.00    +0.204 C 
BRANCH  28  29
ATOM     29  C   UNL     1     -38.338  24.409   3.029  0.00  0.00    +0.204 C 
BRANCH  29  30
ATOM     30  O   UNL     1     -39.429  24.765   3.852  0.00  0.00    -0.375 OA
ATOM     31  H   UNL     1     -40.043  25.324   3.352  0.00  0.00    +0.211 HD
ENDBRANCH  29  30
ENDBRANCH  28  29
ENDBRANCH   8  28
TORSDOF 6
ENDMDL
MODEL 6
REMARK VINA RESULT:      -5.7      3.382      6.386
REMARK  Name = 192867
REMARK  6 active torsions:
REMARK  status: ('A' for Active; 'I' for Inactive)
REMARK    1  A    between atoms: C_8  and  O_21
REMARK    2  A    between atoms: C_8  and  C_28
REMARK    3  A    between atoms: C_14  and  O_23
REMARK    4  A    between atoms: C_20  and  O_25
REMARK    5  A    between atoms: C_28  and  C_29
REMARK    6  A    between atoms: C_29  and  O_30
REMARK                            x       y       z     vdW  Elec       q    Type
REMARK                         _______ _______ _______ _____ _____    ______ ____
ROOT
ATOM      1  O   UNL     1     -38.089  22.568   2.511  0.00  0.00    -0.296 OA
ATOM      2  C   UNL     1     -34.982  23.411   1.016  0.00  0.00    +0.007 C 
ATOM      3  C   UNL     1     -34.442  21.976   0.889  0.00  0.00    +0.003 C 
ATOM      4  C   UNL     1     -35.831  23.516   2.322  0.00  0.00    +0.060 C 
ATOM      5  C   UNL     1     -35.562  20.909   0.814  0.00  0.00    +0.036 C 
ATOM      6  C   UNL     1     -36.371  24.971   2.586  0.00  0.00    +0.031 C 
ATOM      7  C   UNL     1     -35.161  25.975   2.548  0.00  0.00    +0.005 C 
ATOM      8  C   UNL     1     -34.695  19.643   0.596  0.00  0.00    +0.142 C 
ATOM      9  C   UNL     1     -33.841  24.433   0.996  0.00  0.00    +0.000 C 
ATOM     10  C   UNL     1     -33.547  21.636  -0.300  0.00  0.00    +0.003 C 
ATOM     11  C   UNL     1     -36.357  20.971   2.123  0.00  0.00    +0.067 C 
ATOM     12  C   UNL     1     -34.338  25.850   1.254  0.00  0.00    +0.000 C 
ATOM     13  C   UNL     1     -36.888  22.387   2.321  0.00  0.00    +0.150 C 
ATOM     14  C   UNL     1     -37.077  25.082   3.986  0.00  0.00    +0.113 C 
ATOM     15  C   UNL     1     -33.602  20.098  -0.396  0.00  0.00    +0.034 C 
ATOM     16  C   UNL     1     -34.233  25.846   3.774  0.00  0.00    +0.029 C 
ATOM     17  C   UNL     1     -36.533  21.116  -0.382  0.00  0.00    +0.003 C 
ATOM     18  C   UNL     1     -37.393  25.388   1.492  0.00  0.00    +0.003 C 
ATOM     19  C   UNL     1     -36.125  24.968   5.176  0.00  0.00    +0.058 C 
ATOM     20  C   UNL     1     -34.980  25.971   5.095  0.00  0.00    +0.113 C 
ENDROOT
BRANCH   8  21
ATOM     21  O   UNL     1     -34.087  19.226   1.815  0.00  0.00    -0.380 OA
ATOM     22  H   UNL     1     -34.461  19.731   2.553  0.00  0.00    +0.211 HD
ENDBRANCH   8  21
BRANCH  14  23
ATOM     23  O   UNL     1     -37.800  26.312   4.105  0.00  0.00    -0.384 OA
ATOM     24  H   UNL     1     -37.290  26.937   4.643  0.00  0.00    +0.210 HD
ENDBRANCH  14  23
BRANCH  20  25
ATOM     25  O   UNL     1     -34.062  25.730   6.158  0.00  0.00    -0.384 OA
ATOM     26  H   UNL     1     -33.695  24.835   6.072  0.00  0.00    +0.210 HD
ENDBRANCH  20  25
BRANCH   8  28
ATOM     27  O   UNL     1     -36.669  18.353   0.257  0.00  0.00    -0.291 OA
ATOM     28  C   UNL     1     -35.449  18.438   0.123  0.00  0.00    +0.204 C 
BRANCH  28  29
ATOM     29  C   UNL     1     -34.626  17.343  -0.522  0.00  0.00    +0.204 C 
BRANCH  29  30
ATOM     30  O   UNL     1     -34.074  16.490   0.459  0.00  0.00    -0.375 OA
ATOM     31  H   UNL     1     -34.662  15.732   0.597  0.00  0.00    +0.211 HD
ENDBRANCH  29  30
ENDBRANCH  28  29
ENDBRANCH   8  28
TORSDOF 6
ENDMDL
MODEL 7
REMARK VINA RESULT:      -5.6      3.279      5.520
REMARK  Name = 192867
REMARK  6 active torsions:
REMARK  status: ('A' for Active; 'I' for Inactive)
REMARK    1  A    between atoms: C_8  and  O_21
REMARK    2  A    between atoms: C_8  and  C_28
REMARK    3  A    between atoms: C_14  and  O_23
REMARK    4  A    between atoms: C_20  and  O_25
REMARK    5  A    between atoms: C_28  and  C_29
REMARK    6  A    between atoms: C_29  and  O_30
REMARK                            x       y       z     vdW  Elec       q    Type
REMARK                         _______ _______ _______ _____ _____    ______ ____
ROOT
ATOM      1  O   UNL     1     -38.255  26.990   1.966  0.00  0.00    -0.296 OA
ATOM      2  C   UNL     1     -37.287  23.714   2.930  0.00  0.00    +0.007 C 
ATOM      3  C   UNL     1     -35.844  24.059   3.334  0.00  0.00    +0.003 C 
ATOM      4  C   UNL     1     -37.699  24.611   1.719  0.00  0.00    +0.060 C 
ATOM      5  C   UNL     1     -35.667  25.538   3.758  0.00  0.00    +0.036 C 
ATOM      6  C   UNL     1     -39.140  24.284   1.176  0.00  0.00    +0.031 C 
ATOM      7  C   UNL     1     -39.228  22.744   0.869  0.00  0.00    +0.005 C 
ATOM      8  C   UNL     1     -34.176  25.507   4.181  0.00  0.00    +0.142 C 
ATOM      9  C   UNL     1     -37.428  22.223   2.606  0.00  0.00    +0.000 C 
ATOM     10  C   UNL     1     -35.202  23.282   4.481  0.00  0.00    +0.003 C 
ATOM     11  C   UNL     1     -36.012  26.416   2.550  0.00  0.00    +0.067 C 
ATOM     12  C   UNL     1     -38.815  21.881   2.074  0.00  0.00    +0.000 C 
ATOM     13  C   UNL     1     -37.426  26.090   2.079  0.00  0.00    +0.150 C 
ATOM     14  C   UNL     1     -39.459  25.082  -0.139  0.00  0.00    +0.113 C 
ATOM     15  C   UNL     1     -34.024  24.167   4.935  0.00  0.00    +0.034 C 
ATOM     16  C   UNL     1     -38.413  22.331  -0.375  0.00  0.00    +0.029 C 
ATOM     17  C   UNL     1     -36.566  25.948   4.958  0.00  0.00    +0.003 C 
ATOM     18  C   UNL     1     -40.222  24.638   2.235  0.00  0.00    +0.003 C 
ATOM     19  C   UNL     1     -38.647  24.634  -1.354  0.00  0.00    +0.058 C 
ATOM     20  C   UNL     1     -38.778  23.137  -1.614  0.00  0.00    +0.113 C 
ENDROOT
BRANCH   8  21
ATOM     21  O   UNL     1     -33.323  25.510   3.041  0.00  0.00    -0.380 OA
ATOM     22  H   UNL     1     -33.857  25.598   2.237  0.00  0.00    +0.211 HD
ENDBRANCH   8  21
BRANCH  14  23
ATOM     23  O   UNL     1     -40.849  24.997  -0.472  0.00  0.00    -0.384 OA
ATOM     24  H   UNL     1     -41.370  25.484   0.185  0.00  0.00    +0.210 HD
ENDBRANCH  14  23
BRANCH  20  25
ATOM     25  O   UNL     1     -37.901  22.761  -2.672  0.00  0.00    -0.384 OA
ATOM     26  H   UNL     1     -37.346  22.019  -2.384  0.00  0.00    +0.210 HD
ENDBRANCH  20  25
BRANCH   8  28
ATOM     27  O   UNL     1     -33.600  27.799   4.479  0.00  0.00    -0.291 OA
ATOM     28  C   UNL     1     -33.727  26.686   4.988  0.00  0.00    +0.204 C 
BRANCH  28  29
ATOM     29  C   UNL     1     -33.441  26.427   6.452  0.00  0.00    +0.204 C 
BRANCH  29  30
ATOM     30  O   UNL     1     -32.265  27.097   6.857  0.00  0.00    -0.375 OA
ATOM     31  H   UNL     1     -32.394  28.054   6.775  0.00  0.00    +0.211 HD
ENDBRANCH  29  30
ENDBRANCH  28  29
ENDBRANCH   8  28
TORSDOF 6
ENDMDL
MODEL 8
REMARK VINA RESULT:      -5.6      2.730      4.496
REMARK  Name = 192867
REMARK  6 active torsions:
REMARK  status: ('A' for Active; 'I' for Inactive)
REMARK    1  A    between atoms: C_8  and  O_21
REMARK    2  A    between atoms: C_8  and  C_28
REMARK    3  A    between atoms: C_14  and  O_23
REMARK    4  A    between atoms: C_20  and  O_25
REMARK    5  A    between atoms: C_28  and  C_29
REMARK    6  A    between atoms: C_29  and  O_30
REMARK                            x       y       z     vdW  Elec       q    Type
REMARK                         _______ _______ _______ _____ _____    ______ ____
ROOT
ATOM      1  O   UNL     1     -33.268  25.162   4.478  0.00  0.00    -0.296 OA
ATOM      2  C   UNL     1     -33.932  27.701   2.087  0.00  0.00    +0.007 C 
ATOM      3  C   UNL     1     -33.356  28.874   2.898  0.00  0.00    +0.003 C 
ATOM      4  C   UNL     1     -34.589  26.682   3.072  0.00  0.00    +0.060 C 
ATOM      5  C   UNL     1     -32.276  28.437   3.919  0.00  0.00    +0.036 C 
ATOM      6  C   UNL     1     -35.278  25.474   2.335  0.00  0.00    +0.031 C 
ATOM      7  C   UNL     1     -36.281  26.040   1.264  0.00  0.00    +0.005 C 
ATOM      8  C   UNL     1     -31.859  29.827   4.462  0.00  0.00    +0.142 C 
ATOM      9  C   UNL     1     -34.928  28.194   1.033  0.00  0.00    +0.000 C 
ATOM     10  C   UNL     1     -32.689  30.023   2.145  0.00  0.00    +0.003 C 
ATOM     11  C   UNL     1     -32.937  27.485   4.921  0.00  0.00    +0.067 C 
ATOM     12  C   UNL     1     -35.612  27.042   0.308  0.00  0.00    +0.000 C 
ATOM     13  C   UNL     1     -33.561  26.315   4.168  0.00  0.00    +0.150 C 
ATOM     14  C   UNL     1     -36.070  24.559   3.337  0.00  0.00    +0.113 C 
ATOM     15  C   UNL     1     -31.824  30.729   3.208  0.00  0.00    +0.034 C 
ATOM     16  C   UNL     1     -37.539  26.675   1.893  0.00  0.00    +0.029 C 
ATOM     17  C   UNL     1     -31.061  27.722   3.263  0.00  0.00    +0.003 C 
ATOM     18  C   UNL     1     -34.221  24.596   1.607  0.00  0.00    +0.003 C 
ATOM     19  C   UNL     1     -37.319  25.213   3.927  0.00  0.00    +0.058 C 
ATOM     20  C   UNL     1     -38.261  25.732   2.846  0.00  0.00    +0.113 C 
ENDROOT
BRANCH   8  21
ATOM     21  O   UNL     1     -32.827  30.326   5.380  0.00  0.00    -0.380 OA
ATOM     22  H   UNL     1     -32.378  30.771   6.115  0.00  0.00    +0.211 HD
ENDBRANCH   8  21
BRANCH  14  23
ATOM     23  O   UNL     1     -36.458  23.327   2.718  0.00  0.00    -0.384 OA
ATOM     24  H   UNL     1     -35.688  22.742   2.650  0.00  0.00    +0.210 HD
ENDBRANCH  14  23
BRANCH  20  25
ATOM     25  O   UNL     1     -39.337  26.442   3.455  0.00  0.00    -0.384 OA
ATOM     26  H   UNL     1     -39.224  27.393   3.301  0.00  0.00    +0.210 HD
ENDBRANCH  20  25
BRANCH   8  28
ATOM     27  O   UNL     1     -29.619  30.529   4.866  0.00  0.00    -0.291 OA
ATOM     28  C   UNL     1     -30.573  29.842   5.229  0.00  0.00    +0.204 C 
BRANCH  28  29
ATOM     29  C   UNL     1     -30.520  28.970   6.466  0.00  0.00    +0.204 C 
BRANCH  29  30
ATOM     30  O   UNL     1     -31.317  29.516   7.496  0.00  0.00    -0.375 OA
ATOM     31  H   UNL     1     -31.947  28.848   7.807  0.00  0.00    +0.211 HD
ENDBRANCH  29  30
ENDBRANCH  28  29
ENDBRANCH   8  28
TORSDOF 6
ENDMDL
MODEL 9
REMARK VINA RESULT:      -5.6      3.786      6.798
REMARK  Name = 192867
REMARK  6 active torsions:
REMARK  status: ('A' for Active; 'I' for Inactive)
REMARK    1  A    between atoms: C_8  and  O_21
REMARK    2  A    between atoms: C_8  and  C_28
REMARK    3  A    between atoms: C_14  and  O_23
REMARK    4  A    between atoms: C_20  and  O_25
REMARK    5  A    between atoms: C_28  and  C_29
REMARK    6  A    between atoms: C_29  and  O_30
REMARK                            x       y       z     vdW  Elec       q    Type
REMARK                         _______ _______ _______ _____ _____    ______ ____
ROOT
ATOM      1  O   UNL     1     -34.674  23.443  -1.105  0.00  0.00    -0.296 OA
ATOM      2  C   UNL     1     -34.623  20.875   1.345  0.00  0.00    +0.007 C 
ATOM      3  C   UNL     1     -34.798  21.786   2.572  0.00  0.00    +0.003 C 
ATOM      4  C   UNL     1     -33.767  21.627   0.277  0.00  0.00    +0.060 C 
ATOM      5  C   UNL     1     -35.514  23.120   2.243  0.00  0.00    +0.036 C 
ATOM      6  C   UNL     1     -33.464  20.750  -0.994  0.00  0.00    +0.031 C 
ATOM      7  C   UNL     1     -32.827  19.389  -0.530  0.00  0.00    +0.005 C 
ATOM      8  C   UNL     1     -35.609  23.718   3.669  0.00  0.00    +0.142 C 
ATOM      9  C   UNL     1     -33.992  19.536   1.738  0.00  0.00    +0.000 C 
ATOM     10  C   UNL     1     -35.576  21.252   3.772  0.00  0.00    +0.003 C 
ATOM     11  C   UNL     1     -34.642  23.885   1.241  0.00  0.00    +0.067 C 
ATOM     12  C   UNL     1     -33.686  18.669   0.523  0.00  0.00    +0.000 C 
ATOM     13  C   UNL     1     -34.403  23.012   0.013  0.00  0.00    +0.150 C 
ATOM     14  C   UNL     1     -32.466  21.469  -1.972  0.00  0.00    +0.113 C 
ATOM     15  C   UNL     1     -35.979  22.513   4.562  0.00  0.00    +0.034 C 
ATOM     16  C   UNL     1     -31.383  19.547  -0.010  0.00  0.00    +0.029 C 
ATOM     17  C   UNL     1     -36.933  22.925   1.638  0.00  0.00    +0.003 C 
ATOM     18  C   UNL     1     -34.772  20.441  -1.776  0.00  0.00    +0.003 C 
ATOM     19  C   UNL     1     -31.042  21.592  -1.431  0.00  0.00    +0.058 C 
ATOM     20  C   UNL     1     -30.469  20.244  -1.008  0.00  0.00    +0.113 C 
ENDROOT
BRANCH   8  21
ATOM     21  O   UNL     1     -34.354  24.249   4.083  0.00  0.00    -0.380 OA
ATOM     22  H   UNL     1     -33.643  23.644   3.820  0.00  0.00    +0.211 HD
ENDBRANCH   8  21
BRANCH  14  23
ATOM     23  O   UNL     1     -32.410  20.803  -3.238  0.00  0.00    -0.384 OA
ATOM     24  H   UNL     1     -33.278  20.420  -3.442  0.00  0.00    +0.210 HD
ENDBRANCH  14  23
BRANCH  20  25
ATOM     25  O   UNL     1     -29.197  20.441  -0.396  0.00  0.00    -0.384 OA
ATOM     26  H   UNL     1     -28.504  20.070  -0.966  0.00  0.00    +0.210 HD
ENDBRANCH  20  25
BRANCH   8  28
ATOM     27  O   UNL     1     -37.724  24.689   4.176  0.00  0.00    -0.291 OA
ATOM     28  C   UNL     1     -36.564  24.864   3.808  0.00  0.00    +0.204 C 
BRANCH  28  29
ATOM     29  C   UNL     1     -36.019  26.236   3.469  0.00  0.00    +0.204 C 
BRANCH  29  30
ATOM     30  O   UNL     1     -35.678  26.942   4.644  0.00  0.00    -0.375 OA
ATOM     31  H   UNL     1     -34.834  26.611   4.987  0.00  0.00    +0.211 HD
ENDBRANCH  29  30
ENDBRANCH  28  29
ENDBRANCH   8  28
TORSDOF 6
ENDMDL
