MODEL 1
REMARK VINA RESULT:      -6.8      0.000      0.000
REMARK  Name = 56649444
REMARK  7 active torsions:
REMARK  status: ('A' for Active; 'I' for Inactive)
REMARK    1  A    between atoms: C_1  and  C_4
REMARK    2  A    between atoms: C_1  and  N_13
REMARK    3  A    between atoms: C_1  and  C_17
REMARK    4  A    between atoms: N_3  and  C_6
REMARK    5  A    between atoms: C_6  and  C_10
REMARK    6  A    between atoms: C_10  and  O_11
REMARK    7  A    between atoms: C_17  and  C_19
REMARK                            x       y       z     vdW  Elec       q    Type
REMARK                         _______ _______ _______ _____ _____    ______ ____
ROOT
ATOM      1  C   UNL     1     -36.328  21.229   2.121  0.00  0.00    +0.017 C 
ENDROOT
BRANCH   1   4
ATOM      2  O   UNL     1     -35.170  21.031   4.241  0.00  0.00    -0.277 OA
ATOM      3  N   UNL     1     -35.966  23.114   3.603  0.00  0.00    -0.300 N 
ATOM      4  C   UNL     1     -35.747  21.754   3.431  0.00  0.00    +0.202 C 
ATOM      5  H   UNL     1     -36.438  23.613   2.898  0.00  0.00    +0.150 HD
BRANCH   3   6
ATOM      6  C   UNL     1     -35.524  23.819   4.782  0.00  0.00    +0.146 C 
ATOM      7  C   UNL     1     -34.095  24.322   4.567  0.00  0.00    +0.031 C 
ATOM      8  C   UNL     1     -35.585  22.880   5.989  0.00  0.00    +0.031 C 
BRANCH   6  10
ATOM      9  O   UNL     1     -36.101  25.992   5.711  0.00  0.00    -0.249 OA
ATOM     10  C   UNL     1     -36.432  25.018   5.046  0.00  0.00    +0.330 C 
BRANCH  10  11
ATOM     11  O   UNL     1     -37.654  24.904   4.473  0.00  0.00    -0.479 OA
ATOM     12  H   UNL     1     -37.727  24.725   3.556  0.00  0.00    +0.295 HD
ENDBRANCH  10  11
ENDBRANCH   6  10
ENDBRANCH   3   6
ENDBRANCH   1   4
BRANCH   1  13
ATOM     13  N   UNL     1     -37.709  20.834   2.401  0.00  0.00    +0.388 N 
ATOM     14  H   UNL     1     -37.737  19.844   2.641  0.00  0.00    -0.089 HD
ATOM     15  H   UNL     1     -38.285  20.999   1.575  0.00  0.00    -0.089 HD
ATOM     16  H   UNL     1     -38.069  21.384   3.181  0.00  0.00    -0.089 HD
ENDBRANCH   1  13
BRANCH   1  17
ATOM     17  C   UNL     1     -35.530  20.018   1.619  0.00  0.00    +0.015 C 
BRANCH  17  19
ATOM     18  N   UNL     1     -32.758  21.561  -0.254  0.00  0.00    -0.312 N 
ATOM     19  C   UNL     1     -34.253  20.408   0.914  0.00  0.00    -0.008 C 
ATOM     20  C   UNL     1     -33.065  19.630   0.820  0.00  0.00    +0.011 C 
ATOM     21  C   UNL     1     -32.143  20.375   0.082  0.00  0.00    +0.048 C 
ATOM     22  C   UNL     1     -34.032  21.589   0.244  0.00  0.00    +0.058 C 
ATOM     23  C   UNL     1     -32.685  18.358   1.292  0.00  0.00    +0.001 C 
ATOM     24  C   UNL     1     -30.855  19.912  -0.208  0.00  0.00    +0.015 C 
ATOM     25  C   UNL     1     -31.400  17.881   1.010  0.00  0.00    +0.000 C 
ATOM     26  C   UNL     1     -30.500  18.648   0.272  0.00  0.00    +0.001 C 
ATOM     27  H   UNL     1     -32.341  22.284  -0.777  0.00  0.00    +0.152 HD
ENDBRANCH  17  19
ENDBRANCH   1  17
TORSDOF 7
ENDMDL
MODEL 2
REMARK VINA RESULT:      -6.8      4.068      6.400
REMARK  Name = 56649444
REMARK  7 active torsions:
REMARK  status: ('A' for Active; 'I' for Inactive)
REMARK    1  A    between atoms: C_1  and  C_4
REMARK    2  A    between atoms: C_1  and  N_13
REMARK    3  A    between atoms: C_1  and  C_17
REMARK    4  A    between atoms: N_3  and  C_6
REMARK    5  A    between atoms: C_6  and  C_10
REMARK    6  A    between atoms: C_10  and  O_11
REMARK    7  A    between atoms: C_17  and  C_19
REMARK                            x       y       z     vdW  Elec       q    Type
REMARK                         _______ _______ _______ _____ _____    ______ ____
ROOT
ATOM      1  C   UNL     1     -34.734  27.375   3.136  0.00  0.00    +0.017 C 
ENDROOT
BRANCH   1   4
ATOM      2  O   UNL     1     -32.567  26.486   3.757  0.00  0.00    -0.277 OA
ATOM      3  N   UNL     1     -33.155  28.598   4.511  0.00  0.00    -0.300 N 
ATOM      4  C   UNL     1     -33.367  27.417   3.815  0.00  0.00    +0.202 C 
ATOM      5  H   UNL     1     -33.855  29.290   4.501  0.00  0.00    +0.150 HD
BRANCH   3   6
ATOM      6  C   UNL     1     -31.940  28.844   5.250  0.00  0.00    +0.146 C 
ATOM      7  C   UNL     1     -31.940  30.287   5.761  0.00  0.00    +0.031 C 
ATOM      8  C   UNL     1     -30.733  28.597   4.342  0.00  0.00    +0.031 C 
BRANCH   6  10
ATOM      9  O   UNL     1     -32.828  27.500   7.074  0.00  0.00    -0.249 OA
ATOM     10  C   UNL     1     -31.854  27.900   6.447  0.00  0.00    +0.330 C 
BRANCH  10  11
ATOM     11  O   UNL     1     -30.586  27.541   6.759  0.00  0.00    -0.479 OA
ATOM     12  H   UNL     1     -29.874  28.118   6.564  0.00  0.00    +0.295 HD
ENDBRANCH  10  11
ENDBRANCH   6  10
ENDBRANCH   3   6
ENDBRANCH   1   4
BRANCH   1  13
ATOM     13  N   UNL     1     -35.237  28.750   3.115  0.00  0.00    +0.388 N 
ATOM     14  H   UNL     1     -36.251  28.739   3.011  0.00  0.00    -0.089 HD
ATOM     15  H   UNL     1     -34.821  29.252   2.331  0.00  0.00    -0.089 HD
ATOM     16  H   UNL     1     -34.988  29.215   3.987  0.00  0.00    -0.089 HD
ENDBRANCH   1  13
BRANCH   1  17
ATOM     17  C   UNL     1     -35.702  26.477   3.918  0.00  0.00    +0.015 C 
BRANCH  17  19
ATOM     18  N   UNL     1     -35.628  23.209   2.218  0.00  0.00    -0.312 N 
ATOM     19  C   UNL     1     -35.640  25.031   3.486  0.00  0.00    -0.008 C 
ATOM     20  C   UNL     1     -35.484  23.899   4.334  0.00  0.00    +0.011 C 
ATOM     21  C   UNL     1     -35.481  22.769   3.514  0.00  0.00    +0.048 C 
ATOM     22  C   UNL     1     -35.725  24.574   2.191  0.00  0.00    +0.058 C 
ATOM     23  C   UNL     1     -35.348  23.727   5.726  0.00  0.00    +0.001 C 
ATOM     24  C   UNL     1     -35.345  21.470   4.017  0.00  0.00    +0.015 C 
ATOM     25  C   UNL     1     -35.212  22.434   6.244  0.00  0.00    +0.000 C 
ATOM     26  C   UNL     1     -35.210  21.324   5.401  0.00  0.00    +0.001 C 
ATOM     27  H   UNL     1     -35.658  22.626   1.424  0.00  0.00    +0.152 HD
ENDBRANCH  17  19
ENDBRANCH   1  17
TORSDOF 7
ENDMDL
MODEL 3
REMARK VINA RESULT:      -6.5      4.108      6.539
REMARK  Name = 56649444
REMARK  7 active torsions:
REMARK  status: ('A' for Active; 'I' for Inactive)
REMARK    1  A    between atoms: C_1  and  C_4
REMARK    2  A    between atoms: C_1  and  N_13
REMARK    3  A    between atoms: C_1  and  C_17
REMARK    4  A    between atoms: N_3  and  C_6
REMARK    5  A    between atoms: C_6  and  C_10
REMARK    6  A    between atoms: C_10  and  O_11
REMARK    7  A    between atoms: C_17  and  C_19
REMARK                            x       y       z     vdW  Elec       q    Type
REMARK                         _______ _______ _______ _____ _____    ______ ____
ROOT
ATOM      1  C   UNL     1     -35.526  23.083   4.752  0.00  0.00    +0.017 C 
ENDROOT
BRANCH   1   4
ATOM      2  O   UNL     1     -35.189  22.249   2.501  0.00  0.00    -0.277 OA
ATOM      3  N   UNL     1     -37.358  22.623   3.231  0.00  0.00    -0.300 N 
ATOM      4  C   UNL     1     -35.978  22.598   3.377  0.00  0.00    +0.202 C 
ATOM      5  H   UNL     1     -37.912  22.918   3.990  0.00  0.00    +0.150 HD
BRANCH   3   6
ATOM      6  C   UNL     1     -38.007  22.230   2.004  0.00  0.00    +0.146 C 
ATOM      7  C   UNL     1     -37.558  20.818   1.621  0.00  0.00    +0.031 C 
ATOM      8  C   UNL     1     -37.650  23.226   0.898  0.00  0.00    +0.031 C 
BRANCH   6  10
ATOM      9  O   UNL     1     -40.198  23.243   2.314  0.00  0.00    -0.249 OA
ATOM     10  C   UNL     1     -39.523  22.228   2.191  0.00  0.00    +0.330 C 
BRANCH  10  11
ATOM     11  O   UNL     1     -40.061  20.985   2.211  0.00  0.00    -0.479 OA
ATOM     12  H   UNL     1     -40.944  20.851   1.927  0.00  0.00    +0.295 HD
ENDBRANCH  10  11
ENDBRANCH   6  10
ENDBRANCH   3   6
ENDBRANCH   1   4
BRANCH   1  13
ATOM     13  N   UNL     1     -36.095  22.159   5.734  0.00  0.00    +0.388 N 
ATOM     14  H   UNL     1     -36.656  21.456   5.254  0.00  0.00    -0.089 HD
ATOM     15  H   UNL     1     -36.684  22.677   6.386  0.00  0.00    -0.089 HD
ATOM     16  H   UNL     1     -35.341  21.701   6.246  0.00  0.00    -0.089 HD
ENDBRANCH   1  13
BRANCH   1  17
ATOM     17  C   UNL     1     -36.032  24.507   5.020  0.00  0.00    +0.015 C 
BRANCH  17  19
ATOM     18  N   UNL     1     -34.232  26.954   2.935  0.00  0.00    -0.312 N 
ATOM     19  C   UNL     1     -35.150  25.569   4.407  0.00  0.00    -0.008 C 
ATOM     20  C   UNL     1     -34.145  26.324   5.073  0.00  0.00    +0.011 C 
ATOM     21  C   UNL     1     -33.584  27.184   4.128  0.00  0.00    +0.048 C 
ATOM     22  C   UNL     1     -35.181  25.980   3.094  0.00  0.00    +0.058 C 
ATOM     23  C   UNL     1     -33.655  26.355   6.394  0.00  0.00    +0.001 C 
ATOM     24  C   UNL     1     -32.554  28.081   4.438  0.00  0.00    +0.015 C 
ATOM     25  C   UNL     1     -32.626  27.246   6.719  0.00  0.00    +0.000 C 
ATOM     26  C   UNL     1     -32.086  28.096   5.755  0.00  0.00    +0.001 C 
ATOM     27  H   UNL     1     -34.042  27.423   2.090  0.00  0.00    +0.152 HD
ENDBRANCH  17  19
ENDBRANCH   1  17
TORSDOF 7
ENDMDL
MODEL 4
REMARK VINA RESULT:      -6.5      3.777      6.706
REMARK  Name = 56649444
REMARK  7 active torsions:
REMARK  status: ('A' for Active; 'I' for Inactive)
REMARK    1  A    between atoms: C_1  and  C_4
REMARK    2  A    between atoms: C_1  and  N_13
REMARK    3  A    between atoms: C_1  and  C_17
REMARK    4  A    between atoms: N_3  and  C_6
REMARK    5  A    between atoms: C_6  and  C_10
REMARK    6  A    between atoms: C_10  and  O_11
REMARK    7  A    between atoms: C_17  and  C_19
REMARK                            x       y       z     vdW  Elec       q    Type
REMARK                         _______ _______ _______ _____ _____    ______ ____
ROOT
ATOM      1  C   UNL     1     -35.421  23.129   5.086  0.00  0.00    +0.017 C 
ENDROOT
BRANCH   1   4
ATOM      2  O   UNL     1     -34.877  22.859   2.740  0.00  0.00    -0.277 OA
ATOM      3  N   UNL     1     -37.035  22.377   3.439  0.00  0.00    -0.300 N 
ATOM      4  C   UNL     1     -35.719  22.774   3.632  0.00  0.00    +0.202 C 
ATOM      5  H   UNL     1     -37.639  22.338   4.216  0.00  0.00    +0.150 HD
BRANCH   3   6
ATOM      6  C   UNL     1     -37.545  22.018   2.139  0.00  0.00    +0.146 C 
ATOM      7  C   UNL     1     -37.204  23.122   1.136  0.00  0.00    +0.031 C 
ATOM      8  C   UNL     1     -39.061  21.820   2.224  0.00  0.00    +0.031 C 
BRANCH   6  10
ATOM      9  O   UNL     1     -36.455  20.541   0.541  0.00  0.00    -0.249 OA
ATOM     10  C   UNL     1     -36.906  20.713   1.667  0.00  0.00    +0.330 C 
BRANCH  10  11
ATOM     11  O   UNL     1     -36.885  19.750   2.619  0.00  0.00    -0.479 OA
ATOM     12  H   UNL     1     -36.717  19.976   3.512  0.00  0.00    +0.295 HD
ENDBRANCH  10  11
ENDBRANCH   6  10
ENDBRANCH   3   6
ENDBRANCH   1   4
BRANCH   1  13
ATOM     13  N   UNL     1     -36.015  22.073   5.908  0.00  0.00    +0.388 N 
ATOM     14  H   UNL     1     -35.706  21.164   5.568  0.00  0.00    -0.089 HD
ATOM     15  H   UNL     1     -37.031  22.130   5.852  0.00  0.00    -0.089 HD
ATOM     16  H   UNL     1     -35.721  22.192   6.877  0.00  0.00    -0.089 HD
ENDBRANCH   1  13
BRANCH   1  17
ATOM     17  C   UNL     1     -36.039  24.485   5.452  0.00  0.00    +0.015 C 
BRANCH  17  19
ATOM     18  N   UNL     1     -33.680  27.219   4.720  0.00  0.00    -0.312 N 
ATOM     19  C   UNL     1     -35.242  25.655   4.925  0.00  0.00    -0.008 C 
ATOM     20  C   UNL     1     -35.531  26.423   3.762  0.00  0.00    +0.011 C 
ATOM     21  C   UNL     1     -34.537  27.397   3.657  0.00  0.00    +0.048 C 
ATOM     22  C   UNL     1     -34.097  26.168   5.491  0.00  0.00    +0.058 C 
ATOM     23  C   UNL     1     -36.548  26.384   2.789  0.00  0.00    +0.001 C 
ATOM     24  C   UNL     1     -34.506  28.338   2.620  0.00  0.00    +0.015 C 
ATOM     25  C   UNL     1     -36.532  27.317   1.746  0.00  0.00    +0.000 C 
ATOM     26  C   UNL     1     -35.525  28.278   1.665  0.00  0.00    +0.001 C 
ATOM     27  H   UNL     1     -32.881  27.767   4.898  0.00  0.00    +0.152 HD
ENDBRANCH  17  19
ENDBRANCH   1  17
TORSDOF 7
ENDMDL
MODEL 5
REMARK VINA RESULT:      -6.4      3.900      6.528
REMARK  Name = 56649444
REMARK  7 active torsions:
REMARK  status: ('A' for Active; 'I' for Inactive)
REMARK    1  A    between atoms: C_1  and  C_4
REMARK    2  A    between atoms: C_1  and  N_13
REMARK    3  A    between atoms: C_1  and  C_17
REMARK    4  A    between atoms: N_3  and  C_6
REMARK    5  A    between atoms: C_6  and  C_10
REMARK    6  A    between atoms: C_10  and  O_11
REMARK    7  A    between atoms: C_17  and  C_19
REMARK                            x       y       z     vdW  Elec       q    Type
REMARK                         _______ _______ _______ _____ _____    ______ ____
ROOT
ATOM      1  C   UNL     1     -34.381  26.329   4.740  0.00  0.00    +0.017 C 
ENDROOT
BRANCH   1   4
ATOM      2  O   UNL     1     -32.852  26.533   6.609  0.00  0.00    -0.277 OA
ATOM      3  N   UNL     1     -32.711  28.081   4.888  0.00  0.00    -0.300 N 
ATOM      4  C   UNL     1     -33.236  26.965   5.524  0.00  0.00    +0.202 C 
ATOM      5  H   UNL     1     -33.083  28.353   4.018  0.00  0.00    +0.150 HD
BRANCH   3   6
ATOM      6  C   UNL     1     -31.636  28.855   5.461  0.00  0.00    +0.146 C 
ATOM      7  C   UNL     1     -31.971  29.192   6.915  0.00  0.00    +0.031 C 
ATOM      8  C   UNL     1     -31.441  30.135   4.645  0.00  0.00    +0.031 C 
BRANCH   6  10
ATOM      9  O   UNL     1     -29.701  27.820   4.410  0.00  0.00    -0.249 OA
ATOM     10  C   UNL     1     -30.338  28.051   5.430  0.00  0.00    +0.330 C 
BRANCH  10  11
ATOM     11  O   UNL     1     -29.950  27.610   6.651  0.00  0.00    -0.479 OA
ATOM     12  H   UNL     1     -29.671  28.221   7.304  0.00  0.00    +0.295 HD
ENDBRANCH  10  11
ENDBRANCH   6  10
ENDBRANCH   3   6
ENDBRANCH   1   4
BRANCH   1  13
ATOM     13  N   UNL     1     -35.135  27.426   4.130  0.00  0.00    +0.388 N 
ATOM     14  H   UNL     1     -35.817  27.782   4.799  0.00  0.00    -0.089 HD
ATOM     15  H   UNL     1     -35.620  27.084   3.300  0.00  0.00    -0.089 HD
ATOM     16  H   UNL     1     -34.494  28.173   3.866  0.00  0.00    -0.089 HD
ENDBRANCH   1  13
BRANCH   1  17
ATOM     17  C   UNL     1     -35.295  25.521   5.671  0.00  0.00    +0.015 C 
BRANCH  17  19
ATOM     18  N   UNL     1     -35.476  21.848   5.457  0.00  0.00    -0.312 N 
ATOM     19  C   UNL     1     -35.368  24.059   5.299  0.00  0.00    -0.008 C 
ATOM     20  C   UNL     1     -35.398  23.520   3.982  0.00  0.00    +0.011 C 
ATOM     21  C   UNL     1     -35.466  22.131   4.110  0.00  0.00    +0.048 C 
ATOM     22  C   UNL     1     -35.418  23.006   6.183  0.00  0.00    +0.058 C 
ATOM     23  C   UNL     1     -35.373  24.082   2.691  0.00  0.00    +0.001 C 
ATOM     24  C   UNL     1     -35.511  21.272   3.005  0.00  0.00    +0.015 C 
ATOM     25  C   UNL     1     -35.417  23.236   1.577  0.00  0.00    +0.000 C 
ATOM     26  C   UNL     1     -35.485  21.852   1.734  0.00  0.00    +0.001 C 
ATOM     27  H   UNL     1     -35.521  20.942   5.842  0.00  0.00    +0.152 HD
ENDBRANCH  17  19
ENDBRANCH   1  17
TORSDOF 7
ENDMDL
MODEL 6
REMARK VINA RESULT:      -6.4      3.552      5.857
REMARK  Name = 56649444
REMARK  7 active torsions:
REMARK  status: ('A' for Active; 'I' for Inactive)
REMARK    1  A    between atoms: C_1  and  C_4
REMARK    2  A    between atoms: C_1  and  N_13
REMARK    3  A    between atoms: C_1  and  C_17
REMARK    4  A    between atoms: N_3  and  C_6
REMARK    5  A    between atoms: C_6  and  C_10
REMARK    6  A    between atoms: C_10  and  O_11
REMARK    7  A    between atoms: C_17  and  C_19
REMARK                            x       y       z     vdW  Elec       q    Type
REMARK                         _______ _______ _______ _____ _____    ______ ____
ROOT
ATOM      1  C   UNL     1     -35.504  25.912   4.456  0.00  0.00    +0.017 C 
ENDROOT
BRANCH   1   4
ATOM      2  O   UNL     1     -33.447  26.561   3.352  0.00  0.00    -0.277 OA
ATOM      3  N   UNL     1     -35.159  28.116   3.507  0.00  0.00    -0.300 N 
ATOM      4  C   UNL     1     -34.582  26.871   3.708  0.00  0.00    +0.202 C 
ATOM      5  H   UNL     1     -36.077  28.274   3.827  0.00  0.00    +0.150 HD
BRANCH   3   6
ATOM      6  C   UNL     1     -34.458  29.188   2.842  0.00  0.00    +0.146 C 
ATOM      7  C   UNL     1     -35.301  30.464   2.908  0.00  0.00    +0.031 C 
ATOM      8  C   UNL     1     -34.191  28.796   1.387  0.00  0.00    +0.031 C 
BRANCH   6  10
ATOM      9  O   UNL     1     -33.014  29.904   4.665  0.00  0.00    -0.249 OA
ATOM     10  C   UNL     1     -33.122  29.448   3.533  0.00  0.00    +0.330 C 
BRANCH  10  11
ATOM     11  O   UNL     1     -32.050  29.124   2.770  0.00  0.00    -0.479 OA
ATOM     12  H   UNL     1     -31.318  29.707   2.719  0.00  0.00    +0.295 HD
ENDBRANCH  10  11
ENDBRANCH   6  10
ENDBRANCH   3   6
ENDBRANCH   1   4
BRANCH   1  13
ATOM     13  N   UNL     1     -36.335  26.729   5.342  0.00  0.00    +0.388 N 
ATOM     14  H   UNL     1     -35.874  27.622   5.511  0.00  0.00    -0.089 HD
ATOM     15  H   UNL     1     -36.468  26.242   6.228  0.00  0.00    -0.089 HD
ATOM     16  H   UNL     1     -37.241  26.891   4.903  0.00  0.00    -0.089 HD
ENDBRANCH   1  13
BRANCH   1  17
ATOM     17  C   UNL     1     -34.690  24.908   5.283  0.00  0.00    +0.015 C 
BRANCH  17  19
ATOM     18  N   UNL     1     -35.587  21.336   5.205  0.00  0.00    -0.312 N 
ATOM     19  C   UNL     1     -35.031  23.471   4.966  0.00  0.00    -0.008 C 
ATOM     20  C   UNL     1     -35.093  22.880   3.673  0.00  0.00    +0.011 C 
ATOM     21  C   UNL     1     -35.443  21.540   3.851  0.00  0.00    +0.048 C 
ATOM     22  C   UNL     1     -35.341  22.497   5.886  0.00  0.00    +0.058 C 
ATOM     23  C   UNL     1     -34.881  23.357   2.364  0.00  0.00    +0.001 C 
ATOM     24  C   UNL     1     -35.595  20.650   2.781  0.00  0.00    +0.015 C 
ATOM     25  C   UNL     1     -35.029  22.479   1.285  0.00  0.00    +0.000 C 
ATOM     26  C   UNL     1     -35.381  21.146   1.492  0.00  0.00    +0.001 C 
ATOM     27  H   UNL     1     -35.834  20.478   5.622  0.00  0.00    +0.152 HD
ENDBRANCH  17  19
ENDBRANCH   1  17
TORSDOF 7
ENDMDL
MODEL 7
REMARK VINA RESULT:      -6.4      5.013      7.293
REMARK  Name = 56649444
REMARK  7 active torsions:
REMARK  status: ('A' for Active; 'I' for Inactive)
REMARK    1  A    between atoms: C_1  and  C_4
REMARK    2  A    between atoms: C_1  and  N_13
REMARK    3  A    between atoms: C_1  and  C_17
REMARK    4  A    between atoms: N_3  and  C_6
REMARK    5  A    between atoms: C_6  and  C_10
REMARK    6  A    between atoms: C_10  and  O_11
REMARK    7  A    between atoms: C_17  and  C_19
REMARK                            x       y       z     vdW  Elec       q    Type
REMARK                         _______ _______ _______ _____ _____    ______ ____
ROOT
ATOM      1  C   UNL     1     -34.325  26.640   4.617  0.00  0.00    +0.017 C 
ENDROOT
BRANCH   1   4
ATOM      2  O   UNL     1     -32.758  26.652   6.466  0.00  0.00    -0.277 OA
ATOM      3  N   UNL     1     -32.603  28.328   4.871  0.00  0.00    -0.300 N 
ATOM      4  C   UNL     1     -33.149  27.180   5.426  0.00  0.00    +0.202 C 
ATOM      5  H   UNL     1     -32.982  28.679   4.033  0.00  0.00    +0.150 HD
BRANCH   3   6
ATOM      6  C   UNL     1     -31.496  29.025   5.482  0.00  0.00    +0.146 C 
ATOM      7  C   UNL     1     -31.857  29.384   6.925  0.00  0.00    +0.031 C 
ATOM      8  C   UNL     1     -31.184  30.288   4.676  0.00  0.00    +0.031 C 
BRANCH   6  10
ATOM      9  O   UNL     1     -29.614  27.841   4.492  0.00  0.00    -0.249 OA
ATOM     10  C   UNL     1     -30.258  28.131   5.494  0.00  0.00    +0.330 C 
BRANCH  10  11
ATOM     11  O   UNL     1     -29.931  27.681   6.729  0.00  0.00    -0.479 OA
ATOM     12  H   UNL     1     -29.635  26.800   6.844  0.00  0.00    +0.295 HD
ENDBRANCH  10  11
ENDBRANCH   6  10
ENDBRANCH   3   6
ENDBRANCH   1   4
BRANCH   1  13
ATOM     13  N   UNL     1     -34.954  27.791   3.968  0.00  0.00    +0.388 N 
ATOM     14  H   UNL     1     -34.828  28.619   4.548  0.00  0.00    -0.089 HD
ATOM     15  H   UNL     1     -35.951  27.610   3.846  0.00  0.00    -0.089 HD
ATOM     16  H   UNL     1     -34.523  27.945   3.057  0.00  0.00    -0.089 HD
ENDBRANCH   1  13
BRANCH   1  17
ATOM     17  C   UNL     1     -35.338  25.938   5.531  0.00  0.00    +0.015 C 
BRANCH  17  19
ATOM     18  N   UNL     1     -36.206  22.480   4.604  0.00  0.00    -0.312 N 
ATOM     19  C   UNL     1     -35.857  24.644   4.949  0.00  0.00    -0.008 C 
ATOM     20  C   UNL     1     -36.762  24.508   3.859  0.00  0.00    +0.011 C 
ATOM     21  C   UNL     1     -36.963  23.141   3.662  0.00  0.00    +0.048 C 
ATOM     22  C   UNL     1     -35.535  23.380   5.386  0.00  0.00    +0.058 C 
ATOM     23  C   UNL     1     -37.428  25.420   3.017  0.00  0.00    +0.001 C 
ATOM     24  C   UNL     1     -37.804  22.636   2.663  0.00  0.00    +0.015 C 
ATOM     25  C   UNL     1     -38.271  24.931   2.013  0.00  0.00    +0.000 C 
ATOM     26  C   UNL     1     -38.455  23.560   1.840  0.00  0.00    +0.001 C 
ATOM     27  H   UNL     1     -36.157  21.501   4.701  0.00  0.00    +0.152 HD
ENDBRANCH  17  19
ENDBRANCH   1  17
TORSDOF 7
ENDMDL
MODEL 8
REMARK VINA RESULT:      -6.4      1.693      2.867
REMARK  Name = 56649444
REMARK  7 active torsions:
REMARK  status: ('A' for Active; 'I' for Inactive)
REMARK    1  A    between atoms: C_1  and  C_4
REMARK    2  A    between atoms: C_1  and  N_13
REMARK    3  A    between atoms: C_1  and  C_17
REMARK    4  A    between atoms: N_3  and  C_6
REMARK    5  A    between atoms: C_6  and  C_10
REMARK    6  A    between atoms: C_10  and  O_11
REMARK    7  A    between atoms: C_17  and  C_19
REMARK                            x       y       z     vdW  Elec       q    Type
REMARK                         _______ _______ _______ _____ _____    ______ ____
ROOT
ATOM      1  C   UNL     1     -34.092  24.026   1.203  0.00  0.00    +0.017 C 
ENDROOT
BRANCH   1   4
ATOM      2  O   UNL     1     -35.108  25.893   2.368  0.00  0.00    -0.277 OA
ATOM      3  N   UNL     1     -34.775  23.913   3.527  0.00  0.00    -0.300 N 
ATOM      4  C   UNL     1     -34.720  24.727   2.405  0.00  0.00    +0.202 C 
ATOM      5  H   UNL     1     -34.440  22.989   3.463  0.00  0.00    +0.150 HD
BRANCH   3   6
ATOM      6  C   UNL     1     -35.308  24.376   4.786  0.00  0.00    +0.146 C 
ATOM      7  C   UNL     1     -34.393  25.462   5.356  0.00  0.00    +0.031 C 
ATOM      8  C   UNL     1     -35.414  23.198   5.757  0.00  0.00    +0.031 C 
BRANCH   6  10
ATOM      9  O   UNL     1     -37.663  24.326   4.173  0.00  0.00    -0.249 OA
ATOM     10  C   UNL     1     -36.701  24.967   4.578  0.00  0.00    +0.330 C 
BRANCH  10  11
ATOM     11  O   UNL     1     -36.777  26.285   4.885  0.00  0.00    -0.479 OA
ATOM     12  H   UNL     1     -36.638  26.570   5.767  0.00  0.00    +0.295 HD
ENDBRANCH  10  11
ENDBRANCH   6  10
ENDBRANCH   3   6
ENDBRANCH   1   4
BRANCH   1  13
ATOM     13  N   UNL     1     -33.704  25.074   0.258  0.00  0.00    +0.388 N 
ATOM     14  H   UNL     1     -34.244  25.918   0.447  0.00  0.00    -0.089 HD
ATOM     15  H   UNL     1     -33.889  24.759  -0.694  0.00  0.00    -0.089 HD
ATOM     16  H   UNL     1     -32.710  25.275   0.363  0.00  0.00    -0.089 HD
ENDBRANCH   1  13
BRANCH   1  17
ATOM     17  C   UNL     1     -35.098  23.073   0.543  0.00  0.00    +0.015 C 
BRANCH  17  19
ATOM     18  N   UNL     1     -35.342  19.660   1.908  0.00  0.00    -0.312 N 
ATOM     19  C   UNL     1     -34.934  21.641   0.993  0.00  0.00    -0.008 C 
ATOM     20  C   UNL     1     -33.799  20.809   0.779  0.00  0.00    +0.011 C 
ATOM     21  C   UNL     1     -34.081  19.573   1.363  0.00  0.00    +0.048 C 
ATOM     22  C   UNL     1     -35.866  20.906   1.689  0.00  0.00    +0.058 C 
ATOM     23  C   UNL     1     -32.555  20.992   0.144  0.00  0.00    +0.001 C 
ATOM     24  C   UNL     1     -33.178  18.503   1.342  0.00  0.00    +0.015 C 
ATOM     25  C   UNL     1     -31.641  19.932   0.115  0.00  0.00    +0.000 C 
ATOM     26  C   UNL     1     -31.950  18.707   0.705  0.00  0.00    +0.001 C 
ATOM     27  H   UNL     1     -35.802  18.931   2.385  0.00  0.00    +0.152 HD
ENDBRANCH  17  19
ENDBRANCH   1  17
TORSDOF 7
ENDMDL
MODEL 9
REMARK VINA RESULT:      -6.3      3.929      7.649
REMARK  Name = 56649444
REMARK  7 active torsions:
REMARK  status: ('A' for Active; 'I' for Inactive)
REMARK    1  A    between atoms: C_1  and  C_4
REMARK    2  A    between atoms: C_1  and  N_13
REMARK    3  A    between atoms: C_1  and  C_17
REMARK    4  A    between atoms: N_3  and  C_6
REMARK    5  A    between atoms: C_6  and  C_10
REMARK    6  A    between atoms: C_10  and  O_11
REMARK    7  A    between atoms: C_17  and  C_19
REMARK                            x       y       z     vdW  Elec       q    Type
REMARK                         _______ _______ _______ _____ _____    ______ ____
ROOT
ATOM      1  C   UNL     1     -35.270  25.539   5.512  0.00  0.00    +0.017 C 
ENDROOT
BRANCH   1   4
ATOM      2  O   UNL     1     -36.100  23.268   5.676  0.00  0.00    -0.277 OA
ATOM      3  N   UNL     1     -35.744  24.167   3.569  0.00  0.00    -0.300 N 
ATOM      4  C   UNL     1     -35.758  24.204   4.956  0.00  0.00    +0.202 C 
ATOM      5  H   UNL     1     -35.454  24.968   3.074  0.00  0.00    +0.150 HD
BRANCH   3   6
ATOM      6  C   UNL     1     -36.141  22.995   2.828  0.00  0.00    +0.146 C 
ATOM      7  C   UNL     1     -35.499  21.756   3.456  0.00  0.00    +0.031 C 
ATOM      8  C   UNL     1     -35.705  23.144   1.369  0.00  0.00    +0.031 C 
BRANCH   6  10
ATOM      9  O   UNL     1     -38.434  23.746   3.144  0.00  0.00    -0.249 OA
ATOM     10  C   UNL     1     -37.659  22.836   2.874  0.00  0.00    +0.330 C 
BRANCH  10  11
ATOM     11  O   UNL     1     -38.078  21.581   2.585  0.00  0.00    -0.479 OA
ATOM     12  H   UNL     1     -37.543  20.845   2.810  0.00  0.00    +0.295 HD
ENDBRANCH  10  11
ENDBRANCH   6  10
ENDBRANCH   3   6
ENDBRANCH   1   4
BRANCH   1  13
ATOM     13  N   UNL     1     -36.349  26.505   5.296  0.00  0.00    +0.388 N 
ATOM     14  H   UNL     1     -36.211  27.310   5.906  0.00  0.00    -0.089 HD
ATOM     15  H   UNL     1     -37.245  26.067   5.509  0.00  0.00    -0.089 HD
ATOM     16  H   UNL     1     -36.342  26.811   4.323  0.00  0.00    -0.089 HD
ENDBRANCH   1  13
BRANCH   1  17
ATOM     17  C   UNL     1     -34.002  26.002   4.782  0.00  0.00    +0.015 C 
BRANCH  17  19
ATOM     18  N   UNL     1     -32.143  27.963   7.286  0.00  0.00    -0.312 N 
ATOM     19  C   UNL     1     -33.184  26.982   5.588  0.00  0.00    -0.008 C 
ATOM     20  C   UNL     1     -32.561  28.167   5.104  0.00  0.00    +0.011 C 
ATOM     21  C   UNL     1     -31.916  28.764   6.189  0.00  0.00    +0.048 C 
ATOM     22  C   UNL     1     -32.908  26.884   6.932  0.00  0.00    +0.058 C 
ATOM     23  C   UNL     1     -32.487  28.792   3.843  0.00  0.00    +0.001 C 
ATOM     24  C   UNL     1     -31.194  29.958   6.076  0.00  0.00    +0.015 C 
ATOM     25  C   UNL     1     -31.770  29.987   3.715  0.00  0.00    +0.000 C 
ATOM     26  C   UNL     1     -31.134  30.559   4.815  0.00  0.00    +0.001 C 
ATOM     27  H   UNL     1     -31.803  28.140   8.193  0.00  0.00    +0.152 HD
ENDBRANCH  17  19
ENDBRANCH   1  17
TORSDOF 7
ENDMDL
