MODEL 1
REMARK VINA RESULT:      -7.1      0.000      0.000
REMARK  Name = 54677972
REMARK  2 active torsions:
REMARK  status: ('A' for Active; 'I' for Inactive)
REMARK    1  A    between atoms: C_7  and  C_18
REMARK    2  A    between atoms: C_8  and  O_24
REMARK                            x       y       z     vdW  Elec       q    Type
REMARK                         _______ _______ _______ _____ _____    ______ ____
ROOT
ATOM      1  S   UNL     1     -37.333  23.445   1.914  0.00  0.00    +0.077 S 
ATOM      2  O   UNL     1     -37.449  24.658   1.128  0.00  0.00    -0.150 OA
ATOM      3  O   UNL     1     -38.493  22.625   2.204  0.00  0.00    -0.150 OA
ATOM      4  N   UNL     1     -36.066  22.465   1.267  0.00  0.00    -0.181 N 
ATOM      5  C   UNL     1     -36.631  23.870   3.468  0.00  0.00    +0.128 C 
ATOM      6  C   UNL     1     -35.812  22.919   4.089  0.00  0.00    +0.054 C 
ATOM      7  C   UNL     1     -35.682  21.379   2.137  0.00  0.00    +0.156 C 
ATOM      8  C   UNL     1     -35.563  21.599   3.462  0.00  0.00    +0.154 C 
ATOM      9  C   UNL     1     -36.884  25.123   4.024  0.00  0.00    +0.020 C 
ATOM     10  C   UNL     1     -34.926  23.181   0.625  0.00  0.00    +0.139 C 
ATOM     11  C   UNL     1     -35.252  23.264   5.326  0.00  0.00    +0.004 C 
ATOM     12  C   UNL     1     -36.312  25.442   5.251  0.00  0.00    +0.001 C 
ATOM     13  C   UNL     1     -35.499  24.515   5.902  0.00  0.00    +0.000 C 
ENDROOT
BRANCH   7  18
ATOM     14  O   UNL     1     -36.256  19.573   0.779  0.00  0.00    -0.268 OA
ATOM     15  O   UNL     1     -31.988  16.979   0.834  0.00  0.00    -0.357 OA
ATOM     16  N   UNL     1     -34.091  19.684   1.700  0.00  0.00    -0.262 N 
ATOM     17  N   UNL     1     -32.206  18.179   1.500  0.00  0.00    -0.062 NA
ATOM     18  C   UNL     1     -35.388  20.113   1.459  0.00  0.00    +0.269 C 
ATOM     19  C   UNL     1     -33.468  18.511   1.210  0.00  0.00    +0.176 C 
ATOM     20  C   UNL     1     -34.090  17.567   0.375  0.00  0.00    +0.073 C 
ATOM     21  C   UNL     1     -33.117  16.624   0.167  0.00  0.00    +0.156 C 
ATOM     22  C   UNL     1     -33.062  15.372  -0.596  0.00  0.00    +0.075 C 
ATOM     23  H   UNL     1     -33.542  20.261   2.278  0.00  0.00    +0.157 HD
ENDBRANCH   7  18
BRANCH   8  24
ATOM     24  O   UNL     1     -35.182  20.625   4.366  0.00  0.00    -0.504 OA
ATOM     25  H   UNL     1     -35.413  20.711   5.270  0.00  0.00    +0.292 HD
ENDBRANCH   8  24
TORSDOF 2
ENDMDL
MODEL 2
REMARK VINA RESULT:      -6.8      2.698      3.278
REMARK  Name = 54677972
REMARK  2 active torsions:
REMARK  status: ('A' for Active; 'I' for Inactive)
REMARK    1  A    between atoms: C_7  and  C_18
REMARK    2  A    between atoms: C_8  and  O_24
REMARK                            x       y       z     vdW  Elec       q    Type
REMARK                         _______ _______ _______ _____ _____    ______ ____
ROOT
ATOM      1  S   UNL     1     -37.740  24.244   2.483  0.00  0.00    +0.077 S 
ATOM      2  O   UNL     1     -37.848  25.500   1.767  0.00  0.00    -0.150 OA
ATOM      3  O   UNL     1     -38.905  23.612   3.070  0.00  0.00    -0.150 OA
ATOM      4  N   UNL     1     -36.879  23.105   1.510  0.00  0.00    -0.181 N 
ATOM      5  C   UNL     1     -36.589  24.463   3.792  0.00  0.00    +0.128 C 
ATOM      6  C   UNL     1     -35.812  23.358   4.161  0.00  0.00    +0.054 C 
ATOM      7  C   UNL     1     -36.474  21.926   2.235  0.00  0.00    +0.156 C 
ATOM      8  C   UNL     1     -35.971  22.050   3.480  0.00  0.00    +0.154 C 
ATOM      9  C   UNL     1     -36.464  25.709   4.405  0.00  0.00    +0.020 C 
ATOM     10  C   UNL     1     -35.845  23.657   0.589  0.00  0.00    +0.139 C 
ATOM     11  C   UNL     1     -34.893  23.538   5.204  0.00  0.00    +0.004 C 
ATOM     12  C   UNL     1     -35.541  25.862   5.434  0.00  0.00    +0.001 C 
ATOM     13  C   UNL     1     -34.757  24.780   5.834  0.00  0.00    +0.000 C 
ENDROOT
BRANCH   7  18
ATOM     14  O   UNL     1     -35.672  19.856   1.522  0.00  0.00    -0.268 OA
ATOM     15  O   UNL     1     -39.504  18.287  -1.269  0.00  0.00    -0.357 OA
ATOM     16  N   UNL     1     -37.806  20.570   0.827  0.00  0.00    -0.262 N 
ATOM     17  N   UNL     1     -39.451  19.497  -0.587  0.00  0.00    -0.062 NA
ATOM     18  C   UNL     1     -36.593  20.667   1.494  0.00  0.00    +0.269 C 
ATOM     19  C   UNL     1     -38.260  19.500   0.018  0.00  0.00    +0.176 C 
ATOM     20  C   UNL     1     -37.525  18.330  -0.243  0.00  0.00    +0.073 C 
ATOM     21  C   UNL     1     -38.352  17.600  -1.056  0.00  0.00    +0.156 C 
ATOM     22  C   UNL     1     -38.239  16.291  -1.708  0.00  0.00    +0.075 C 
ATOM     23  H   UNL     1     -38.420  21.331   0.927  0.00  0.00    +0.157 HD
ENDBRANCH   7  18
BRANCH   8  24
ATOM     24  O   UNL     1     -35.538  20.980   4.241  0.00  0.00    -0.504 OA
ATOM     25  H   UNL     1     -36.151  20.497   4.760  0.00  0.00    +0.292 HD
ENDBRANCH   8  24
TORSDOF 2
ENDMDL
MODEL 3
REMARK VINA RESULT:      -6.8      6.422      8.714
REMARK  Name = 54677972
REMARK  2 active torsions:
REMARK  status: ('A' for Active; 'I' for Inactive)
REMARK    1  A    between atoms: C_7  and  C_18
REMARK    2  A    between atoms: C_8  and  O_24
REMARK                            x       y       z     vdW  Elec       q    Type
REMARK                         _______ _______ _______ _____ _____    ______ ____
ROOT
ATOM      1  S   UNL     1     -34.706  30.752   2.532  0.00  0.00    +0.077 S 
ATOM      2  O   UNL     1     -35.192  31.070   1.203  0.00  0.00    -0.150 OA
ATOM      3  O   UNL     1     -35.560  30.890   3.696  0.00  0.00    -0.150 OA
ATOM      4  N   UNL     1     -33.983  29.184   2.515  0.00  0.00    -0.181 N 
ATOM      5  C   UNL     1     -33.289  31.742   2.844  0.00  0.00    +0.128 C 
ATOM      6  C   UNL     1     -32.284  31.196   3.653  0.00  0.00    +0.054 C 
ATOM      7  C   UNL     1     -33.224  28.891   3.707  0.00  0.00    +0.156 C 
ATOM      8  C   UNL     1     -32.426  29.840   4.236  0.00  0.00    +0.154 C 
ATOM      9  C   UNL     1     -33.189  33.010   2.273  0.00  0.00    +0.020 C 
ATOM     10  C   UNL     1     -33.333  28.759   1.242  0.00  0.00    +0.139 C 
ATOM     11  C   UNL     1     -31.154  31.989   3.896  0.00  0.00    +0.004 C 
ATOM     12  C   UNL     1     -32.055  33.774   2.526  0.00  0.00    +0.001 C 
ATOM     13  C   UNL     1     -31.040  33.266   3.336  0.00  0.00    +0.000 C 
ENDROOT
BRANCH   7  18
ATOM     14  O   UNL     1     -32.343  26.890   4.516  0.00  0.00    -0.268 OA
ATOM     15  O   UNL     1     -36.522  24.238   5.179  0.00  0.00    -0.357 OA
ATOM     16  N   UNL     1     -34.674  27.106   4.258  0.00  0.00    -0.262 N 
ATOM     17  N   UNL     1     -36.467  25.541   4.701  0.00  0.00    -0.062 NA
ATOM     18  C   UNL     1     -33.351  27.518   4.206  0.00  0.00    +0.269 C 
ATOM     19  C   UNL     1     -35.167  25.849   4.686  0.00  0.00    +0.176 C 
ATOM     20  C   UNL     1     -34.362  24.789   5.140  0.00  0.00    +0.073 C 
ATOM     21  C   UNL     1     -35.263  23.800   5.437  0.00  0.00    +0.156 C 
ATOM     22  C   UNL     1     -35.136  22.433   5.954  0.00  0.00    +0.075 C 
ATOM     23  H   UNL     1     -35.347  27.760   3.964  0.00  0.00    +0.157 HD
ENDBRANCH   7  18
BRANCH   8  24
ATOM     24  O   UNL     1     -31.648  29.644   5.363  0.00  0.00    -0.504 OA
ATOM     25  H   UNL     1     -30.718  29.563   5.280  0.00  0.00    +0.292 HD
ENDBRANCH   8  24
TORSDOF 2
ENDMDL
MODEL 4
REMARK VINA RESULT:      -6.7      4.248      7.793
REMARK  Name = 54677972
REMARK  2 active torsions:
REMARK  status: ('A' for Active; 'I' for Inactive)
REMARK    1  A    between atoms: C_7  and  C_18
REMARK    2  A    between atoms: C_8  and  O_24
REMARK                            x       y       z     vdW  Elec       q    Type
REMARK                         _______ _______ _______ _____ _____    ______ ____
ROOT
ATOM      1  S   UNL     1     -35.649  22.524   3.212  0.00  0.00    +0.077 S 
ATOM      2  O   UNL     1     -35.340  21.601   2.137  0.00  0.00    -0.150 OA
ATOM      3  O   UNL     1     -35.573  22.111   4.600  0.00  0.00    -0.150 OA
ATOM      4  N   UNL     1     -34.759  23.986   2.982  0.00  0.00    -0.181 N 
ATOM      5  C   UNL     1     -37.285  23.116   2.966  0.00  0.00    +0.128 C 
ATOM      6  C   UNL     1     -37.567  24.425   3.377  0.00  0.00    +0.054 C 
ATOM      7  C   UNL     1     -35.204  25.065   3.830  0.00  0.00    +0.156 C 
ATOM      8  C   UNL     1     -36.525  25.268   4.011  0.00  0.00    +0.154 C 
ATOM      9  C   UNL     1     -38.236  22.296   2.361  0.00  0.00    +0.020 C 
ATOM     10  C   UNL     1     -34.468  24.379   1.574  0.00  0.00    +0.139 C 
ATOM     11  C   UNL     1     -38.872  24.894   3.175  0.00  0.00    +0.004 C 
ATOM     12  C   UNL     1     -39.523  22.788   2.168  0.00  0.00    +0.001 C 
ATOM     13  C   UNL     1     -39.841  24.083   2.575  0.00  0.00    +0.000 C 
ENDROOT
BRANCH   7  18
ATOM     14  O   UNL     1     -33.322  25.417   5.160  0.00  0.00    -0.268 OA
ATOM     15  O   UNL     1     -32.458  30.257   4.284  0.00  0.00    -0.357 OA
ATOM     16  N   UNL     1     -34.206  27.208   3.913  0.00  0.00    -0.262 N 
ATOM     17  N   UNL     1     -33.492  29.514   3.728  0.00  0.00    -0.062 NA
ATOM     18  C   UNL     1     -34.136  25.905   4.382  0.00  0.00    +0.269 C 
ATOM     19  C   UNL     1     -33.343  28.285   4.232  0.00  0.00    +0.176 C 
ATOM     20  C   UNL     1     -32.244  28.195   5.104  0.00  0.00    +0.073 C 
ATOM     21  C   UNL     1     -31.721  29.461   5.102  0.00  0.00    +0.156 C 
ATOM     22  C   UNL     1     -30.580  30.090   5.776  0.00  0.00    +0.075 C 
ATOM     23  H   UNL     1     -34.939  27.408   3.288  0.00  0.00    +0.157 HD
ENDBRANCH   7  18
BRANCH   8  24
ATOM     24  O   UNL     1     -37.042  26.287   4.789  0.00  0.00    -0.504 OA
ATOM     25  H   UNL     1     -36.954  27.178   4.511  0.00  0.00    +0.292 HD
ENDBRANCH   8  24
TORSDOF 2
ENDMDL
MODEL 5
REMARK VINA RESULT:      -6.5      4.314      8.309
REMARK  Name = 54677972
REMARK  2 active torsions:
REMARK  status: ('A' for Active; 'I' for Inactive)
REMARK    1  A    between atoms: C_7  and  C_18
REMARK    2  A    between atoms: C_8  and  O_24
REMARK                            x       y       z     vdW  Elec       q    Type
REMARK                         _______ _______ _______ _____ _____    ______ ____
ROOT
ATOM      1  S   UNL     1     -35.604  23.565   1.945  0.00  0.00    +0.077 S 
ATOM      2  O   UNL     1     -36.351  22.513   1.283  0.00  0.00    -0.150 OA
ATOM      3  O   UNL     1     -34.267  23.921   1.512  0.00  0.00    -0.150 OA
ATOM      4  N   UNL     1     -36.586  24.981   2.051  0.00  0.00    -0.181 N 
ATOM      5  C   UNL     1     -35.475  23.151   3.647  0.00  0.00    +0.128 C 
ATOM      6  C   UNL     1     -35.451  24.206   4.569  0.00  0.00    +0.054 C 
ATOM      7  C   UNL     1     -36.047  25.986   2.934  0.00  0.00    +0.156 C 
ATOM      8  C   UNL     1     -35.516  25.616   4.117  0.00  0.00    +0.154 C 
ATOM      9  C   UNL     1     -35.422  21.813   4.034  0.00  0.00    +0.020 C 
ATOM     10  C   UNL     1     -38.058  24.770   2.172  0.00  0.00    +0.139 C 
ATOM     11  C   UNL     1     -35.352  23.870   5.926  0.00  0.00    +0.004 C 
ATOM     12  C   UNL     1     -35.328  21.507   5.387  0.00  0.00    +0.001 C 
ATOM     13  C   UNL     1     -35.292  22.533   6.332  0.00  0.00    +0.000 C 
ENDROOT
BRANCH   7  18
ATOM     14  O   UNL     1     -37.093  27.652   1.683  0.00  0.00    -0.268 OA
ATOM     15  O   UNL     1     -34.299  31.612   2.889  0.00  0.00    -0.357 OA
ATOM     16  N   UNL     1     -35.232  28.206   3.016  0.00  0.00    -0.262 N 
ATOM     17  N   UNL     1     -34.110  30.321   3.368  0.00  0.00    -0.062 NA
ATOM     18  C   UNL     1     -36.193  27.369   2.468  0.00  0.00    +0.269 C 
ATOM     19  C   UNL     1     -35.071  29.595   2.791  0.00  0.00    +0.176 C 
ATOM     20  C   UNL     1     -35.889  30.366   1.946  0.00  0.00    +0.073 C 
ATOM     21  C   UNL     1     -35.362  31.626   2.044  0.00  0.00    +0.156 C 
ATOM     22  C   UNL     1     -35.706  32.920   1.443  0.00  0.00    +0.075 C 
ATOM     23  H   UNL     1     -34.589  27.787   3.631  0.00  0.00    +0.157 HD
ENDBRANCH   7  18
BRANCH   8  24
ATOM     24  O   UNL     1     -34.995  26.510   5.034  0.00  0.00    -0.504 OA
ATOM     25  H   UNL     1     -34.498  26.195   5.763  0.00  0.00    +0.292 HD
ENDBRANCH   8  24
TORSDOF 2
ENDMDL
MODEL 6
REMARK VINA RESULT:      -6.5      2.411      2.581
REMARK  Name = 54677972
REMARK  2 active torsions:
REMARK  status: ('A' for Active; 'I' for Inactive)
REMARK    1  A    between atoms: C_7  and  C_18
REMARK    2  A    between atoms: C_8  and  O_24
REMARK                            x       y       z     vdW  Elec       q    Type
REMARK                         _______ _______ _______ _____ _____    ______ ____
ROOT
ATOM      1  S   UNL     1     -38.084  24.806   2.940  0.00  0.00    +0.077 S 
ATOM      2  O   UNL     1     -38.164  26.135   2.365  0.00  0.00    -0.150 OA
ATOM      3  O   UNL     1     -39.194  24.242   3.683  0.00  0.00    -0.150 OA
ATOM      4  N   UNL     1     -37.558  23.692   1.730  0.00  0.00    -0.181 N 
ATOM      5  C   UNL     1     -36.699  24.764   4.020  0.00  0.00    +0.128 C 
ATOM      6  C   UNL     1     -36.009  23.551   4.141  0.00  0.00    +0.054 C 
ATOM      7  C   UNL     1     -37.177  22.406   2.263  0.00  0.00    +0.156 C 
ATOM      8  C   UNL     1     -36.447  22.346   3.395  0.00  0.00    +0.154 C 
ATOM      9  C   UNL     1     -36.314  25.919   4.700  0.00  0.00    +0.020 C 
ATOM     10  C   UNL     1     -36.646  24.225   0.677  0.00  0.00    +0.139 C 
ATOM     11  C   UNL     1     -34.904  23.524   5.001  0.00  0.00    +0.004 C 
ATOM     12  C   UNL     1     -35.210  25.866   5.544  0.00  0.00    +0.001 C 
ATOM     13  C   UNL     1     -34.506  24.672   5.695  0.00  0.00    +0.000 C 
ENDROOT
BRANCH   7  18
ATOM     14  O   UNL     1     -38.763  21.105   1.155  0.00  0.00    -0.268 OA
ATOM     15  O   UNL     1     -35.869  17.465  -0.666  0.00  0.00    -0.357 OA
ATOM     16  N   UNL     1     -36.502  20.444   1.126  0.00  0.00    -0.262 N 
ATOM     17  N   UNL     1     -35.423  18.538   0.096  0.00  0.00    -0.062 NA
ATOM     18  C   UNL     1     -37.581  21.252   1.455  0.00  0.00    +0.269 C 
ATOM     19  C   UNL     1     -36.521  19.252   0.362  0.00  0.00    +0.176 C 
ATOM     20  C   UNL     1     -37.677  18.684  -0.201  0.00  0.00    +0.073 C 
ATOM     21  C   UNL     1     -37.213  17.563  -0.837  0.00  0.00    +0.156 C 
ATOM     22  C   UNL     1     -37.853  16.503  -1.625  0.00  0.00    +0.075 C 
ATOM     23  H   UNL     1     -35.624  20.732   1.463  0.00  0.00    +0.157 HD
ENDBRANCH   7  18
BRANCH   8  24
ATOM     24  O   UNL     1     -36.020  21.162   3.967  0.00  0.00    -0.504 OA
ATOM     25  H   UNL     1     -35.121  21.056   4.206  0.00  0.00    +0.292 HD
ENDBRANCH   8  24
TORSDOF 2
ENDMDL
MODEL 7
REMARK VINA RESULT:      -6.2      6.662      9.102
REMARK  Name = 54677972
REMARK  2 active torsions:
REMARK  status: ('A' for Active; 'I' for Inactive)
REMARK    1  A    between atoms: C_7  and  C_18
REMARK    2  A    between atoms: C_8  and  O_24
REMARK                            x       y       z     vdW  Elec       q    Type
REMARK                         _______ _______ _______ _____ _____    ______ ____
ROOT
ATOM      1  S   UNL     1     -31.017  30.597   3.121  0.00  0.00    +0.077 S 
ATOM      2  O   UNL     1     -30.074  31.421   3.850  0.00  0.00    -0.150 OA
ATOM      3  O   UNL     1     -30.611  29.857   1.941  0.00  0.00    -0.150 OA
ATOM      4  N   UNL     1     -31.830  29.546   4.225  0.00  0.00    -0.181 N 
ATOM      5  C   UNL     1     -32.358  31.616   2.622  0.00  0.00    +0.128 C 
ATOM      6  C   UNL     1     -33.627  31.026   2.548  0.00  0.00    +0.054 C 
ATOM      7  C   UNL     1     -32.978  28.889   3.649  0.00  0.00    +0.156 C 
ATOM      8  C   UNL     1     -33.821  29.591   2.863  0.00  0.00    +0.154 C 
ATOM      9  C   UNL     1     -32.138  32.963   2.339  0.00  0.00    +0.020 C 
ATOM     10  C   UNL     1     -32.033  30.057   5.610  0.00  0.00    +0.139 C 
ATOM     11  C   UNL     1     -34.693  31.845   2.154  0.00  0.00    +0.004 C 
ATOM     12  C   UNL     1     -33.215  33.755   1.954  0.00  0.00    +0.001 C 
ATOM     13  C   UNL     1     -34.489  33.198   1.861  0.00  0.00    +0.000 C 
ENDROOT
BRANCH   7  18
ATOM     14  O   UNL     1     -32.202  26.719   3.997  0.00  0.00    -0.268 OA
ATOM     15  O   UNL     1     -36.375  24.485   5.590  0.00  0.00    -0.357 OA
ATOM     16  N   UNL     1     -34.461  27.221   4.433  0.00  0.00    -0.262 N 
ATOM     17  N   UNL     1     -36.269  25.823   5.231  0.00  0.00    -0.062 NA
ATOM     18  C   UNL     1     -33.158  27.488   4.042  0.00  0.00    +0.269 C 
ATOM     19  C   UNL     1     -34.991  25.984   4.873  0.00  0.00    +0.176 C 
ATOM     20  C   UNL     1     -34.251  24.794   4.984  0.00  0.00    +0.073 C 
ATOM     21  C   UNL     1     -35.167  23.882   5.439  0.00  0.00    +0.156 C 
ATOM     22  C   UNL     1     -35.099  22.456   5.777  0.00  0.00    +0.075 C 
ATOM     23  H   UNL     1     -35.090  27.978   4.401  0.00  0.00    +0.157 HD
ENDBRANCH   7  18
BRANCH   8  24
ATOM     24  O   UNL     1     -34.955  29.051   2.286  0.00  0.00    -0.504 OA
ATOM     25  H   UNL     1     -35.790  29.448   2.437  0.00  0.00    +0.292 HD
ENDBRANCH   8  24
TORSDOF 2
ENDMDL
MODEL 8
REMARK VINA RESULT:      -6.1      3.779      8.263
REMARK  Name = 54677972
REMARK  2 active torsions:
REMARK  status: ('A' for Active; 'I' for Inactive)
REMARK    1  A    between atoms: C_7  and  C_18
REMARK    2  A    between atoms: C_8  and  O_24
REMARK                            x       y       z     vdW  Elec       q    Type
REMARK                         _______ _______ _______ _____ _____    ______ ____
ROOT
ATOM      1  S   UNL     1     -36.281  23.382   4.032  0.00  0.00    +0.077 S 
ATOM      2  O   UNL     1     -36.111  22.739   5.321  0.00  0.00    -0.150 OA
ATOM      3  O   UNL     1     -37.599  23.714   3.528  0.00  0.00    -0.150 OA
ATOM      4  N   UNL     1     -35.251  24.765   3.945  0.00  0.00    -0.181 N 
ATOM      5  C   UNL     1     -35.532  22.362   2.813  0.00  0.00    +0.128 C 
ATOM      6  C   UNL     1     -34.955  22.997   1.706  0.00  0.00    +0.054 C 
ATOM      7  C   UNL     1     -35.134  25.308   2.614  0.00  0.00    +0.156 C 
ATOM      8  C   UNL     1     -34.993  24.472   1.565  0.00  0.00    +0.154 C 
ATOM      9  C   UNL     1     -35.511  20.979   2.983  0.00  0.00    +0.020 C 
ATOM     10  C   UNL     1     -33.969  24.696   4.705  0.00  0.00    +0.139 C 
ATOM     11  C   UNL     1     -34.356  22.179   0.738  0.00  0.00    +0.004 C 
ATOM     12  C   UNL     1     -34.906  20.191   2.010  0.00  0.00    +0.001 C 
ATOM     13  C   UNL     1     -34.330  20.788   0.890  0.00  0.00    +0.000 C 
ENDROOT
BRANCH   7  18
ATOM     14  O   UNL     1     -34.239  27.398   3.128  0.00  0.00    -0.268 OA
ATOM     15  O   UNL     1     -37.395  30.388   0.670  0.00  0.00    -0.357 OA
ATOM     16  N   UNL     1     -36.151  27.265   1.759  0.00  0.00    -0.262 N 
ATOM     17  N   UNL     1     -37.467  29.001   0.704  0.00  0.00    -0.062 NA
ATOM     18  C   UNL     1     -35.114  26.772   2.537  0.00  0.00    +0.269 C 
ATOM     19  C   UNL     1     -36.439  28.621   1.468  0.00  0.00    +0.176 C 
ATOM     20  C   UNL     1     -35.691  29.714   1.940  0.00  0.00    +0.073 C 
ATOM     21  C   UNL     1     -36.334  30.802   1.409  0.00  0.00    +0.156 C 
ATOM     22  C   UNL     1     -36.108  32.250   1.482  0.00  0.00    +0.075 C 
ATOM     23  H   UNL     1     -36.756  26.597   1.365  0.00  0.00    +0.157 HD
ENDBRANCH   7  18
BRANCH   8  24
ATOM     24  O   UNL     1     -34.854  24.902   0.258  0.00  0.00    -0.504 OA
ATOM     25  H   UNL     1     -34.229  24.490  -0.305  0.00  0.00    +0.292 HD
ENDBRANCH   8  24
TORSDOF 2
ENDMDL
MODEL 9
REMARK VINA RESULT:      -6.1      1.600      1.940
REMARK  Name = 54677972
REMARK  2 active torsions:
REMARK  status: ('A' for Active; 'I' for Inactive)
REMARK    1  A    between atoms: C_7  and  C_18
REMARK    2  A    between atoms: C_8  and  O_24
REMARK                            x       y       z     vdW  Elec       q    Type
REMARK                         _______ _______ _______ _____ _____    ______ ____
ROOT
ATOM      1  S   UNL     1     -36.941  23.371   1.487  0.00  0.00    +0.077 S 
ATOM      2  O   UNL     1     -36.904  24.548   0.640  0.00  0.00    -0.150 OA
ATOM      3  O   UNL     1     -38.151  22.584   1.625  0.00  0.00    -0.150 OA
ATOM      4  N   UNL     1     -35.611  22.343   1.092  0.00  0.00    -0.181 N 
ATOM      5  C   UNL     1     -36.483  23.856   3.112  0.00  0.00    +0.128 C 
ATOM      6  C   UNL     1     -35.794  22.922   3.895  0.00  0.00    +0.054 C 
ATOM      7  C   UNL     1     -35.394  21.292   2.056  0.00  0.00    +0.156 C 
ATOM      8  C   UNL     1     -35.480  21.571   3.373  0.00  0.00    +0.154 C 
ATOM      9  C   UNL     1     -36.791  25.138   3.566  0.00  0.00    +0.020 C 
ATOM     10  C   UNL     1     -34.368  23.009   0.607  0.00  0.00    +0.139 C 
ATOM     11  C   UNL     1     -35.428  23.315   5.190  0.00  0.00    +0.004 C 
ATOM     12  C   UNL     1     -36.412  25.504   4.853  0.00  0.00    +0.001 C 
ATOM     13  C   UNL     1     -35.734  24.596   5.664  0.00  0.00    +0.000 C 
ENDROOT
BRANCH   7  18
ATOM     14  O   UNL     1     -33.998  19.435   1.865  0.00  0.00    -0.268 OA
ATOM     15  O   UNL     1     -36.455  16.776  -1.575  0.00  0.00    -0.357 OA
ATOM     16  N   UNL     1     -35.950  19.552   0.553  0.00  0.00    -0.262 N 
ATOM     17  N   UNL     1     -36.858  18.009  -1.076  0.00  0.00    -0.062 NA
ATOM     18  C   UNL     1     -35.026  19.991   1.489  0.00  0.00    +0.269 C 
ATOM     19  C   UNL     1     -35.916  18.347  -0.190  0.00  0.00    +0.176 C 
ATOM     20  C   UNL     1     -34.904  17.377  -0.090  0.00  0.00    +0.073 C 
ATOM     21  C   UNL     1     -35.290  16.410  -0.981  0.00  0.00    +0.156 C 
ATOM     22  C   UNL     1     -34.718  15.124  -1.395  0.00  0.00    +0.075 C 
ATOM     23  H   UNL     1     -36.717  20.146   0.386  0.00  0.00    +0.157 HD
ENDBRANCH   7  18
BRANCH   8  24
ATOM     24  O   UNL     1     -35.269  20.634   4.368  0.00  0.00    -0.504 OA
ATOM     25  H   UNL     1     -34.396  20.434   4.645  0.00  0.00    +0.292 HD
ENDBRANCH   8  24
TORSDOF 2
ENDMDL
