MODEL 1
REMARK VINA RESULT:      -6.7      0.000      0.000
REMARK  Name = 2161
REMARK  3 active torsions:
REMARK  status: ('A' for Active; 'I' for Inactive)
REMARK    1  A    between atoms: C_4  and  C_19
REMARK    2  A    between atoms: C_14  and  C_23
REMARK    3  A    between atoms: C_23  and  O_24
REMARK                            x       y       z     vdW  Elec       q    Type
REMARK                         _______ _______ _______ _____ _____    ______ ____
ROOT
ATOM      1  O   UNL     1     -35.440  26.813   2.655  0.00  0.00    -0.430 OA
ATOM      2  O   UNL     1     -32.876  26.466   5.820  0.00  0.00    -0.290 OA
ATOM      3  N   UNL     1     -36.316  24.730   3.039  0.00  0.00    -0.355 NA
ATOM      4  C   UNL     1     -32.872  29.988   3.481  0.00  0.00    -0.022 C 
ATOM      5  C   UNL     1     -33.672  27.780   4.035  0.00  0.00    +0.070 C 
ATOM      6  C   UNL     1     -32.819  28.855   4.295  0.00  0.00    +0.002 C 
ATOM      7  C   UNL     1     -34.572  27.830   2.971  0.00  0.00    +0.151 C 
ATOM      8  C   UNL     1     -33.771  30.042   2.416  0.00  0.00    -0.001 C 
ATOM      9  C   UNL     1     -34.579  25.503   4.513  0.00  0.00    +0.173 C 
ATOM     10  C   UNL     1     -33.641  26.574   4.873  0.00  0.00    +0.190 C 
ATOM     11  C   UNL     1     -34.619  28.965   2.160  0.00  0.00    +0.037 C 
ATOM     12  C   UNL     1     -35.427  25.673   3.427  0.00  0.00    +0.269 C 
ATOM     13  C   UNL     1     -34.637  24.314   5.237  0.00  0.00    +0.002 C 
ATOM     14  C   UNL     1     -35.542  23.332   4.855  0.00  0.00    +0.116 C 
ATOM     15  C   UNL     1     -36.351  23.585   3.760  0.00  0.00    +0.186 C 
ATOM     16  N   UNL     1     -37.277  22.588   3.366  0.00  0.00    -0.333 N 
ATOM     17  H   UNL     1     -37.865  22.740   2.590  0.00  0.00    +0.145 HD
ATOM     18  H   UNL     1     -37.331  21.741   3.866  0.00  0.00    +0.145 HD
ENDROOT
BRANCH   4  19
ATOM     19  C   UNL     1     -31.967  31.142   3.750  0.00  0.00    +0.022 C 
ATOM     20  C   UNL     1     -30.878  31.300   2.673  0.00  0.00    +0.005 C 
ATOM     21  C   UNL     1     -31.315  31.066   5.144  0.00  0.00    +0.005 C 
ENDBRANCH   4  19
BRANCH  14  23
ATOM     22  O   UNL     1     -35.941  21.988   6.794  0.00  0.00    -0.245 OA
ATOM     23  C   UNL     1     -35.606  22.088   5.610  0.00  0.00    +0.342 C 
BRANCH  23  24
ATOM     24  O   UNL     1     -35.250  21.009   4.862  0.00  0.00    -0.477 OA
ATOM     25  H   UNL     1     -35.731  20.209   4.937  0.00  0.00    +0.295 HD
ENDBRANCH  23  24
ENDBRANCH  14  23
TORSDOF 3
ENDMDL
MODEL 2
REMARK VINA RESULT:      -6.5      2.948      7.310
REMARK  Name = 2161
REMARK  3 active torsions:
REMARK  status: ('A' for Active; 'I' for Inactive)
REMARK    1  A    between atoms: C_4  and  C_19
REMARK    2  A    between atoms: C_14  and  C_23
REMARK    3  A    between atoms: C_23  and  O_24
REMARK                            x       y       z     vdW  Elec       q    Type
REMARK                         _______ _______ _______ _____ _____    ______ ____
ROOT
ATOM      1  O   UNL     1     -34.006  25.505   6.069  0.00  0.00    -0.430 OA
ATOM      2  O   UNL     1     -33.534  26.449   2.119  0.00  0.00    -0.290 OA
ATOM      3  N   UNL     1     -32.830  27.358   6.731  0.00  0.00    -0.355 NA
ATOM      4  C   UNL     1     -35.673  22.970   3.214  0.00  0.00    -0.022 C 
ATOM      5  C   UNL     1     -34.414  24.964   3.722  0.00  0.00    +0.070 C 
ATOM      6  C   UNL     1     -34.980  24.101   2.781  0.00  0.00    +0.002 C 
ATOM      7  C   UNL     1     -34.535  24.703   5.087  0.00  0.00    +0.151 C 
ATOM      8  C   UNL     1     -35.797  22.705   4.577  0.00  0.00    -0.001 C 
ATOM      9  C   UNL     1     -33.123  27.001   4.369  0.00  0.00    +0.173 C 
ATOM     10  C   UNL     1     -33.678  26.163   3.299  0.00  0.00    +0.190 C 
ATOM     11  C   UNL     1     -35.229  23.569   5.514  0.00  0.00    +0.037 C 
ATOM     12  C   UNL     1     -33.312  26.633   5.695  0.00  0.00    +0.269 C 
ATOM     13  C   UNL     1     -32.407  28.162   4.085  0.00  0.00    +0.002 C 
ATOM     14  C   UNL     1     -31.903  28.921   5.134  0.00  0.00    +0.116 C 
ATOM     15  C   UNL     1     -32.139  28.480   6.425  0.00  0.00    +0.186 C 
ATOM     16  N   UNL     1     -31.627  29.250   7.500  0.00  0.00    -0.333 N 
ATOM     17  H   UNL     1     -31.780  28.961   8.430  0.00  0.00    +0.145 HD
ATOM     18  H   UNL     1     -31.119  30.073   7.318  0.00  0.00    +0.145 HD
ENDROOT
BRANCH   4  19
ATOM     19  C   UNL     1     -36.282  22.043   2.217  0.00  0.00    +0.022 C 
ATOM     20  C   UNL     1     -37.822  22.071   2.250  0.00  0.00    +0.005 C 
ATOM     21  C   UNL     1     -35.784  20.594   2.378  0.00  0.00    +0.005 C 
ENDBRANCH   4  19
BRANCH  14  23
ATOM     22  O   UNL     1     -31.437  31.265   5.250  0.00  0.00    -0.245 OA
ATOM     23  C   UNL     1     -31.154  30.135   4.841  0.00  0.00    +0.342 C 
BRANCH  23  24
ATOM     24  O   UNL     1     -30.074  29.899   4.048  0.00  0.00    -0.477 OA
ATOM     25  H   UNL     1     -29.607  29.090   4.122  0.00  0.00    +0.295 HD
ENDBRANCH  23  24
ENDBRANCH  14  23
TORSDOF 3
ENDMDL
MODEL 3
REMARK VINA RESULT:      -6.4      1.728      2.729
REMARK  Name = 2161
REMARK  3 active torsions:
REMARK  status: ('A' for Active; 'I' for Inactive)
REMARK    1  A    between atoms: C_4  and  C_19
REMARK    2  A    between atoms: C_14  and  C_23
REMARK    3  A    between atoms: C_23  and  O_24
REMARK                            x       y       z     vdW  Elec       q    Type
REMARK                         _______ _______ _______ _____ _____    ______ ____
ROOT
ATOM      1  O   UNL     1     -33.637  25.820   6.032  0.00  0.00    -0.430 OA
ATOM      2  O   UNL     1     -34.056  26.439   2.013  0.00  0.00    -0.290 OA
ATOM      3  N   UNL     1     -34.785  23.839   5.924  0.00  0.00    -0.355 NA
ATOM      4  C   UNL     1     -31.991  29.271   4.379  0.00  0.00    -0.022 C 
ATOM      5  C   UNL     1     -33.218  27.217   4.073  0.00  0.00    +0.070 C 
ATOM      6  C   UNL     1     -32.659  28.380   3.538  0.00  0.00    +0.002 C 
ATOM      7  C   UNL     1     -33.114  26.941   5.436  0.00  0.00    +0.151 C 
ATOM      8  C   UNL     1     -31.884  29.000   5.742  0.00  0.00    -0.001 C 
ATOM      9  C   UNL     1     -34.478  25.069   3.879  0.00  0.00    +0.173 C 
ATOM     10  C   UNL     1     -33.928  26.258   3.216  0.00  0.00    +0.190 C 
ATOM     11  C   UNL     1     -32.445  27.838   6.272  0.00  0.00    +0.037 C 
ATOM     12  C   UNL     1     -34.307  24.909   5.247  0.00  0.00    +0.269 C 
ATOM     13  C   UNL     1     -35.170  24.093   3.165  0.00  0.00    +0.002 C 
ATOM     14  C   UNL     1     -35.670  22.987   3.840  0.00  0.00    +0.116 C 
ATOM     15  C   UNL     1     -35.454  22.908   5.205  0.00  0.00    +0.186 C 
ATOM     16  N   UNL     1     -35.961  21.781   5.899  0.00  0.00    -0.333 N 
ATOM     17  H   UNL     1     -35.822  21.697   6.872  0.00  0.00    +0.145 HD
ATOM     18  H   UNL     1     -36.453  21.082   5.411  0.00  0.00    +0.145 HD
ENDROOT
BRANCH   4  19
ATOM     19  C   UNL     1     -31.389  30.515   3.817  0.00  0.00    +0.022 C 
ATOM     20  C   UNL     1     -30.750  31.402   4.902  0.00  0.00    +0.005 C 
ATOM     21  C   UNL     1     -32.400  31.340   2.998  0.00  0.00    +0.005 C 
ENDBRANCH   4  19
BRANCH  14  23
ATOM     22  O   UNL     1     -37.373  22.169   2.372  0.00  0.00    -0.245 OA
ATOM     23  C   UNL     1     -36.395  21.965   3.096  0.00  0.00    +0.342 C 
BRANCH  23  24
ATOM     24  O   UNL     1     -35.873  20.722   3.281  0.00  0.00    -0.477 OA
ATOM     25  H   UNL     1     -35.659  20.428   4.144  0.00  0.00    +0.295 HD
ENDBRANCH  23  24
ENDBRANCH  14  23
TORSDOF 3
ENDMDL
MODEL 4
REMARK VINA RESULT:      -6.2      1.831      2.472
REMARK  Name = 2161
REMARK  3 active torsions:
REMARK  status: ('A' for Active; 'I' for Inactive)
REMARK    1  A    between atoms: C_4  and  C_19
REMARK    2  A    between atoms: C_14  and  C_23
REMARK    3  A    between atoms: C_23  and  O_24
REMARK                            x       y       z     vdW  Elec       q    Type
REMARK                         _______ _______ _______ _____ _____    ______ ____
ROOT
ATOM      1  O   UNL     1     -36.131  25.337   1.414  0.00  0.00    -0.430 OA
ATOM      2  O   UNL     1     -34.857  26.895   4.972  0.00  0.00    -0.290 OA
ATOM      3  N   UNL     1     -36.248  23.223   2.295  0.00  0.00    -0.355 NA
ATOM      4  C   UNL     1     -35.366  29.426   1.624  0.00  0.00    -0.022 C 
ATOM      5  C   UNL     1     -35.428  27.278   2.719  0.00  0.00    +0.070 C 
ATOM      6  C   UNL     1     -35.176  28.651   2.769  0.00  0.00    +0.002 C 
ATOM      7  C   UNL     1     -35.865  26.679   1.538  0.00  0.00    +0.151 C 
ATOM      8  C   UNL     1     -35.803  28.832   0.441  0.00  0.00    -0.001 C 
ATOM      9  C   UNL     1     -35.530  25.004   3.746  0.00  0.00    +0.173 C 
ATOM     10  C   UNL     1     -35.238  26.434   3.906  0.00  0.00    +0.190 C 
ATOM     11  C   UNL     1     -36.051  27.460   0.396  0.00  0.00    +0.037 C 
ATOM     12  C   UNL     1     -35.960  24.527   2.514  0.00  0.00    +0.269 C 
ATOM     13  C   UNL     1     -35.386  24.110   4.804  0.00  0.00    +0.002 C 
ATOM     14  C   UNL     1     -35.675  22.766   4.600  0.00  0.00    +0.116 C 
ATOM     15  C   UNL     1     -36.098  22.378   3.340  0.00  0.00    +0.186 C 
ATOM     16  N   UNL     1     -36.396  21.009   3.126  0.00  0.00    -0.333 N 
ATOM     17  H   UNL     1     -36.699  20.703   2.239  0.00  0.00    +0.145 HD
ATOM     18  H   UNL     1     -36.299  20.362   3.862  0.00  0.00    +0.145 HD
ENDROOT
BRANCH   4  19
ATOM     19  C   UNL     1     -35.102  30.894   1.666  0.00  0.00    +0.022 C 
ATOM     20  C   UNL     1     -34.172  31.291   2.828  0.00  0.00    +0.005 C 
ATOM     21  C   UNL     1     -36.397  31.724   1.727  0.00  0.00    +0.005 C 
ENDBRANCH   4  19
BRANCH  14  23
ATOM     22  O   UNL     1     -36.034  21.954   6.822  0.00  0.00    -0.245 OA
ATOM     23  C   UNL     1     -35.525  21.828   5.705  0.00  0.00    +0.342 C 
BRANCH  23  24
ATOM     24  O   UNL     1     -34.745  20.763   5.377  0.00  0.00    -0.477 OA
ATOM     25  H   UNL     1     -33.978  20.888   4.853  0.00  0.00    +0.295 HD
ENDBRANCH  23  24
ENDBRANCH  14  23
TORSDOF 3
ENDMDL
MODEL 5
REMARK VINA RESULT:      -6.1      4.886      8.013
REMARK  Name = 2161
REMARK  3 active torsions:
REMARK  status: ('A' for Active; 'I' for Inactive)
REMARK    1  A    between atoms: C_4  and  C_19
REMARK    2  A    between atoms: C_14  and  C_23
REMARK    3  A    between atoms: C_23  and  O_24
REMARK                            x       y       z     vdW  Elec       q    Type
REMARK                         _______ _______ _______ _____ _____    ______ ____
ROOT
ATOM      1  O   UNL     1     -34.111  22.880   0.398  0.00  0.00    -0.430 OA
ATOM      2  O   UNL     1     -35.905  20.368   3.077  0.00  0.00    -0.290 OA
ATOM      3  N   UNL     1     -35.548  24.589   0.922  0.00  0.00    -0.355 NA
ATOM      4  C   UNL     1     -32.629  19.006   0.778  0.00  0.00    -0.022 C 
ATOM      5  C   UNL     1     -34.225  20.683   1.457  0.00  0.00    +0.070 C 
ATOM      6  C   UNL     1     -33.713  19.387   1.569  0.00  0.00    +0.002 C 
ATOM      7  C   UNL     1     -33.662  21.593   0.562  0.00  0.00    +0.151 C 
ATOM      8  C   UNL     1     -32.063  19.913  -0.118  0.00  0.00    -0.001 C 
ATOM      9  C   UNL     1     -35.825  22.497   2.078  0.00  0.00    +0.173 C 
ATOM     10  C   UNL     1     -35.365  21.116   2.275  0.00  0.00    +0.190 C 
ATOM     11  C   UNL     1     -32.578  21.204  -0.227  0.00  0.00    +0.037 C 
ATOM     12  C   UNL     1     -35.179  23.307   1.154  0.00  0.00    +0.269 C 
ATOM     13  C   UNL     1     -36.898  23.015   2.800  0.00  0.00    +0.002 C 
ATOM     14  C   UNL     1     -37.293  24.328   2.576  0.00  0.00    +0.116 C 
ATOM     15  C   UNL     1     -36.593  25.065   1.636  0.00  0.00    +0.186 C 
ATOM     16  N   UNL     1     -36.991  26.406   1.404  0.00  0.00    -0.333 N 
ATOM     17  H   UNL     1     -36.511  26.955   0.741  0.00  0.00    +0.145 HD
ATOM     18  H   UNL     1     -37.747  26.789   1.905  0.00  0.00    +0.145 HD
ENDROOT
BRANCH   4  19
ATOM     19  C   UNL     1     -32.074  17.626   0.891  0.00  0.00    +0.022 C 
ATOM     20  C   UNL     1     -30.566  17.571   0.584  0.00  0.00    +0.005 C 
ATOM     21  C   UNL     1     -32.824  16.615   0.003  0.00  0.00    +0.005 C 
ENDBRANCH   4  19
BRANCH  14  23
ATOM     22  O   UNL     1     -39.533  24.358   3.416  0.00  0.00    -0.245 OA
ATOM     23  C   UNL     1     -38.415  24.874   3.329  0.00  0.00    +0.342 C 
BRANCH  23  24
ATOM     24  O   UNL     1     -38.103  26.044   3.949  0.00  0.00    -0.477 OA
ATOM     25  H   UNL     1     -38.567  26.827   3.730  0.00  0.00    +0.295 HD
ENDBRANCH  23  24
ENDBRANCH  14  23
TORSDOF 3
ENDMDL
MODEL 6
REMARK VINA RESULT:      -6.0      4.835      7.800
REMARK  Name = 2161
REMARK  3 active torsions:
REMARK  status: ('A' for Active; 'I' for Inactive)
REMARK    1  A    between atoms: C_4  and  C_19
REMARK    2  A    between atoms: C_14  and  C_23
REMARK    3  A    between atoms: C_23  and  O_24
REMARK                            x       y       z     vdW  Elec       q    Type
REMARK                         _______ _______ _______ _____ _____    ______ ____
ROOT
ATOM      1  O   UNL     1     -35.953  21.479   2.563  0.00  0.00    -0.430 OA
ATOM      2  O   UNL     1     -34.233  23.885  -0.259  0.00  0.00    -0.290 OA
ATOM      3  N   UNL     1     -37.446  23.115   3.157  0.00  0.00    -0.355 NA
ATOM      4  C   UNL     1     -32.785  19.956   0.329  0.00  0.00    -0.022 C 
ATOM      5  C   UNL     1     -34.272  21.791   0.820  0.00  0.00    +0.070 C 
ATOM      6  C   UNL     1     -33.210  21.262   0.082  0.00  0.00    +0.002 C 
ATOM      7  C   UNL     1     -34.906  21.027   1.799  0.00  0.00    +0.151 C 
ATOM      8  C   UNL     1     -33.415  19.188   1.307  0.00  0.00    -0.001 C 
ATOM      9  C   UNL     1     -35.865  23.620   1.415  0.00  0.00    +0.173 C 
ATOM     10  C   UNL     1     -34.744  23.162   0.584  0.00  0.00    +0.190 C 
ATOM     11  C   UNL     1     -34.474  19.722   2.043  0.00  0.00    +0.037 C 
ATOM     12  C   UNL     1     -36.412  22.761   2.359  0.00  0.00    +0.269 C 
ATOM     13  C   UNL     1     -36.396  24.901   1.277  0.00  0.00    +0.002 C 
ATOM     14  C   UNL     1     -37.456  25.285   2.087  0.00  0.00    +0.116 C 
ATOM     15  C   UNL     1     -37.940  24.365   3.003  0.00  0.00    +0.186 C 
ATOM     16  N   UNL     1     -39.023  24.751   3.832  0.00  0.00    -0.333 N 
ATOM     17  H   UNL     1     -39.388  24.117   4.492  0.00  0.00    +0.145 HD
ATOM     18  H   UNL     1     -39.410  25.652   3.749  0.00  0.00    +0.145 HD
ENDROOT
BRANCH   4  19
ATOM     19  C   UNL     1     -31.653  19.381  -0.454  0.00  0.00    +0.022 C 
ATOM     20  C   UNL     1     -32.133  18.483  -1.610  0.00  0.00    +0.005 C 
ATOM     21  C   UNL     1     -30.658  18.607   0.430  0.00  0.00    +0.005 C 
ENDBRANCH   4  19
BRANCH  14  23
ATOM     22  O   UNL     1     -39.197  26.883   1.709  0.00  0.00    -0.245 OA
ATOM     23  C   UNL     1     -38.013  26.623   1.947  0.00  0.00    +0.342 C 
BRANCH  23  24
ATOM     24  O   UNL     1     -37.075  27.595   2.110  0.00  0.00    -0.477 OA
ATOM     25  H   UNL     1     -36.384  27.687   1.485  0.00  0.00    +0.295 HD
ENDBRANCH  23  24
ENDBRANCH  14  23
TORSDOF 3
ENDMDL
MODEL 7
REMARK VINA RESULT:      -6.0      2.296      3.343
REMARK  Name = 2161
REMARK  3 active torsions:
REMARK  status: ('A' for Active; 'I' for Inactive)
REMARK    1  A    between atoms: C_4  and  C_19
REMARK    2  A    between atoms: C_14  and  C_23
REMARK    3  A    between atoms: C_23  and  O_24
REMARK                            x       y       z     vdW  Elec       q    Type
REMARK                         _______ _______ _______ _____ _____    ______ ____
ROOT
ATOM      1  O   UNL     1     -32.868  28.586   3.357  0.00  0.00    -0.430 OA
ATOM      2  O   UNL     1     -32.587  26.755   7.001  0.00  0.00    -0.290 OA
ATOM      3  N   UNL     1     -34.706  27.340   2.787  0.00  0.00    -0.355 NA
ATOM      4  C   UNL     1     -29.801  29.748   5.925  0.00  0.00    -0.022 C 
ATOM      5  C   UNL     1     -31.720  28.349   5.500  0.00  0.00    +0.070 C 
ATOM      6  C   UNL     1     -30.685  28.753   6.346  0.00  0.00    +0.002 C 
ATOM      7  C   UNL     1     -31.876  28.931   4.242  0.00  0.00    +0.151 C 
ATOM      8  C   UNL     1     -29.952  30.332   4.668  0.00  0.00    -0.001 C 
ATOM      9  C   UNL     1     -33.718  26.956   4.947  0.00  0.00    +0.173 C 
ATOM     10  C   UNL     1     -32.667  27.305   5.913  0.00  0.00    +0.190 C 
ATOM     11  C   UNL     1     -30.987  29.925   3.827  0.00  0.00    +0.037 C 
ATOM     12  C   UNL     1     -33.766  27.609   3.723  0.00  0.00    +0.269 C 
ATOM     13  C   UNL     1     -34.671  25.981   5.232  0.00  0.00    +0.002 C 
ATOM     14  C   UNL     1     -35.643  25.688   4.285  0.00  0.00    +0.116 C 
ATOM     15  C   UNL     1     -35.618  26.387   3.090  0.00  0.00    +0.186 C 
ATOM     16  N   UNL     1     -36.608  26.093   2.120  0.00  0.00    -0.333 N 
ATOM     17  H   UNL     1     -36.615  26.576   1.261  0.00  0.00    +0.145 HD
ATOM     18  H   UNL     1     -37.289  25.406   2.304  0.00  0.00    +0.145 HD
ENDROOT
BRANCH   4  19
ATOM     19  C   UNL     1     -28.693  30.186   6.822  0.00  0.00    +0.022 C 
ATOM     20  C   UNL     1     -27.537  30.850   6.049  0.00  0.00    +0.005 C 
ATOM     21  C   UNL     1     -28.147  29.037   7.690  0.00  0.00    +0.005 C 
ENDBRANCH   4  19
BRANCH  14  23
ATOM     22  O   UNL     1     -36.396  23.514   4.945  0.00  0.00    -0.245 OA
ATOM     23  C   UNL     1     -36.641  24.667   4.579  0.00  0.00    +0.342 C 
BRANCH  23  24
ATOM     24  O   UNL     1     -37.912  25.121   4.407  0.00  0.00    -0.477 OA
ATOM     25  H   UNL     1     -38.511  25.120   5.127  0.00  0.00    +0.295 HD
ENDBRANCH  23  24
ENDBRANCH  14  23
TORSDOF 3
ENDMDL
MODEL 8
REMARK VINA RESULT:      -5.8      6.211      8.492
REMARK  Name = 2161
REMARK  3 active torsions:
REMARK  status: ('A' for Active; 'I' for Inactive)
REMARK    1  A    between atoms: C_4  and  C_19
REMARK    2  A    between atoms: C_14  and  C_23
REMARK    3  A    between atoms: C_23  and  O_24
REMARK                            x       y       z     vdW  Elec       q    Type
REMARK                         _______ _______ _______ _____ _____    ______ ____
ROOT
ATOM      1  O   UNL     1     -37.383  23.022   3.311  0.00  0.00    -0.430 OA
ATOM      2  O   UNL     1     -38.835  21.625  -0.246  0.00  0.00    -0.290 OA
ATOM      3  N   UNL     1     -39.102  24.526   3.509  0.00  0.00    -0.355 NA
ATOM      4  C   UNL     1     -35.294  19.981   1.377  0.00  0.00    -0.022 C 
ATOM      5  C   UNL     1     -37.171  21.496   1.416  0.00  0.00    +0.070 C 
ATOM      6  C   UNL     1     -36.456  20.477   0.783  0.00  0.00    +0.002 C 
ATOM      7  C   UNL     1     -36.733  22.021   2.632  0.00  0.00    +0.151 C 
ATOM      8  C   UNL     1     -34.852  20.503   2.593  0.00  0.00    -0.001 C 
ATOM      9  C   UNL     1     -39.072  23.109   1.564  0.00  0.00    +0.173 C 
ATOM     10  C   UNL     1     -38.398  22.039   0.818  0.00  0.00    +0.190 C 
ATOM     11  C   UNL     1     -35.570  21.522   3.220  0.00  0.00    +0.037 C 
ATOM     12  C   UNL     1     -38.535  23.547   2.768  0.00  0.00    +0.269 C 
ATOM     13  C   UNL     1     -40.243  23.698   1.092  0.00  0.00    +0.002 C 
ATOM     14  C   UNL     1     -40.841  24.706   1.837  0.00  0.00    +0.116 C 
ATOM     15  C   UNL     1     -40.238  25.081   3.025  0.00  0.00    +0.186 C 
ATOM     16  N   UNL     1     -40.844  26.109   3.790  0.00  0.00    -0.333 N 
ATOM     17  H   UNL     1     -40.438  26.396   4.641  0.00  0.00    +0.145 HD
ATOM     18  H   UNL     1     -41.672  26.536   3.472  0.00  0.00    +0.145 HD
ENDROOT
BRANCH   4  19
ATOM     19  C   UNL     1     -34.523  18.892   0.711  0.00  0.00    +0.022 C 
ATOM     20  C   UNL     1     -33.157  18.644   1.378  0.00  0.00    +0.005 C 
ATOM     21  C   UNL     1     -34.331  19.144  -0.796  0.00  0.00    +0.005 C 
ENDBRANCH   4  19
BRANCH  14  23
ATOM     22  O   UNL     1     -43.149  24.750   1.206  0.00  0.00    -0.245 OA
ATOM     23  C   UNL     1     -42.066  25.325   1.346  0.00  0.00    +0.342 C 
BRANCH  23  24
ATOM     24  O   UNL     1     -41.897  26.642   1.048  0.00  0.00    -0.477 OA
ATOM     25  H   UNL     1     -42.024  26.943   0.170  0.00  0.00    +0.295 HD
ENDBRANCH  23  24
ENDBRANCH  14  23
TORSDOF 3
ENDMDL
MODEL 9
REMARK VINA RESULT:      -5.8      4.645      8.817
REMARK  Name = 2161
REMARK  3 active torsions:
REMARK  status: ('A' for Active; 'I' for Inactive)
REMARK    1  A    between atoms: C_4  and  C_19
REMARK    2  A    between atoms: C_14  and  C_23
REMARK    3  A    between atoms: C_23  and  O_24
REMARK                            x       y       z     vdW  Elec       q    Type
REMARK                         _______ _______ _______ _____ _____    ______ ____
ROOT
ATOM      1  O   UNL     1     -38.284  22.206   1.322  0.00  0.00    -0.430 OA
ATOM      2  O   UNL     1     -34.929  20.282   2.644  0.00  0.00    -0.290 OA
ATOM      3  N   UNL     1     -37.865  24.019   2.662  0.00  0.00    -0.355 NA
ATOM      4  C   UNL     1     -37.429  18.433  -0.221  0.00  0.00    -0.022 C 
ATOM      5  C   UNL     1     -36.828  20.247   1.251  0.00  0.00    +0.070 C 
ATOM      6  C   UNL     1     -36.559  18.983   0.722  0.00  0.00    +0.002 C 
ATOM      7  C   UNL     1     -37.956  20.961   0.846  0.00  0.00    +0.151 C 
ATOM      8  C   UNL     1     -38.557  19.143  -0.630  0.00  0.00    -0.001 C 
ATOM      9  C   UNL     1     -36.308  22.186   2.737  0.00  0.00    +0.173 C 
ATOM     10  C   UNL     1     -35.933  20.854   2.245  0.00  0.00    +0.190 C 
ATOM     11  C   UNL     1     -38.822  20.405  -0.097  0.00  0.00    +0.037 C 
ATOM     12  C   UNL     1     -37.459  22.794   2.254  0.00  0.00    +0.269 C 
ATOM     13  C   UNL     1     -35.533  22.857   3.681  0.00  0.00    +0.002 C 
ATOM     14  C   UNL     1     -35.932  24.115   4.113  0.00  0.00    +0.116 C 
ATOM     15  C   UNL     1     -37.094  24.647   3.579  0.00  0.00    +0.186 C 
ATOM     16  N   UNL     1     -37.506  25.930   4.016  0.00  0.00    -0.333 N 
ATOM     17  H   UNL     1     -38.328  26.334   3.653  0.00  0.00    +0.145 HD
ATOM     18  H   UNL     1     -36.971  26.419   4.683  0.00  0.00    +0.145 HD
ENDROOT
BRANCH   4  19
ATOM     19  C   UNL     1     -37.150  17.084  -0.794  0.00  0.00    +0.022 C 
ATOM     20  C   UNL     1     -37.219  17.071  -2.332  0.00  0.00    +0.005 C 
ATOM     21  C   UNL     1     -38.079  15.998  -0.220  0.00  0.00    +0.005 C 
ENDBRANCH   4  19
BRANCH  14  23
ATOM     22  O   UNL     1     -35.567  25.529   6.009  0.00  0.00    -0.245 OA
ATOM     23  C   UNL     1     -35.125  24.819   5.100  0.00  0.00    +0.342 C 
BRANCH  23  24
ATOM     24  O   UNL     1     -33.792  24.614   4.921  0.00  0.00    -0.477 OA
ATOM     25  H   UNL     1     -33.459  24.418   4.068  0.00  0.00    +0.295 HD
ENDBRANCH  23  24
ENDBRANCH  14  23
TORSDOF 3
ENDMDL
