MODEL 1
REMARK VINA RESULT:      -6.5      0.000      0.000
REMARK  Name = 54692989
REMARK  8 active torsions:
REMARK  status: ('A' for Active; 'I' for Inactive)
REMARK    1  A    between atoms: C_1  and  C_4
REMARK    2  A    between atoms: C_1  and  C_19
REMARK    3  A    between atoms: C_1  and  C_31
REMARK    4  A    between atoms: C_5  and  O_13
REMARK    5  A    between atoms: C_12  and  O_15
REMARK    6  A    between atoms: C_20  and  O_28
REMARK    7  A    between atoms: C_31  and  O_32
REMARK    8  A    between atoms: O_32  and  C_33
REMARK                            x       y       z     vdW  Elec       q    Type
REMARK                         _______ _______ _______ _____ _____    ______ ____
ROOT
ATOM      1  C   UNL     1     -38.464  25.376   0.843  0.00  0.00    +0.162 C 
ENDROOT
BRANCH   1   4
ATOM      2  O   UNL     1     -37.071  22.241   2.442  0.00  0.00    -0.421 OA
ATOM      3  O   UNL     1     -38.323  22.617   0.581  0.00  0.00    -0.245 OA
ATOM      4  C   UNL     1     -37.712  24.540   1.843  0.00  0.00    +0.102 A 
ATOM      5  C   UNL     1     -37.055  25.011   2.922  0.00  0.00    +0.140 A 
ATOM      6  C   UNL     1     -36.362  24.100   3.835  0.00  0.00    +0.068 A 
ATOM      7  C   UNL     1     -37.739  23.077   1.558  0.00  0.00    +0.345 A 
ATOM      8  C   UNL     1     -36.391  22.736   3.567  0.00  0.00    +0.155 A 
ATOM      9  C   UNL     1     -35.666  24.529   4.975  0.00  0.00    +0.009 C 
ATOM     10  C   UNL     1     -35.758  21.802   4.388  0.00  0.00    +0.074 C 
ATOM     11  C   UNL     1     -35.025  23.605   5.808  0.00  0.00    +0.037 C 
ATOM     12  C   UNL     1     -35.072  22.244   5.515  0.00  0.00    +0.137 C 
BRANCH   5  13
ATOM     13  O   UNL     1     -36.968  26.343   3.266  0.00  0.00    -0.505 OA
ATOM     14  H   UNL     1     -36.783  26.587   4.152  0.00  0.00    +0.292 HD
ENDBRANCH   5  13
BRANCH  12  15
ATOM     15  O   UNL     1     -34.447  21.349   6.328  0.00  0.00    -0.505 OA
ATOM     16  H   UNL     1     -34.951  20.745   6.836  0.00  0.00    +0.292 HD
ENDBRANCH  12  15
ENDBRANCH   1   4
BRANCH   1  19
ATOM     17  O   UNL     1     -42.210  25.217   0.453  0.00  0.00    -0.421 OA
ATOM     18  O   UNL     1     -40.478  24.575  -0.875  0.00  0.00    -0.245 OA
ATOM     19  C   UNL     1     -39.893  25.554   1.215  0.00  0.00    +0.102 A 
ATOM     20  C   UNL     1     -40.344  26.096   2.363  0.00  0.00    +0.140 A 
ATOM     21  C   UNL     1     -41.780  26.230   2.619  0.00  0.00    +0.068 A 
ATOM     22  C   UNL     1     -40.856  25.076   0.181  0.00  0.00    +0.345 A 
ATOM     23  C   UNL     1     -42.674  25.786   1.651  0.00  0.00    +0.152 A 
ATOM     24  C   UNL     1     -42.308  26.788   3.792  0.00  0.00    +0.006 C 
ATOM     25  C   UNL     1     -44.056  25.879   1.815  0.00  0.00    +0.038 C 
ATOM     26  C   UNL     1     -43.692  26.887   3.973  0.00  0.00    +0.000 C 
ATOM     27  C   UNL     1     -44.564  26.434   2.985  0.00  0.00    +0.003 C 
BRANCH  20  28
ATOM     28  O   UNL     1     -39.536  26.560   3.379  0.00  0.00    -0.505 OA
ATOM     29  H   UNL     1     -38.664  26.229   3.474  0.00  0.00    +0.292 HD
ENDBRANCH  20  28
ENDBRANCH   1  19
BRANCH   1  31
ATOM     30  O   UNL     1     -38.313  27.782   1.168  0.00  0.00    -0.249 OA
ATOM     31  C   UNL     1     -37.794  26.732   0.808  0.00  0.00    +0.325 C 
BRANCH  31  32
ATOM     32  O   UNL     1     -36.519  26.596   0.335  0.00  0.00    -0.448 OA
BRANCH  32  33
ATOM     33  C   UNL     1     -35.730  27.790   0.336  0.00  0.00    +0.209 C 
ATOM     34  C   UNL     1     -34.457  27.539   1.116  0.00  0.00    +0.051 C 
ENDBRANCH  32  33
ENDBRANCH  31  32
ENDBRANCH   1  31
TORSDOF 8
ENDMDL
MODEL 2
REMARK VINA RESULT:      -6.4      4.444      8.683
REMARK  Name = 54692989
REMARK  8 active torsions:
REMARK  status: ('A' for Active; 'I' for Inactive)
REMARK    1  A    between atoms: C_1  and  C_4
REMARK    2  A    between atoms: C_1  and  C_19
REMARK    3  A    between atoms: C_1  and  C_31
REMARK    4  A    between atoms: C_5  and  O_13
REMARK    5  A    between atoms: C_12  and  O_15
REMARK    6  A    between atoms: C_20  and  O_28
REMARK    7  A    between atoms: C_31  and  O_32
REMARK    8  A    between atoms: O_32  and  C_33
REMARK                            x       y       z     vdW  Elec       q    Type
REMARK                         _______ _______ _______ _____ _____    ______ ____
ROOT
ATOM      1  C   UNL     1     -35.551  21.184   0.034  0.00  0.00    +0.162 C 
ENDROOT
BRANCH   1   4
ATOM      2  O   UNL     1     -36.591  24.559   1.399  0.00  0.00    -0.421 OA
ATOM      3  O   UNL     1     -36.646  23.634  -0.678  0.00  0.00    -0.245 OA
ATOM      4  C   UNL     1     -35.773  22.262   1.061  0.00  0.00    +0.102 A 
ATOM      5  C   UNL     1     -35.480  22.166   2.373  0.00  0.00    +0.140 A 
ATOM      6  C   UNL     1     -35.731  23.287   3.282  0.00  0.00    +0.068 A 
ATOM      7  C   UNL     1     -36.364  23.516   0.511  0.00  0.00    +0.345 A 
ATOM      8  C   UNL     1     -36.280  24.455   2.765  0.00  0.00    +0.155 A 
ATOM      9  C   UNL     1     -35.445  23.249   4.654  0.00  0.00    +0.009 C 
ATOM     10  C   UNL     1     -36.548  25.569   3.563  0.00  0.00    +0.074 C 
ATOM     11  C   UNL     1     -35.707  24.357   5.468  0.00  0.00    +0.037 C 
ATOM     12  C   UNL     1     -36.258  25.515   4.922  0.00  0.00    +0.137 C 
BRANCH   5  13
ATOM     13  O   UNL     1     -34.939  21.051   2.975  0.00  0.00    -0.505 OA
ATOM     14  H   UNL     1     -34.100  21.104   3.389  0.00  0.00    +0.292 HD
ENDBRANCH   5  13
BRANCH  12  15
ATOM     15  O   UNL     1     -36.513  26.589   5.718  0.00  0.00    -0.505 OA
ATOM     16  H   UNL     1     -37.397  26.818   5.929  0.00  0.00    +0.292 HD
ENDBRANCH  12  15
ENDBRANCH   1   4
BRANCH   1  19
ATOM     17  O   UNL     1     -31.893  21.191  -0.874  0.00  0.00    -0.421 OA
ATOM     18  O   UNL     1     -33.621  22.588  -1.362  0.00  0.00    -0.245 OA
ATOM     19  C   UNL     1     -34.142  20.710   0.005  0.00  0.00    +0.102 A 
ATOM     20  C   UNL     1     -33.673  19.607   0.618  0.00  0.00    +0.140 A 
ATOM     21  C   UNL     1     -32.262  19.230   0.513  0.00  0.00    +0.068 A 
ATOM     22  C   UNL     1     -33.225  21.574  -0.793  0.00  0.00    +0.345 A 
ATOM     23  C   UNL     1     -31.410  20.036  -0.235  0.00  0.00    +0.152 A 
ATOM     24  C   UNL     1     -31.716  18.093   1.125  0.00  0.00    +0.006 C 
ATOM     25  C   UNL     1     -30.054  19.748  -0.388  0.00  0.00    +0.038 C 
ATOM     26  C   UNL     1     -30.358  17.789   0.983  0.00  0.00    +0.000 C 
ATOM     27  C   UNL     1     -29.528  18.616   0.226  0.00  0.00    +0.003 C 
BRANCH  20  28
ATOM     28  O   UNL     1     -34.437  18.750   1.381  0.00  0.00    -0.505 OA
ATOM     29  H   UNL     1     -34.532  17.853   1.127  0.00  0.00    +0.292 HD
ENDBRANCH  20  28
ENDBRANCH   1  19
BRANCH   1  31
ATOM     30  O   UNL     1     -37.004  19.890   1.493  0.00  0.00    -0.249 OA
ATOM     31  C   UNL     1     -36.451  20.027   0.408  0.00  0.00    +0.325 C 
BRANCH  31  32
ATOM     32  O   UNL     1     -36.565  19.178  -0.657  0.00  0.00    -0.448 OA
BRANCH  32  33
ATOM     33  C   UNL     1     -37.745  18.368  -0.676  0.00  0.00    +0.209 C 
ATOM     34  C   UNL     1     -37.375  16.949  -0.297  0.00  0.00    +0.051 C 
ENDBRANCH  32  33
ENDBRANCH  31  32
ENDBRANCH   1  31
TORSDOF 8
ENDMDL
MODEL 3
REMARK VINA RESULT:      -6.3      5.094      7.244
REMARK  Name = 54692989
REMARK  8 active torsions:
REMARK  status: ('A' for Active; 'I' for Inactive)
REMARK    1  A    between atoms: C_1  and  C_4
REMARK    2  A    between atoms: C_1  and  C_19
REMARK    3  A    between atoms: C_1  and  C_31
REMARK    4  A    between atoms: C_5  and  O_13
REMARK    5  A    between atoms: C_12  and  O_15
REMARK    6  A    between atoms: C_20  and  O_28
REMARK    7  A    between atoms: C_31  and  O_32
REMARK    8  A    between atoms: O_32  and  C_33
REMARK                            x       y       z     vdW  Elec       q    Type
REMARK                         _______ _______ _______ _____ _____    ______ ____
ROOT
ATOM      1  C   UNL     1     -32.098  28.114   3.354  0.00  0.00    +0.162 C 
ENDROOT
BRANCH   1   4
ATOM      2  O   UNL     1     -33.626  24.969   1.904  0.00  0.00    -0.421 OA
ATOM      3  O   UNL     1     -32.249  26.567   1.054  0.00  0.00    -0.245 OA
ATOM      4  C   UNL     1     -32.913  26.849   3.323  0.00  0.00    +0.102 A 
ATOM      5  C   UNL     1     -33.623  26.350   4.354  0.00  0.00    +0.140 A 
ATOM      6  C   UNL     1     -34.390  25.111   4.206  0.00  0.00    +0.068 A 
ATOM      7  C   UNL     1     -32.890  26.142   2.011  0.00  0.00    +0.345 A 
ATOM      8  C   UNL     1     -34.368  24.455   2.980  0.00  0.00    +0.155 A 
ATOM      9  C   UNL     1     -35.151  24.544   5.239  0.00  0.00    +0.009 C 
ATOM     10  C   UNL     1     -35.072  23.270   2.757  0.00  0.00    +0.074 C 
ATOM     11  C   UNL     1     -35.862  23.357   5.032  0.00  0.00    +0.037 C 
ATOM     12  C   UNL     1     -35.823  22.722   3.792  0.00  0.00    +0.137 C 
BRANCH   5  13
ATOM     13  O   UNL     1     -33.701  26.926   5.603  0.00  0.00    -0.505 OA
ATOM     14  H   UNL     1     -32.921  27.074   6.100  0.00  0.00    +0.292 HD
ENDBRANCH   5  13
BRANCH  12  15
ATOM     15  O   UNL     1     -36.515  21.567   3.596  0.00  0.00    -0.505 OA
ATOM     16  H   UNL     1     -37.317  21.416   4.057  0.00  0.00    +0.292 HD
ENDBRANCH  12  15
ENDBRANCH   1   4
BRANCH   1  19
ATOM     17  O   UNL     1     -32.554  31.266   1.337  0.00  0.00    -0.421 OA
ATOM     18  O   UNL     1     -30.755  29.942   1.771  0.00  0.00    -0.245 OA
ATOM     19  C   UNL     1     -32.818  29.267   2.749  0.00  0.00    +0.102 A 
ATOM     20  C   UNL     1     -34.129  29.537   2.896  0.00  0.00    +0.140 A 
ATOM     21  C   UNL     1     -34.731  30.711   2.260  0.00  0.00    +0.068 A 
ATOM     22  C   UNL     1     -31.953  30.162   1.927  0.00  0.00    +0.345 A 
ATOM     23  C   UNL     1     -33.922  31.545   1.497  0.00  0.00    +0.152 A 
ATOM     24  C   UNL     1     -36.088  31.045   2.379  0.00  0.00    +0.006 C 
ATOM     25  C   UNL     1     -34.415  32.683   0.860  0.00  0.00    +0.038 C 
ATOM     26  C   UNL     1     -36.599  32.183   1.745  0.00  0.00    +0.000 C 
ATOM     27  C   UNL     1     -35.763  33.001   0.987  0.00  0.00    +0.003 C 
BRANCH  20  28
ATOM     28  O   UNL     1     -35.009  28.770   3.629  0.00  0.00    -0.505 OA
ATOM     29  H   UNL     1     -34.723  27.961   4.007  0.00  0.00    +0.292 HD
ENDBRANCH  20  28
ENDBRANCH   1  19
BRANCH   1  31
ATOM     30  O   UNL     1     -31.013  27.814   5.509  0.00  0.00    -0.249 OA
ATOM     31  C   UNL     1     -31.814  28.421   4.807  0.00  0.00    +0.325 C 
BRANCH  31  32
ATOM     32  O   UNL     1     -32.569  29.489   5.203  0.00  0.00    -0.448 OA
BRANCH  32  33
ATOM     33  C   UNL     1     -31.909  30.429   6.057  0.00  0.00    +0.209 C 
ATOM     34  C   UNL     1     -31.142  31.416   5.204  0.00  0.00    +0.051 C 
ENDBRANCH  32  33
ENDBRANCH  31  32
ENDBRANCH   1  31
TORSDOF 8
ENDMDL
MODEL 4
REMARK VINA RESULT:      -6.2      3.207      6.538
REMARK  Name = 54692989
REMARK  8 active torsions:
REMARK  status: ('A' for Active; 'I' for Inactive)
REMARK    1  A    between atoms: C_1  and  C_4
REMARK    2  A    between atoms: C_1  and  C_19
REMARK    3  A    between atoms: C_1  and  C_31
REMARK    4  A    between atoms: C_5  and  O_13
REMARK    5  A    between atoms: C_12  and  O_15
REMARK    6  A    between atoms: C_20  and  O_28
REMARK    7  A    between atoms: C_31  and  O_32
REMARK    8  A    between atoms: O_32  and  C_33
REMARK                            x       y       z     vdW  Elec       q    Type
REMARK                         _______ _______ _______ _____ _____    ______ ____
ROOT
ATOM      1  C   UNL     1     -36.610  24.796   2.865  0.00  0.00    +0.162 C 
ENDROOT
BRANCH   1   4
ATOM      2  O   UNL     1     -36.644  21.146   1.866  0.00  0.00    -0.421 OA
ATOM      3  O   UNL     1     -38.119  22.470   2.982  0.00  0.00    -0.245 OA
ATOM      4  C   UNL     1     -36.111  23.518   2.248  0.00  0.00    +0.102 A 
ATOM      5  C   UNL     1     -34.938  23.365   1.603  0.00  0.00    +0.140 A 
ATOM      6  C   UNL     1     -34.550  22.066   1.048  0.00  0.00    +0.068 A 
ATOM      7  C   UNL     1     -37.041  22.362   2.404  0.00  0.00    +0.345 A 
ATOM      8  C   UNL     1     -35.418  20.990   1.197  0.00  0.00    +0.155 A 
ATOM      9  C   UNL     1     -33.342  21.843   0.370  0.00  0.00    +0.009 C 
ATOM     10  C   UNL     1     -35.123  19.720   0.700  0.00  0.00    +0.074 C 
ATOM     11  C   UNL     1     -33.031  20.576  -0.134  0.00  0.00    +0.037 C 
ATOM     12  C   UNL     1     -33.921  19.516   0.030  0.00  0.00    +0.137 C 
BRANCH   5  13
ATOM     13  O   UNL     1     -34.017  24.370   1.403  0.00  0.00    -0.505 OA
ATOM     14  H   UNL     1     -33.563  24.742   2.134  0.00  0.00    +0.292 HD
ENDBRANCH   5  13
BRANCH  12  15
ATOM     15  O   UNL     1     -33.614  18.286  -0.463  0.00  0.00    -0.505 OA
ATOM     16  H   UNL     1     -34.164  17.552  -0.270  0.00  0.00    +0.292 HD
ENDBRANCH  12  15
ENDBRANCH   1   4
BRANCH   1  19
ATOM     17  O   UNL     1     -34.626  25.380   6.016  0.00  0.00    -0.421 OA
ATOM     18  O   UNL     1     -36.266  23.906   5.461  0.00  0.00    -0.245 OA
ATOM     19  C   UNL     1     -35.599  25.428   3.756  0.00  0.00    +0.102 A 
ATOM     20  C   UNL     1     -34.785  26.447   3.420  0.00  0.00    +0.140 A 
ATOM     21  C   UNL     1     -33.832  26.997   4.386  0.00  0.00    +0.068 A 
ATOM     22  C   UNL     1     -35.540  24.837   5.124  0.00  0.00    +0.345 A 
ATOM     23  C   UNL     1     -33.781  26.446   5.662  0.00  0.00    +0.152 A 
ATOM     24  C   UNL     1     -32.962  28.058   4.096  0.00  0.00    +0.006 C 
ATOM     25  C   UNL     1     -32.904  26.912   6.640  0.00  0.00    +0.038 C 
ATOM     26  C   UNL     1     -32.075  28.537   5.066  0.00  0.00    +0.000 C 
ATOM     27  C   UNL     1     -32.047  27.965   6.337  0.00  0.00    +0.003 C 
BRANCH  20  28
ATOM     28  O   UNL     1     -34.761  27.054   2.183  0.00  0.00    -0.505 OA
ATOM     29  H   UNL     1     -34.430  27.927   2.096  0.00  0.00    +0.292 HD
ENDBRANCH  20  28
ENDBRANCH   1  19
BRANCH   1  31
ATOM     30  O   UNL     1     -36.449  25.665   0.600  0.00  0.00    -0.249 OA
ATOM     31  C   UNL     1     -36.921  25.743   1.727  0.00  0.00    +0.325 C 
BRANCH  31  32
ATOM     32  O   UNL     1     -37.824  26.679   2.149  0.00  0.00    -0.448 OA
BRANCH  32  33
ATOM     33  C   UNL     1     -39.060  26.162   2.649  0.00  0.00    +0.209 C 
ATOM     34  C   UNL     1     -39.910  25.702   1.483  0.00  0.00    +0.051 C 
ENDBRANCH  32  33
ENDBRANCH  31  32
ENDBRANCH   1  31
TORSDOF 8
ENDMDL
MODEL 5
REMARK VINA RESULT:      -6.2      2.284      7.083
REMARK  Name = 54692989
REMARK  8 active torsions:
REMARK  status: ('A' for Active; 'I' for Inactive)
REMARK    1  A    between atoms: C_1  and  C_4
REMARK    2  A    between atoms: C_1  and  C_19
REMARK    3  A    between atoms: C_1  and  C_31
REMARK    4  A    between atoms: C_5  and  O_13
REMARK    5  A    between atoms: C_12  and  O_15
REMARK    6  A    between atoms: C_20  and  O_28
REMARK    7  A    between atoms: C_31  and  O_32
REMARK    8  A    between atoms: O_32  and  C_33
REMARK                            x       y       z     vdW  Elec       q    Type
REMARK                         _______ _______ _______ _____ _____    ______ ____
ROOT
ATOM      1  C   UNL     1     -36.152  24.129   2.200  0.00  0.00    +0.162 C 
ENDROOT
BRANCH   1   4
ATOM      2  O   UNL     1     -39.201  25.281   0.275  0.00  0.00    -0.421 OA
ATOM      3  O   UNL     1     -37.223  24.347  -0.351  0.00  0.00    -0.245 OA
ATOM      4  C   UNL     1     -37.525  24.705   1.983  0.00  0.00    +0.102 A 
ATOM      5  C   UNL     1     -38.347  25.156   2.951  0.00  0.00    +0.140 A 
ATOM      6  C   UNL     1     -39.663  25.708   2.621  0.00  0.00    +0.068 A 
ATOM      7  C   UNL     1     -37.947  24.754   0.554  0.00  0.00    +0.345 A 
ATOM      8  C   UNL     1     -40.052  25.754   1.287  0.00  0.00    +0.155 A 
ATOM      9  C   UNL     1     -40.561  26.195   3.582  0.00  0.00    +0.009 C 
ATOM     10  C   UNL     1     -41.288  26.265   0.889  0.00  0.00    +0.074 C 
ATOM     11  C   UNL     1     -41.804  26.711   3.200  0.00  0.00    +0.037 C 
ATOM     12  C   UNL     1     -42.167  26.746   1.855  0.00  0.00    +0.137 C 
BRANCH   5  13
ATOM     13  O   UNL     1     -38.051  25.147   4.297  0.00  0.00    -0.505 OA
ATOM     14  H   UNL     1     -38.741  25.084   4.928  0.00  0.00    +0.292 HD
ENDBRANCH   5  13
BRANCH  12  15
ATOM     15  O   UNL     1     -43.377  27.247   1.488  0.00  0.00    -0.505 OA
ATOM     16  H   UNL     1     -43.651  27.204   0.593  0.00  0.00    +0.292 HD
ENDBRANCH  12  15
ENDBRANCH   1   4
BRANCH   1  19
ATOM     17  O   UNL     1     -33.689  26.950   2.624  0.00  0.00    -0.421 OA
ATOM     18  O   UNL     1     -34.736  26.057   0.812  0.00  0.00    -0.245 OA
ATOM     19  C   UNL     1     -35.249  25.069   2.917  0.00  0.00    +0.102 A 
ATOM     20  C   UNL     1     -35.030  25.087   4.245  0.00  0.00    +0.140 A 
ATOM     21  C   UNL     1     -34.109  26.056   4.843  0.00  0.00    +0.068 A 
ATOM     22  C   UNL     1     -34.555  26.045   2.027  0.00  0.00    +0.345 A 
ATOM     23  C   UNL     1     -33.461  26.962   4.011  0.00  0.00    +0.152 A 
ATOM     24  C   UNL     1     -33.839  26.120   6.218  0.00  0.00    +0.006 C 
ATOM     25  C   UNL     1     -32.568  27.915   4.498  0.00  0.00    +0.038 C 
ATOM     26  C   UNL     1     -32.945  27.071   6.724  0.00  0.00    +0.000 C 
ATOM     27  C   UNL     1     -32.310  27.967   5.864  0.00  0.00    +0.003 C 
BRANCH  20  28
ATOM     28  O   UNL     1     -35.626  24.233   5.149  0.00  0.00    -0.505 OA
ATOM     29  H   UNL     1     -36.009  24.573   5.934  0.00  0.00    +0.292 HD
ENDBRANCH  20  28
ENDBRANCH   1  19
BRANCH   1  31
ATOM     30  O   UNL     1     -37.343  22.579   3.647  0.00  0.00    -0.249 OA
ATOM     31  C   UNL     1     -36.324  22.880   3.036  0.00  0.00    +0.325 C 
BRANCH  31  32
ATOM     32  O   UNL     1     -35.179  22.136   2.984  0.00  0.00    -0.448 OA
BRANCH  32  33
ATOM     33  C   UNL     1     -35.358  20.748   2.685  0.00  0.00    +0.209 C 
ATOM     34  C   UNL     1     -34.700  20.441   1.356  0.00  0.00    +0.051 C 
ENDBRANCH  32  33
ENDBRANCH  31  32
ENDBRANCH   1  31
TORSDOF 8
ENDMDL
MODEL 6
REMARK VINA RESULT:      -6.2      5.278      7.476
REMARK  Name = 54692989
REMARK  8 active torsions:
REMARK  status: ('A' for Active; 'I' for Inactive)
REMARK    1  A    between atoms: C_1  and  C_4
REMARK    2  A    between atoms: C_1  and  C_19
REMARK    3  A    between atoms: C_1  and  C_31
REMARK    4  A    between atoms: C_5  and  O_13
REMARK    5  A    between atoms: C_12  and  O_15
REMARK    6  A    between atoms: C_20  and  O_28
REMARK    7  A    between atoms: C_31  and  O_32
REMARK    8  A    between atoms: O_32  and  C_33
REMARK                            x       y       z     vdW  Elec       q    Type
REMARK                         _______ _______ _______ _____ _____    ______ ____
ROOT
ATOM      1  C   UNL     1     -33.460  26.954   2.436  0.00  0.00    +0.162 C 
ENDROOT
BRANCH   1   4
ATOM      2  O   UNL     1     -29.730  27.065   3.070  0.00  0.00    -0.421 OA
ATOM      3  O   UNL     1     -31.021  25.971   1.550  0.00  0.00    -0.245 OA
ATOM      4  C   UNL     1     -32.173  27.363   3.100  0.00  0.00    +0.102 A 
ATOM      5  C   UNL     1     -32.064  28.207   4.144  0.00  0.00    +0.140 A 
ATOM      6  C   UNL     1     -30.755  28.526   4.718  0.00  0.00    +0.068 A 
ATOM      7  C   UNL     1     -30.956  26.741   2.504  0.00  0.00    +0.345 A 
ATOM      8  C   UNL     1     -29.622  27.943   4.162  0.00  0.00    +0.155 A 
ATOM      9  C   UNL     1     -30.577  29.394   5.806  0.00  0.00    +0.009 C 
ATOM     10  C   UNL     1     -28.339  28.193   4.650  0.00  0.00    +0.074 C 
ATOM     11  C   UNL     1     -29.298  29.656   6.307  0.00  0.00    +0.037 C 
ATOM     12  C   UNL     1     -28.180  29.056   5.730  0.00  0.00    +0.137 C 
BRANCH   5  13
ATOM     13  O   UNL     1     -33.126  28.835   4.758  0.00  0.00    -0.505 OA
ATOM     14  H   UNL     1     -33.807  28.326   5.152  0.00  0.00    +0.292 HD
ENDBRANCH   5  13
BRANCH  12  15
ATOM     15  O   UNL     1     -26.938  29.314   6.220  0.00  0.00    -0.505 OA
ATOM     16  H   UNL     1     -26.836  29.860   6.975  0.00  0.00    +0.292 HD
ENDBRANCH  12  15
ENDBRANCH   1   4
BRANCH   1  19
ATOM     17  O   UNL     1     -34.862  23.461   2.235  0.00  0.00    -0.421 OA
ATOM     18  O   UNL     1     -34.288  25.001   0.662  0.00  0.00    -0.245 OA
ATOM     19  C   UNL     1     -33.963  25.645   2.931  0.00  0.00    +0.102 A 
ATOM     20  C   UNL     1     -34.068  25.283   4.224  0.00  0.00    +0.140 A 
ATOM     21  C   UNL     1     -34.588  23.966   4.596  0.00  0.00    +0.068 A 
ATOM     22  C   UNL     1     -34.374  24.702   1.850  0.00  0.00    +0.345 A 
ATOM     23  C   UNL     1     -34.973  23.091   3.587  0.00  0.00    +0.152 A 
ATOM     24  C   UNL     1     -34.723  23.534   5.924  0.00  0.00    +0.006 C 
ATOM     25  C   UNL     1     -35.480  21.819   3.855  0.00  0.00    +0.038 C 
ATOM     26  C   UNL     1     -35.229  22.261   6.211  0.00  0.00    +0.000 C 
ATOM     27  C   UNL     1     -35.607  21.405   5.177  0.00  0.00    +0.003 C 
BRANCH  20  28
ATOM     28  O   UNL     1     -33.710  26.079   5.291  0.00  0.00    -0.505 OA
ATOM     29  H   UNL     1     -34.256  26.798   5.544  0.00  0.00    +0.292 HD
ENDBRANCH  20  28
ENDBRANCH   1  19
BRANCH   1  31
ATOM     30  O   UNL     1     -35.384  27.911   3.576  0.00  0.00    -0.249 OA
ATOM     31  C   UNL     1     -34.481  28.024   2.755  0.00  0.00    +0.325 C 
BRANCH  31  32
ATOM     32  O   UNL     1     -34.223  29.137   2.005  0.00  0.00    -0.448 OA
BRANCH  32  33
ATOM     33  C   UNL     1     -35.148  30.217   2.164  0.00  0.00    +0.209 C 
ATOM     34  C   UNL     1     -34.448  31.369   2.853  0.00  0.00    +0.051 C 
ENDBRANCH  32  33
ENDBRANCH  31  32
ENDBRANCH   1  31
TORSDOF 8
ENDMDL
MODEL 7
REMARK VINA RESULT:      -6.1      3.082      6.552
REMARK  Name = 54692989
REMARK  8 active torsions:
REMARK  status: ('A' for Active; 'I' for Inactive)
REMARK    1  A    between atoms: C_1  and  C_4
REMARK    2  A    between atoms: C_1  and  C_19
REMARK    3  A    between atoms: C_1  and  C_31
REMARK    4  A    between atoms: C_5  and  O_13
REMARK    5  A    between atoms: C_12  and  O_15
REMARK    6  A    between atoms: C_20  and  O_28
REMARK    7  A    between atoms: C_31  and  O_32
REMARK    8  A    between atoms: O_32  and  C_33
REMARK                            x       y       z     vdW  Elec       q    Type
REMARK                         _______ _______ _______ _____ _____    ______ ____
ROOT
ATOM      1  C   UNL     1     -36.578  24.860   2.116  0.00  0.00    +0.162 C 
ENDROOT
BRANCH   1   4
ATOM      2  O   UNL     1     -33.717  27.255   2.751  0.00  0.00    -0.421 OA
ATOM      3  O   UNL     1     -34.882  26.680   0.885  0.00  0.00    -0.245 OA
ATOM      4  C   UNL     1     -35.535  25.604   2.906  0.00  0.00    +0.102 A 
ATOM      5  C   UNL     1     -35.317  25.478   4.230  0.00  0.00    +0.140 A 
ATOM      6  C   UNL     1     -34.263  26.248   4.893  0.00  0.00    +0.068 A 
ATOM      7  C   UNL     1     -34.706  26.538   2.092  0.00  0.00    +0.345 A 
ATOM      8  C   UNL     1     -33.491  27.118   4.131  0.00  0.00    +0.155 A 
ATOM      9  C   UNL     1     -33.986  26.159   6.265  0.00  0.00    +0.009 C 
ATOM     10  C   UNL     1     -32.467  27.886   4.686  0.00  0.00    +0.074 C 
ATOM     11  C   UNL     1     -32.963  26.922   6.838  0.00  0.00    +0.037 C 
ATOM     12  C   UNL     1     -32.204  27.785   6.048  0.00  0.00    +0.137 C 
BRANCH   5  13
ATOM     13  O   UNL     1     -36.032  24.648   5.065  0.00  0.00    -0.505 OA
ATOM     14  H   UNL     1     -35.736  23.772   5.221  0.00  0.00    +0.292 HD
ENDBRANCH   5  13
BRANCH  12  15
ATOM     15  O   UNL     1     -31.211  28.526   6.610  0.00  0.00    -0.505 OA
ATOM     16  H   UNL     1     -31.290  28.822   7.495  0.00  0.00    +0.292 HD
ENDBRANCH  12  15
ENDBRANCH   1   4
BRANCH   1  19
ATOM     17  O   UNL     1     -35.725  22.430  -0.636  0.00  0.00    -0.421 OA
ATOM     18  O   UNL     1     -36.716  24.478  -0.619  0.00  0.00    -0.245 OA
ATOM     19  C   UNL     1     -36.042  23.619   1.496  0.00  0.00    +0.102 A 
ATOM     20  C   UNL     1     -35.463  22.598   2.157  0.00  0.00    +0.140 A 
ATOM     21  C   UNL     1     -34.977  21.417   1.441  0.00  0.00    +0.068 A 
ATOM     22  C   UNL     1     -36.195  23.563   0.014  0.00  0.00    +0.345 A 
ATOM     23  C   UNL     1     -35.125  21.367   0.059  0.00  0.00    +0.152 A 
ATOM     24  C   UNL     1     -34.370  20.323   2.075  0.00  0.00    +0.006 C 
ATOM     25  C   UNL     1     -34.693  20.279  -0.698  0.00  0.00    +0.038 C 
ATOM     26  C   UNL     1     -33.929  19.223   1.330  0.00  0.00    +0.000 C 
ATOM     27  C   UNL     1     -34.092  19.201  -0.055  0.00  0.00    +0.003 C 
BRANCH  20  28
ATOM     28  O   UNL     1     -35.270  22.559   3.522  0.00  0.00    -0.505 OA
ATOM     29  H   UNL     1     -35.006  21.760   3.935  0.00  0.00    +0.292 HD
ENDBRANCH  20  28
ENDBRANCH   1  19
BRANCH   1  31
ATOM     30  O   UNL     1     -37.878  23.362   3.524  0.00  0.00    -0.249 OA
ATOM     31  C   UNL     1     -37.681  24.488   3.083  0.00  0.00    +0.325 C 
BRANCH  31  32
ATOM     32  O   UNL     1     -38.403  25.605   3.400  0.00  0.00    -0.448 OA
BRANCH  32  33
ATOM     33  C   UNL     1     -39.374  26.008   2.428  0.00  0.00    +0.209 C 
ATOM     34  C   UNL     1     -40.737  26.055   3.084  0.00  0.00    +0.051 C 
ENDBRANCH  32  33
ENDBRANCH  31  32
ENDBRANCH   1  31
TORSDOF 8
ENDMDL
MODEL 8
REMARK VINA RESULT:      -6.1      4.344      6.658
REMARK  Name = 54692989
REMARK  8 active torsions:
REMARK  status: ('A' for Active; 'I' for Inactive)
REMARK    1  A    between atoms: C_1  and  C_4
REMARK    2  A    between atoms: C_1  and  C_19
REMARK    3  A    between atoms: C_1  and  C_31
REMARK    4  A    between atoms: C_5  and  O_13
REMARK    5  A    between atoms: C_12  and  O_15
REMARK    6  A    between atoms: C_20  and  O_28
REMARK    7  A    between atoms: C_31  and  O_32
REMARK    8  A    between atoms: O_32  and  C_33
REMARK                            x       y       z     vdW  Elec       q    Type
REMARK                         _______ _______ _______ _____ _____    ______ ____
ROOT
ATOM      1  C   UNL     1     -35.891  22.226   0.864  0.00  0.00    +0.162 C 
ENDROOT
BRANCH   1   4
ATOM      2  O   UNL     1     -33.965  19.050   1.594  0.00  0.00    -0.421 OA
ATOM      3  O   UNL     1     -36.027  19.795   2.198  0.00  0.00    -0.245 OA
ATOM      4  C   UNL     1     -34.747  21.250   0.815  0.00  0.00    +0.102 A 
ATOM      5  C   UNL     1     -33.588  21.434   0.152  0.00  0.00    +0.140 A 
ATOM      6  C   UNL     1     -32.536  20.415   0.182  0.00  0.00    +0.068 A 
ATOM      7  C   UNL     1     -34.981  19.996   1.588  0.00  0.00    +0.345 A 
ATOM      8  C   UNL     1     -32.757  19.249   0.906  0.00  0.00    +0.155 A 
ATOM      9  C   UNL     1     -31.308  20.551  -0.483  0.00  0.00    +0.009 C 
ATOM     10  C   UNL     1     -31.805  18.231   0.986  0.00  0.00    +0.074 C 
ATOM     11  C   UNL     1     -30.344  19.540  -0.413  0.00  0.00    +0.037 C 
ATOM     12  C   UNL     1     -30.593  18.381   0.320  0.00  0.00    +0.137 C 
BRANCH   5  13
ATOM     13  O   UNL     1     -33.281  22.552  -0.592  0.00  0.00    -0.505 OA
ATOM     14  H   UNL     1     -33.516  22.590  -1.499  0.00  0.00    +0.292 HD
ENDBRANCH   5  13
BRANCH  12  15
ATOM     15  O   UNL     1     -29.653  17.400   0.385  0.00  0.00    -0.505 OA
ATOM     16  H   UNL     1     -29.754  16.619  -0.124  0.00  0.00    +0.292 HD
ENDBRANCH  12  15
ENDBRANCH   1   4
BRANCH   1  19
ATOM     17  O   UNL     1     -37.072  23.854   4.052  0.00  0.00    -0.421 OA
ATOM     18  O   UNL     1     -38.002  22.325   2.648  0.00  0.00    -0.245 OA
ATOM     19  C   UNL     1     -35.832  23.108   2.061  0.00  0.00    +0.102 A 
ATOM     20  C   UNL     1     -34.804  23.913   2.392  0.00  0.00    +0.140 A 
ATOM     21  C   UNL     1     -34.860  24.748   3.593  0.00  0.00    +0.068 A 
ATOM     22  C   UNL     1     -37.049  23.051   2.920  0.00  0.00    +0.345 A 
ATOM     23  C   UNL     1     -35.998  24.695   4.390  0.00  0.00    +0.152 A 
ATOM     24  C   UNL     1     -33.824  25.607   3.987  0.00  0.00    +0.006 C 
ATOM     25  C   UNL     1     -36.132  25.459   5.550  0.00  0.00    +0.038 C 
ATOM     26  C   UNL     1     -33.942  26.380   5.148  0.00  0.00    +0.000 C 
ATOM     27  C   UNL     1     -35.096  26.306   5.927  0.00  0.00    +0.003 C 
BRANCH  20  28
ATOM     28  O   UNL     1     -33.637  24.031   1.667  0.00  0.00    -0.505 OA
ATOM     29  H   UNL     1     -32.861  24.361   2.078  0.00  0.00    +0.292 HD
ENDBRANCH  20  28
ENDBRANCH   1  19
BRANCH   1  31
ATOM     30  O   UNL     1     -35.475  24.262  -0.398  0.00  0.00    -0.249 OA
ATOM     31  C   UNL     1     -35.796  23.080  -0.381  0.00  0.00    +0.325 C 
BRANCH  31  32
ATOM     32  O   UNL     1     -36.103  22.322  -1.476  0.00  0.00    -0.448 OA
BRANCH  32  33
ATOM     33  C   UNL     1     -37.477  21.944  -1.599  0.00  0.00    +0.209 C 
ATOM     34  C   UNL     1     -37.554  20.488  -2.006  0.00  0.00    +0.051 C 
ENDBRANCH  32  33
ENDBRANCH  31  32
ENDBRANCH   1  31
TORSDOF 8
ENDMDL
MODEL 9
REMARK VINA RESULT:      -6.1      3.298      7.014
REMARK  Name = 54692989
REMARK  8 active torsions:
REMARK  status: ('A' for Active; 'I' for Inactive)
REMARK    1  A    between atoms: C_1  and  C_4
REMARK    2  A    between atoms: C_1  and  C_19
REMARK    3  A    between atoms: C_1  and  C_31
REMARK    4  A    between atoms: C_5  and  O_13
REMARK    5  A    between atoms: C_12  and  O_15
REMARK    6  A    between atoms: C_20  and  O_28
REMARK    7  A    between atoms: C_31  and  O_32
REMARK    8  A    between atoms: O_32  and  C_33
REMARK                            x       y       z     vdW  Elec       q    Type
REMARK                         _______ _______ _______ _____ _____    ______ ____
ROOT
ATOM      1  C   UNL     1     -36.651  22.676   3.287  0.00  0.00    +0.162 C 
ENDROOT
BRANCH   1   4
ATOM      2  O   UNL     1     -34.482  19.906   1.889  0.00  0.00    -0.421 OA
ATOM      3  O   UNL     1     -35.093  20.492   4.000  0.00  0.00    -0.245 OA
ATOM      4  C   UNL     1     -35.957  21.845   2.242  0.00  0.00    +0.102 A 
ATOM      5  C   UNL     1     -36.010  22.055   0.911  0.00  0.00    +0.140 A 
ATOM      6  C   UNL     1     -35.283  21.184  -0.015  0.00  0.00    +0.068 A 
ATOM      7  C   UNL     1     -35.158  20.713   2.794  0.00  0.00    +0.345 A 
ATOM      8  C   UNL     1     -34.538  20.131   0.503  0.00  0.00    +0.155 A 
ATOM      9  C   UNL     1     -35.297  21.353  -1.408  0.00  0.00    +0.009 C 
ATOM     10  C   UNL     1     -33.816  19.257  -0.311  0.00  0.00    +0.074 C 
ATOM     11  C   UNL     1     -34.579  20.486  -2.238  0.00  0.00    +0.037 C 
ATOM     12  C   UNL     1     -33.839  19.439  -1.690  0.00  0.00    +0.137 C 
BRANCH   5  13
ATOM     13  O   UNL     1     -36.723  23.067   0.306  0.00  0.00    -0.505 OA
ATOM     14  H   UNL     1     -37.550  23.332   0.658  0.00  0.00    +0.292 HD
ENDBRANCH   5  13
BRANCH  12  15
ATOM     15  O   UNL     1     -33.144  18.598  -2.502  0.00  0.00    -0.505 OA
ATOM     16  H   UNL     1     -33.046  18.798  -3.412  0.00  0.00    +0.292 HD
ENDBRANCH  12  15
ENDBRANCH   1   4
BRANCH   1  19
ATOM     17  O   UNL     1     -34.808  24.681   5.893  0.00  0.00    -0.421 OA
ATOM     18  O   UNL     1     -36.142  22.842   6.000  0.00  0.00    -0.245 OA
ATOM     19  C   UNL     1     -35.776  23.750   3.830  0.00  0.00    +0.102 A 
ATOM     20  C   UNL     1     -35.169  24.709   3.105  0.00  0.00    +0.140 A 
ATOM     21  C   UNL     1     -34.335  25.725   3.750  0.00  0.00    +0.068 A 
ATOM     22  C   UNL     1     -35.605  23.705   5.311  0.00  0.00    +0.345 A 
ATOM     23  C   UNL     1     -34.180  25.682   5.131  0.00  0.00    +0.152 A 
ATOM     24  C   UNL     1     -33.681  26.748   3.049  0.00  0.00    +0.006 C 
ATOM     25  C   UNL     1     -33.405  26.612   5.823  0.00  0.00    +0.038 C 
ATOM     26  C   UNL     1     -32.899  27.689   3.728  0.00  0.00    +0.000 C 
ATOM     27  C   UNL     1     -32.762  27.621   5.114  0.00  0.00    +0.003 C 
BRANCH  20  28
ATOM     28  O   UNL     1     -35.261  24.831   1.735  0.00  0.00    -0.505 OA
ATOM     29  H   UNL     1     -35.949  25.342   1.355  0.00  0.00    +0.292 HD
ENDBRANCH  20  28
ENDBRANCH   1  19
BRANCH   1  31
ATOM     30  O   UNL     1     -37.954  24.500   2.344  0.00  0.00    -0.249 OA
ATOM     31  C   UNL     1     -37.851  23.311   2.620  0.00  0.00    +0.325 C 
BRANCH  31  32
ATOM     32  O   UNL     1     -38.787  22.349   2.357  0.00  0.00    -0.448 OA
BRANCH  32  33
ATOM     33  C   UNL     1     -39.921  22.783   1.601  0.00  0.00    +0.209 C 
ATOM     34  C   UNL     1     -40.083  21.884   0.394  0.00  0.00    +0.051 C 
ENDBRANCH  32  33
ENDBRANCH  31  32
ENDBRANCH   1  31
TORSDOF 8
ENDMDL
