MODEL 1
REMARK VINA RESULT:      -5.8      0.000      0.000
REMARK  Name = 194168
REMARK  7 active torsions:
REMARK  status: ('A' for Active; 'I' for Inactive)
REMARK    1  A    between atoms: N_1  and  C1*_12
REMARK    2  A    between atoms: CA_8  and  C_23
REMARK    3  A    between atoms: C2*_13  and  O2*_16
REMARK    4  A    between atoms: C3*_14  and  O3*_18
REMARK    5  A    between atoms: C4*_15  and  C5*_20
REMARK    6  A    between atoms: C5*_20  and  O5*_21
REMARK    7  A    between atoms: C_23  and  O_24
REMARK                            x       y       z     vdW  Elec       q    Type
REMARK                         _______ _______ _______ _____ _____    ______ ____
ROOT
ATOM      1  N   UNL     1     -37.458  24.679   3.952  0.00  0.00    -0.211 NA
ATOM      2  N   UNL     1     -37.415  22.517   2.834  0.00  0.00    -0.260 NA
ATOM      3  N   UNL     1     -35.626  24.397   5.216  0.00  0.00    -0.253 NA
ATOM      4  N   UNL     1     -35.609  21.028   3.435  0.00  0.00    -0.253 NA
ATOM      5  C   UNL     1     -36.967  23.448   3.682  0.00  0.00    +0.162 C 
ATOM      6  C   UNL     1     -35.854  23.282   4.460  0.00  0.00    +0.101 C 
ATOM      7  C   UNL     1     -36.609  25.218   4.892  0.00  0.00    +0.204 C 
ATOM      8  CA  UNL     1     -35.051  22.027   4.410  0.00  0.00    +0.101 C 
ATOM      9  C   UNL     1     -36.678  21.347   2.774  0.00  0.00    +0.198 C 
ATOM     10  H   UNL     1     -38.220  22.656   2.284  0.00  0.00    +0.127 HD
ENDROOT
BRANCH   1  12
ATOM     11  O4* UNL     1     -39.709  24.367   3.268  0.00  0.00    -0.336 OA
ATOM     12  C1* UNL     1     -38.637  25.323   3.376  0.00  0.00    +0.209 C 
ATOM     13  C2* UNL     1     -38.420  25.876   1.976  0.00  0.00    +0.183 C 
ATOM     14  C3* UNL     1     -39.832  25.871   1.427  0.00  0.00    +0.171 C 
ATOM     15  C4* UNL     1     -40.408  24.589   2.022  0.00  0.00    +0.175 C 
BRANCH  13  16
ATOM     16  O2* UNL     1     -37.840  27.164   2.002  0.00  0.00    -0.378 OA
ATOM     17  H2* UNL     1     -37.239  27.232   2.760  0.00  0.00    +0.211 HD
ENDBRANCH  13  16
BRANCH  14  18
ATOM     18  O3* UNL     1     -40.551  26.986   1.954  0.00  0.00    -0.379 OA
ATOM     19  H3* UNL     1     -41.200  27.291   1.299  0.00  0.00    +0.211 HD
ENDBRANCH  14  18
BRANCH  15  20
ATOM     20  C5* UNL     1     -40.198  23.374   1.129  0.00  0.00    +0.169 C 
BRANCH  20  21
ATOM     21  O5* UNL     1     -40.203  22.211   1.938  0.00  0.00    -0.379 OA
ATOM     22  H5* UNL     1     -40.151  22.468   2.872  0.00  0.00    +0.211 HD
ENDBRANCH  20  21
ENDBRANCH  15  20
ENDBRANCH   1  12
BRANCH   8  23
ATOM     23  C   UNL     1     -34.970  21.347   5.773  0.00  0.00    +0.184 C 
BRANCH  23  24
ATOM     24  O   UNL     1     -36.084  21.754   6.546  0.00  0.00    -0.376 OA
ATOM     25  H   UNL     1     -36.002  21.397   7.445  0.00  0.00    +0.211 HD
ENDBRANCH  23  24
ENDBRANCH   8  23
TORSDOF 7
ENDMDL
MODEL 2
REMARK VINA RESULT:      -5.5      2.067      5.174
REMARK  Name = 194168
REMARK  7 active torsions:
REMARK  status: ('A' for Active; 'I' for Inactive)
REMARK    1  A    between atoms: N_1  and  C1*_12
REMARK    2  A    between atoms: CA_8  and  C_23
REMARK    3  A    between atoms: C2*_13  and  O2*_16
REMARK    4  A    between atoms: C3*_14  and  O3*_18
REMARK    5  A    between atoms: C4*_15  and  C5*_20
REMARK    6  A    between atoms: C5*_20  and  O5*_21
REMARK    7  A    between atoms: C_23  and  O_24
REMARK                            x       y       z     vdW  Elec       q    Type
REMARK                         _______ _______ _______ _____ _____    ______ ____
ROOT
ATOM      1  N   UNL     1     -37.552  24.116   3.327  0.00  0.00    -0.211 NA
ATOM      2  N   UNL     1     -37.231  22.038   2.100  0.00  0.00    -0.260 NA
ATOM      3  N   UNL     1     -39.732  24.397   2.870  0.00  0.00    -0.253 NA
ATOM      4  N   UNL     1     -39.170  21.144   0.967  0.00  0.00    -0.253 NA
ATOM      5  C   UNL     1     -37.940  23.079   2.549  0.00  0.00    +0.162 C 
ATOM      6  C   UNL     1     -39.266  23.260   2.272  0.00  0.00    +0.101 C 
ATOM      7  C   UNL     1     -38.677  24.892   3.495  0.00  0.00    +0.204 C 
ATOM      8  CA  UNL     1     -40.026  22.288   1.434  0.00  0.00    +0.101 C 
ATOM      9  C   UNL     1     -37.923  21.125   1.323  0.00  0.00    +0.198 C 
ATOM     10  H   UNL     1     -36.276  21.927   2.310  0.00  0.00    +0.127 HD
ENDROOT
BRANCH   1  12
ATOM     11  O4* UNL     1     -35.537  23.130   4.098  0.00  0.00    -0.336 OA
ATOM     12  C1* UNL     1     -36.228  24.376   3.886  0.00  0.00    +0.209 C 
ATOM     13  C2* UNL     1     -36.251  25.081   5.234  0.00  0.00    +0.183 C 
ATOM     14  C3* UNL     1     -34.922  24.651   5.822  0.00  0.00    +0.171 C 
ATOM     15  C4* UNL     1     -34.806  23.207   5.343  0.00  0.00    +0.175 C 
BRANCH  13  16
ATOM     16  O2* UNL     1     -36.367  26.481   5.093  0.00  0.00    -0.378 OA
ATOM     17  H2* UNL     1     -35.584  26.910   5.472  0.00  0.00    +0.211 HD
ENDBRANCH  13  16
BRANCH  14  18
ATOM     18  O3* UNL     1     -33.871  25.417   5.233  0.00  0.00    -0.379 OA
ATOM     19  H3* UNL     1     -34.071  25.574   4.297  0.00  0.00    +0.211 HD
ENDBRANCH  14  18
BRANCH  15  20
ATOM     20  C5* UNL     1     -35.412  22.208   6.319  0.00  0.00    +0.169 C 
BRANCH  20  21
ATOM     21  O5* UNL     1     -35.302  20.909   5.764  0.00  0.00    -0.379 OA
ATOM     22  H5* UNL     1     -36.009  20.774   5.113  0.00  0.00    +0.211 HD
ENDBRANCH  20  21
ENDBRANCH  15  20
ENDBRANCH   1  12
BRANCH   8  23
ATOM     23  C   UNL     1     -40.628  22.949   0.199  0.00  0.00    +0.184 C 
BRANCH  23  24
ATOM     24  O   UNL     1     -41.736  23.733   0.602  0.00  0.00    -0.376 OA
ATOM     25  H   UNL     1     -41.703  24.593   0.154  0.00  0.00    +0.211 HD
ENDBRANCH  23  24
ENDBRANCH   8  23
TORSDOF 7
ENDMDL
MODEL 3
REMARK VINA RESULT:      -5.4      3.239      5.531
REMARK  Name = 194168
REMARK  7 active torsions:
REMARK  status: ('A' for Active; 'I' for Inactive)
REMARK    1  A    between atoms: N_1  and  C1*_12
REMARK    2  A    between atoms: CA_8  and  C_23
REMARK    3  A    between atoms: C2*_13  and  O2*_16
REMARK    4  A    between atoms: C3*_14  and  O3*_18
REMARK    5  A    between atoms: C4*_15  and  C5*_20
REMARK    6  A    between atoms: C5*_20  and  O5*_21
REMARK    7  A    between atoms: C_23  and  O_24
REMARK                            x       y       z     vdW  Elec       q    Type
REMARK                         _______ _______ _______ _____ _____    ______ ____
ROOT
ATOM      1  N   UNL     1     -35.845  21.572   2.418  0.00  0.00    -0.211 NA
ATOM      2  N   UNL     1     -35.570  21.153   4.801  0.00  0.00    -0.260 NA
ATOM      3  N   UNL     1     -35.520  23.792   2.468  0.00  0.00    -0.253 NA
ATOM      4  N   UNL     1     -35.099  23.075   6.187  0.00  0.00    -0.253 NA
ATOM      5  C   UNL     1     -35.619  21.919   3.706  0.00  0.00    +0.162 C 
ATOM      6  C   UNL     1     -35.427  23.273   3.728  0.00  0.00    +0.101 C 
ATOM      7  C   UNL     1     -35.776  22.746   1.702  0.00  0.00    +0.204 C 
ATOM      8  CA  UNL     1     -35.143  23.997   5.000  0.00  0.00    +0.101 C 
ATOM      9  C   UNL     1     -35.304  21.810   5.989  0.00  0.00    +0.198 C 
ATOM     10  H   UNL     1     -35.714  20.179   4.763  0.00  0.00    +0.127 HD
ENDROOT
BRANCH   1  12
ATOM     11  O4* UNL     1     -34.863  19.613   1.511  0.00  0.00    -0.336 OA
ATOM     12  C1* UNL     1     -36.106  20.240   1.878  0.00  0.00    +0.209 C 
ATOM     13  C2* UNL     1     -36.967  20.237   0.623  0.00  0.00    +0.183 C 
ATOM     14  C3* UNL     1     -36.547  18.935  -0.029  0.00  0.00    +0.171 C 
ATOM     15  C4* UNL     1     -35.052  18.887   0.274  0.00  0.00    +0.175 C 
BRANCH  13  16
ATOM     16  O2* UNL     1     -38.345  20.283   0.931  0.00  0.00    -0.378 OA
ATOM     17  H2* UNL     1     -38.757  19.438   0.694  0.00  0.00    +0.211 HD
ENDBRANCH  13  16
BRANCH  14  18
ATOM     18  O3* UNL     1     -37.185  17.844   0.634  0.00  0.00    -0.379 OA
ATOM     19  H3* UNL     1     -38.142  18.004   0.674  0.00  0.00    +0.211 HD
ENDBRANCH  14  18
BRANCH  15  20
ATOM     20  C5* UNL     1     -34.207  19.549  -0.806  0.00  0.00    +0.169 C 
BRANCH  20  21
ATOM     21  O5* UNL     1     -33.304  20.448  -0.187  0.00  0.00    -0.379 OA
ATOM     22  H5* UNL     1     -33.801  21.165   0.236  0.00  0.00    +0.211 HD
ENDBRANCH  20  21
ENDBRANCH  15  20
ENDBRANCH   1  12
BRANCH   8  23
ATOM     23  C   UNL     1     -36.185  25.073   5.288  0.00  0.00    +0.184 C 
BRANCH  23  24
ATOM     24  O   UNL     1     -37.368  24.756   4.578  0.00  0.00    -0.376 OA
ATOM     25  H   UNL     1     -37.931  25.544   4.521  0.00  0.00    +0.211 HD
ENDBRANCH  23  24
ENDBRANCH   8  23
TORSDOF 7
ENDMDL
MODEL 4
REMARK VINA RESULT:      -5.3      1.983      2.962
REMARK  Name = 194168
REMARK  7 active torsions:
REMARK  status: ('A' for Active; 'I' for Inactive)
REMARK    1  A    between atoms: N_1  and  C1*_12
REMARK    2  A    between atoms: CA_8  and  C_23
REMARK    3  A    between atoms: C2*_13  and  O2*_16
REMARK    4  A    between atoms: C3*_14  and  O3*_18
REMARK    5  A    between atoms: C4*_15  and  C5*_20
REMARK    6  A    between atoms: C5*_20  and  O5*_21
REMARK    7  A    between atoms: C_23  and  O_24
REMARK                            x       y       z     vdW  Elec       q    Type
REMARK                         _______ _______ _______ _____ _____    ______ ____
ROOT
ATOM      1  N   UNL     1     -38.814  22.942   2.322  0.00  0.00    -0.211 NA
ATOM      2  N   UNL     1     -37.560  20.878   2.013  0.00  0.00    -0.260 NA
ATOM      3  N   UNL     1     -37.337  23.990   3.648  0.00  0.00    -0.253 NA
ATOM      4  N   UNL     1     -35.421  20.738   3.128  0.00  0.00    -0.253 NA
ATOM      5  C   UNL     1     -37.765  22.106   2.501  0.00  0.00    +0.162 C 
ATOM      6  C   UNL     1     -36.874  22.750   3.313  0.00  0.00    +0.101 C 
ATOM      7  C   UNL     1     -38.507  24.076   3.040  0.00  0.00    +0.204 C 
ATOM      8  CA  UNL     1     -35.587  22.112   3.714  0.00  0.00    +0.101 C 
ATOM      9  C   UNL     1     -36.369  20.274   2.373  0.00  0.00    +0.198 C 
ATOM     10  H   UNL     1     -38.217  20.431   1.431  0.00  0.00    +0.127 HD
ENDROOT
BRANCH   1  12
ATOM     11  O4* UNL     1     -40.174  21.305   1.273  0.00  0.00    -0.336 OA
ATOM     12  C1* UNL     1     -40.023  22.714   1.535  0.00  0.00    +0.209 C 
ATOM     13  C2* UNL     1     -40.017  23.397   0.176  0.00  0.00    +0.183 C 
ATOM     14  C3* UNL     1     -40.978  22.525  -0.606  0.00  0.00    +0.171 C 
ATOM     15  C4* UNL     1     -40.653  21.130  -0.080  0.00  0.00    +0.175 C 
BRANCH  13  16
ATOM     16  O2* UNL     1     -40.436  24.743   0.262  0.00  0.00    -0.378 OA
ATOM     17  H2* UNL     1     -41.166  24.815   0.896  0.00  0.00    +0.211 HD
ENDBRANCH  13  16
BRANCH  14  18
ATOM     18  O3* UNL     1     -42.320  22.851  -0.243  0.00  0.00    -0.379 OA
ATOM     19  H3* UNL     1     -42.710  22.112   0.248  0.00  0.00    +0.211 HD
ENDBRANCH  14  18
BRANCH  15  20
ATOM     20  C5* UNL     1     -39.567  20.430  -0.887  0.00  0.00    +0.169 C 
BRANCH  20  21
ATOM     21  O5* UNL     1     -38.955  19.450  -0.067  0.00  0.00    -0.379 OA
ATOM     22  H5* UNL     1     -39.377  19.450   0.806  0.00  0.00    +0.211 HD
ENDBRANCH  20  21
ENDBRANCH  15  20
ENDBRANCH   1  12
BRANCH   8  23
ATOM     23  C   UNL     1     -35.460  21.986   5.229  0.00  0.00    +0.184 C 
BRANCH  23  24
ATOM     24  O   UNL     1     -35.137  20.644   5.544  0.00  0.00    -0.376 OA
ATOM     25  H   UNL     1     -35.427  20.446   6.449  0.00  0.00    +0.211 HD
ENDBRANCH  23  24
ENDBRANCH   8  23
TORSDOF 7
ENDMDL
MODEL 5
REMARK VINA RESULT:      -5.3      3.841      5.559
REMARK  Name = 194168
REMARK  7 active torsions:
REMARK  status: ('A' for Active; 'I' for Inactive)
REMARK    1  A    between atoms: N_1  and  C1*_12
REMARK    2  A    between atoms: CA_8  and  C_23
REMARK    3  A    between atoms: C2*_13  and  O2*_16
REMARK    4  A    between atoms: C3*_14  and  O3*_18
REMARK    5  A    between atoms: C4*_15  and  C5*_20
REMARK    6  A    between atoms: C5*_20  and  O5*_21
REMARK    7  A    between atoms: C_23  and  O_24
REMARK                            x       y       z     vdW  Elec       q    Type
REMARK                         _______ _______ _______ _____ _____    ______ ____
ROOT
ATOM      1  N   UNL     1     -34.881  26.854   4.009  0.00  0.00    -0.211 NA
ATOM      2  N   UNL     1     -33.759  26.652   6.160  0.00  0.00    -0.260 NA
ATOM      3  N   UNL     1     -33.350  28.145   2.996  0.00  0.00    -0.253 NA
ATOM      4  N   UNL     1     -31.641  27.794   6.384  0.00  0.00    -0.253 NA
ATOM      5  C   UNL     1     -33.889  27.082   4.901  0.00  0.00    +0.162 C 
ATOM      6  C   UNL     1     -32.964  27.872   4.278  0.00  0.00    +0.101 C 
ATOM      7  C   UNL     1     -34.508  27.522   2.864  0.00  0.00    +0.204 C 
ATOM      8  CA  UNL     1     -31.723  28.315   4.976  0.00  0.00    +0.101 C 
ATOM      9  C   UNL     1     -32.611  27.052   6.821  0.00  0.00    +0.198 C 
ATOM     10  H   UNL     1     -34.439  26.085   6.591  0.00  0.00    +0.127 HD
ENDROOT
BRANCH   1  12
ATOM     11  O4* UNL     1     -35.762  24.785   4.764  0.00  0.00    -0.336 OA
ATOM     12  C1* UNL     1     -36.096  26.066   4.196  0.00  0.00    +0.209 C 
ATOM     13  C2* UNL     1     -36.850  25.772   2.907  0.00  0.00    +0.183 C 
ATOM     14  C3* UNL     1     -37.600  24.508   3.277  0.00  0.00    +0.171 C 
ATOM     15  C4* UNL     1     -36.585  23.770   4.144  0.00  0.00    +0.175 C 
BRANCH  13  16
ATOM     16  O2* UNL     1     -37.705  26.837   2.544  0.00  0.00    -0.378 OA
ATOM     17  H2* UNL     1     -38.629  26.560   2.650  0.00  0.00    +0.211 HD
ENDBRANCH  13  16
BRANCH  14  18
ATOM     18  O3* UNL     1     -38.732  24.844   4.079  0.00  0.00    -0.379 OA
ATOM     19  H3* UNL     1     -39.536  24.802   3.537  0.00  0.00    +0.211 HD
ENDBRANCH  14  18
BRANCH  15  20
ATOM     20  C5* UNL     1     -35.682  22.843   3.342  0.00  0.00    +0.169 C 
BRANCH  20  21
ATOM     21  O5* UNL     1     -36.207  21.529   3.408  0.00  0.00    -0.379 OA
ATOM     22  H5* UNL     1     -35.646  20.986   3.983  0.00  0.00    +0.211 HD
ENDBRANCH  20  21
ENDBRANCH  15  20
ENDBRANCH   1  12
BRANCH   8  23
ATOM     23  C   UNL     1     -31.616  29.835   5.039  0.00  0.00    +0.184 C 
BRANCH  23  24
ATOM     24  O   UNL     1     -32.919  30.383   4.963  0.00  0.00    -0.376 OA
ATOM     25  H   UNL     1     -33.002  31.111   5.599  0.00  0.00    +0.211 HD
ENDBRANCH  23  24
ENDBRANCH   8  23
TORSDOF 7
ENDMDL
MODEL 6
REMARK VINA RESULT:      -5.1      4.128      5.973
REMARK  Name = 194168
REMARK  7 active torsions:
REMARK  status: ('A' for Active; 'I' for Inactive)
REMARK    1  A    between atoms: N_1  and  C1*_12
REMARK    2  A    between atoms: CA_8  and  C_23
REMARK    3  A    between atoms: C2*_13  and  O2*_16
REMARK    4  A    between atoms: C3*_14  and  O3*_18
REMARK    5  A    between atoms: C4*_15  and  C5*_20
REMARK    6  A    between atoms: C5*_20  and  O5*_21
REMARK    7  A    between atoms: C_23  and  O_24
REMARK                            x       y       z     vdW  Elec       q    Type
REMARK                         _______ _______ _______ _____ _____    ______ ____
ROOT
ATOM      1  N   UNL     1     -34.333  25.989   4.831  0.00  0.00    -0.211 NA
ATOM      2  N   UNL     1     -33.884  27.190   2.761  0.00  0.00    -0.260 NA
ATOM      3  N   UNL     1     -32.913  27.124   6.147  0.00  0.00    -0.253 NA
ATOM      4  N   UNL     1     -32.251  28.968   2.878  0.00  0.00    -0.253 NA
ATOM      5  C   UNL     1     -33.724  26.920   4.061  0.00  0.00    +0.162 C 
ATOM      6  C   UNL     1     -32.858  27.603   4.869  0.00  0.00    +0.101 C 
ATOM      7  C   UNL     1     -33.806  26.151   6.092  0.00  0.00    +0.204 C 
ATOM      8  CA  UNL     1     -32.019  28.717   4.342  0.00  0.00    +0.101 C 
ATOM      9  C   UNL     1     -33.114  28.224   2.258  0.00  0.00    +0.198 C 
ATOM     10  H   UNL     1     -34.513  26.684   2.197  0.00  0.00    +0.127 HD
ENDROOT
BRANCH   1  12
ATOM     11  O4* UNL     1     -35.842  24.326   5.596  0.00  0.00    -0.336 OA
ATOM     12  C1* UNL     1     -35.342  25.011   4.431  0.00  0.00    +0.209 C 
ATOM     13  C2* UNL     1     -34.822  23.930   3.496  0.00  0.00    +0.183 C 
ATOM     14  C3* UNL     1     -35.795  22.800   3.769  0.00  0.00    +0.171 C 
ATOM     15  C4* UNL     1     -36.029  22.929   5.272  0.00  0.00    +0.175 C 
BRANCH  13  16
ATOM     16  O2* UNL     1     -34.830  24.352   2.148  0.00  0.00    -0.378 OA
ATOM     17  H2* UNL     1     -34.530  25.273   2.096  0.00  0.00    +0.211 HD
ENDBRANCH  13  16
BRANCH  14  18
ATOM     18  O3* UNL     1     -37.024  23.055   3.089  0.00  0.00    -0.379 OA
ATOM     19  H3* UNL     1     -37.290  23.976   3.238  0.00  0.00    +0.211 HD
ENDBRANCH  14  18
BRANCH  15  20
ATOM     20  C5* UNL     1     -35.047  22.108   6.097  0.00  0.00    +0.169 C 
BRANCH  20  21
ATOM     21  O5* UNL     1     -35.269  20.735   5.830  0.00  0.00    -0.379 OA
ATOM     22  H5* UNL     1     -34.541  20.389   5.290  0.00  0.00    +0.211 HD
ENDBRANCH  20  21
ENDBRANCH  15  20
ENDBRANCH   1  12
BRANCH   8  23
ATOM     23  C   UNL     1     -30.530  28.449   4.534  0.00  0.00    +0.184 C 
BRANCH  23  24
ATOM     24  O   UNL     1     -30.305  28.100   5.888  0.00  0.00    -0.376 OA
ATOM     25  H   UNL     1     -29.352  28.109   6.070  0.00  0.00    +0.211 HD
ENDBRANCH  23  24
ENDBRANCH   8  23
TORSDOF 7
ENDMDL
MODEL 7
REMARK VINA RESULT:      -5.1      5.058      6.685
REMARK  Name = 194168
REMARK  7 active torsions:
REMARK  status: ('A' for Active; 'I' for Inactive)
REMARK    1  A    between atoms: N_1  and  C1*_12
REMARK    2  A    between atoms: CA_8  and  C_23
REMARK    3  A    between atoms: C2*_13  and  O2*_16
REMARK    4  A    between atoms: C3*_14  and  O3*_18
REMARK    5  A    between atoms: C4*_15  and  C5*_20
REMARK    6  A    between atoms: C5*_20  and  O5*_21
REMARK    7  A    between atoms: C_23  and  O_24
REMARK                            x       y       z     vdW  Elec       q    Type
REMARK                         _______ _______ _______ _____ _____    ______ ____
ROOT
ATOM      1  N   UNL     1     -33.334  26.756   5.561  0.00  0.00    -0.211 NA
ATOM      2  N   UNL     1     -32.900  27.701   3.360  0.00  0.00    -0.260 NA
ATOM      3  N   UNL     1     -32.008  28.129   6.741  0.00  0.00    -0.253 NA
ATOM      4  N   UNL     1     -31.367  29.566   3.270  0.00  0.00    -0.253 NA
ATOM      5  C   UNL     1     -32.757  27.611   4.686  0.00  0.00    +0.162 C 
ATOM      6  C   UNL     1     -31.948  28.440   5.412  0.00  0.00    +0.101 C 
ATOM      7  C   UNL     1     -32.847  27.109   6.799  0.00  0.00    +0.204 C 
ATOM      8  CA  UNL     1     -31.156  29.522   4.759  0.00  0.00    +0.101 C 
ATOM      9  C   UNL     1     -32.174  28.701   2.739  0.00  0.00    +0.198 C 
ATOM     10  H   UNL     1     -33.487  27.092   2.856  0.00  0.00    +0.127 HD
ENDROOT
BRANCH   1  12
ATOM     11  O4* UNL     1     -33.704  24.765   4.325  0.00  0.00    -0.336 OA
ATOM     12  C1* UNL     1     -34.280  25.679   5.277  0.00  0.00    +0.209 C 
ATOM     13  C2* UNL     1     -35.592  26.151   4.667  0.00  0.00    +0.183 C 
ATOM     14  C3* UNL     1     -36.046  24.909   3.928  0.00  0.00    +0.171 C 
ATOM     15  C4* UNL     1     -34.730  24.348   3.396  0.00  0.00    +0.175 C 
BRANCH  13  16
ATOM     16  O2* UNL     1     -36.509  26.573   5.655  0.00  0.00    -0.378 OA
ATOM     17  H2* UNL     1     -36.769  25.815   6.200  0.00  0.00    +0.211 HD
ENDBRANCH  13  16
BRANCH  14  18
ATOM     18  O3* UNL     1     -36.601  23.978   4.857  0.00  0.00    -0.379 OA
ATOM     19  H3* UNL     1     -37.001  24.460   5.598  0.00  0.00    +0.211 HD
ENDBRANCH  14  18
BRANCH  15  20
ATOM     20  C5* UNL     1     -34.374  24.881   2.015  0.00  0.00    +0.169 C 
BRANCH  20  21
ATOM     21  O5* UNL     1     -33.004  25.242   2.008  0.00  0.00    -0.379 OA
ATOM     22  H5* UNL     1     -32.807  25.747   1.204  0.00  0.00    +0.211 HD
ENDBRANCH  20  21
ENDBRANCH  15  20
ENDBRANCH   1  12
BRANCH   8  23
ATOM     23  C   UNL     1     -29.660  29.364   5.009  0.00  0.00    +0.184 C 
BRANCH  23  24
ATOM     24  O   UNL     1     -29.388  27.999   5.268  0.00  0.00    -0.376 OA
ATOM     25  H   UNL     1     -29.895  27.445   4.654  0.00  0.00    +0.211 HD
ENDBRANCH  23  24
ENDBRANCH   8  23
TORSDOF 7
ENDMDL
MODEL 8
REMARK VINA RESULT:      -5.1      3.702      4.749
REMARK  Name = 194168
REMARK  7 active torsions:
REMARK  status: ('A' for Active; 'I' for Inactive)
REMARK    1  A    between atoms: N_1  and  C1*_12
REMARK    2  A    between atoms: CA_8  and  C_23
REMARK    3  A    between atoms: C2*_13  and  O2*_16
REMARK    4  A    between atoms: C3*_14  and  O3*_18
REMARK    5  A    between atoms: C4*_15  and  C5*_20
REMARK    6  A    between atoms: C5*_20  and  O5*_21
REMARK    7  A    between atoms: C_23  and  O_24
REMARK                            x       y       z     vdW  Elec       q    Type
REMARK                         _______ _______ _______ _____ _____    ______ ____
ROOT
ATOM      1  N   UNL     1     -35.416  26.119   3.706  0.00  0.00    -0.211 NA
ATOM      2  N   UNL     1     -34.920  28.466   3.291  0.00  0.00    -0.260 NA
ATOM      3  N   UNL     1     -33.300  25.393   3.876  0.00  0.00    -0.253 NA
ATOM      4  N   UNL     1     -32.583  29.078   3.222  0.00  0.00    -0.253 NA
ATOM      5  C   UNL     1     -34.606  27.187   3.523  0.00  0.00    +0.162 C 
ATOM      6  C   UNL     1     -33.320  26.735   3.623  0.00  0.00    +0.101 C 
ATOM      7  C   UNL     1     -34.575  25.050   3.918  0.00  0.00    +0.204 C 
ATOM      8  CA  UNL     1     -32.158  27.659   3.478  0.00  0.00    +0.101 C 
ATOM      9  C   UNL     1     -33.853  29.337   3.157  0.00  0.00    +0.198 C 
ATOM     10  H   UNL     1     -35.854  28.770   3.221  0.00  0.00    +0.127 HD
ENDROOT
BRANCH   1  12
ATOM     11  O4* UNL     1     -37.338  24.827   4.222  0.00  0.00    -0.336 OA
ATOM     12  C1* UNL     1     -36.877  26.084   3.693  0.00  0.00    +0.209 C 
ATOM     13  C2* UNL     1     -37.488  26.207   2.305  0.00  0.00    +0.183 C 
ATOM     14  C3* UNL     1     -38.827  25.527   2.502  0.00  0.00    +0.171 C 
ATOM     15  C4* UNL     1     -38.473  24.380   3.446  0.00  0.00    +0.175 C 
BRANCH  13  16
ATOM     16  O2* UNL     1     -37.606  27.555   1.900  0.00  0.00    -0.378 OA
ATOM     17  H2* UNL     1     -37.442  28.137   2.658  0.00  0.00    +0.211 HD
ENDBRANCH  13  16
BRANCH  14  18
ATOM     18  O3* UNL     1     -39.719  26.416   3.174  0.00  0.00    -0.379 OA
ATOM     19  H3* UNL     1     -39.857  26.109   4.084  0.00  0.00    +0.211 HD
ENDBRANCH  14  18
BRANCH  15  20
ATOM     20  C5* UNL     1     -38.082  23.106   2.710  0.00  0.00    +0.169 C 
BRANCH  20  21
ATOM     21  O5* UNL     1     -37.170  22.380   3.516  0.00  0.00    -0.379 OA
ATOM     22  H5* UNL     1     -36.845  22.950   4.230  0.00  0.00    +0.211 HD
ENDBRANCH  20  21
ENDBRANCH  15  20
ENDBRANCH   1  12
BRANCH   8  23
ATOM     23  C   UNL     1     -31.236  27.240   2.338  0.00  0.00    +0.184 C 
BRANCH  23  24
ATOM     24  O   UNL     1     -30.668  25.983   2.656  0.00  0.00    -0.376 OA
ATOM     25  H   UNL     1     -30.925  25.332   1.984  0.00  0.00    +0.211 HD
ENDBRANCH  23  24
ENDBRANCH   8  23
TORSDOF 7
ENDMDL
MODEL 9
REMARK VINA RESULT:      -5.0      2.989      5.266
REMARK  Name = 194168
REMARK  7 active torsions:
REMARK  status: ('A' for Active; 'I' for Inactive)
REMARK    1  A    between atoms: N_1  and  C1*_12
REMARK    2  A    between atoms: CA_8  and  C_23
REMARK    3  A    between atoms: C2*_13  and  O2*_16
REMARK    4  A    between atoms: C3*_14  and  O3*_18
REMARK    5  A    between atoms: C4*_15  and  C5*_20
REMARK    6  A    between atoms: C5*_20  and  O5*_21
REMARK    7  A    between atoms: C_23  and  O_24
REMARK                            x       y       z     vdW  Elec       q    Type
REMARK                         _______ _______ _______ _____ _____    ______ ____
ROOT
ATOM      1  N   UNL     1     -35.705  21.743   4.162  0.00  0.00    -0.211 NA
ATOM      2  N   UNL     1     -36.624  23.684   3.015  0.00  0.00    -0.260 NA
ATOM      3  N   UNL     1     -35.070  22.783   6.046  0.00  0.00    -0.253 NA
ATOM      4  N   UNL     1     -36.522  25.786   4.203  0.00  0.00    -0.253 NA
ATOM      5  C   UNL     1     -36.029  23.050   4.031  0.00  0.00    +0.162 C 
ATOM      6  C   UNL     1     -35.635  23.676   5.181  0.00  0.00    +0.101 C 
ATOM      7  C   UNL     1     -35.123  21.629   5.405  0.00  0.00    +0.204 C 
ATOM      8  CA  UNL     1     -35.848  25.139   5.381  0.00  0.00    +0.101 C 
ATOM      9  C   UNL     1     -36.832  25.041   3.187  0.00  0.00    +0.198 C 
ATOM     10  H   UNL     1     -36.898  23.213   2.195  0.00  0.00    +0.127 HD
ENDROOT
BRANCH   1  12
ATOM     11  O4* UNL     1     -34.652  20.185   2.714  0.00  0.00    -0.336 OA
ATOM     12  C1* UNL     1     -35.921  20.661   3.203  0.00  0.00    +0.209 C 
ATOM     13  C2* UNL     1     -36.719  21.071   1.975  0.00  0.00    +0.183 C 
ATOM     14  C3* UNL     1     -36.251  20.053   0.955  0.00  0.00    +0.171 C 
ATOM     15  C4* UNL     1     -34.771  19.905   1.301  0.00  0.00    +0.175 C 
BRANCH  13  16
ATOM     16  O2* UNL     1     -38.111  21.018   2.211  0.00  0.00    -0.378 OA
ATOM     17  H2* UNL     1     -38.275  20.931   3.162  0.00  0.00    +0.211 HD
ENDBRANCH  13  16
BRANCH  14  18
ATOM     18  O3* UNL     1     -36.905  18.807   1.192  0.00  0.00    -0.379 OA
ATOM     19  H3* UNL     1     -37.260  18.465   0.356  0.00  0.00    +0.211 HD
ENDBRANCH  14  18
BRANCH  15  20
ATOM     20  C5* UNL     1     -33.884  20.880   0.540  0.00  0.00    +0.169 C 
BRANCH  20  21
ATOM     21  O5* UNL     1     -32.572  20.348   0.482  0.00  0.00    -0.379 OA
ATOM     22  H5* UNL     1     -32.618  19.383   0.397  0.00  0.00    +0.211 HD
ENDBRANCH  20  21
ENDBRANCH  15  20
ENDBRANCH   1  12
BRANCH   8  23
ATOM     23  C   UNL     1     -34.537  25.878   5.626  0.00  0.00    +0.184 C 
BRANCH  23  24
ATOM     24  O   UNL     1     -33.517  25.250   4.870  0.00  0.00    -0.376 OA
ATOM     25  H   UNL     1     -33.668  24.291   4.857  0.00  0.00    +0.211 HD
ENDBRANCH  23  24
ENDBRANCH   8  23
TORSDOF 7
ENDMDL
