MODEL 1
REMARK VINA RESULT:      -7.5      0.000      0.000
REMARK  Name = 5315125
REMARK  7 active torsions:
REMARK  status: ('A' for Active; 'I' for Inactive)
REMARK    1  A    between atoms: C_1  and  C_26
REMARK    2  A    between atoms: C_2  and  C_9
REMARK    3  A    between atoms: C_4  and  O_22
REMARK    4  A    between atoms: C_6  and  O_24
REMARK    5  A    between atoms: C_14  and  O_18
REMARK    6  A    between atoms: C_16  and  O_20
REMARK    7  A    between atoms: C_26  and  C_27
REMARK                            x       y       z     vdW  Elec       q    Type
REMARK                         _______ _______ _______ _____ _____    ______ ____
ROOT
ATOM      1  C   UNL     1     -35.169  22.477   2.432  0.00  0.00    +0.019 C 
ATOM      2  C   UNL     1     -34.543  24.437   3.705  0.00  0.00    +0.038 C 
ATOM      3  C   UNL     1     -34.643  23.768   2.483  0.00  0.00    +0.002 C 
ATOM      4  C   UNL     1     -35.593  21.850   3.604  0.00  0.00    +0.164 C 
ATOM      5  C   UNL     1     -34.969  23.807   4.877  0.00  0.00    +0.043 C 
ATOM      6  C   UNL     1     -35.494  22.515   4.825  0.00  0.00    +0.167 C 
ENDROOT
BRANCH   2   9
ATOM      7  O   UNL     1     -33.471  26.153   4.999  0.00  0.00    -0.453 OA
ATOM      8  O   UNL     1     -33.371  28.724   1.840  0.00  0.00    -0.286 OA
ATOM      9  C   UNL     1     -33.987  25.804   3.761  0.00  0.00    +0.148 C 
ATOM     10  C   UNL     1     -32.860  28.331   4.114  0.00  0.00    +0.107 C 
ATOM     11  C   UNL     1     -32.925  27.403   5.151  0.00  0.00    +0.154 C 
ATOM     12  C   UNL     1     -33.977  26.607   2.684  0.00  0.00    +0.080 C 
ATOM     13  C   UNL     1     -33.397  27.961   2.796  0.00  0.00    +0.205 C 
ATOM     14  C   UNL     1     -32.293  29.589   4.326  0.00  0.00    +0.143 C 
ATOM     15  C   UNL     1     -32.421  27.728   6.410  0.00  0.00    +0.074 C 
ATOM     16  C   UNL     1     -31.853  28.984   6.627  0.00  0.00    +0.140 C 
ATOM     17  C   UNL     1     -31.789  29.912   5.587  0.00  0.00    +0.073 C 
BRANCH  14  18
ATOM     18  O   UNL     1     -32.205  30.529   3.345  0.00  0.00    -0.505 OA
ATOM     19  H   UNL     1     -32.979  30.953   3.031  0.00  0.00    +0.292 HD
ENDBRANCH  14  18
BRANCH  16  20
ATOM     20  O   UNL     1     -31.359  29.304   7.855  0.00  0.00    -0.505 OA
ATOM     21  H   UNL     1     -30.804  30.052   7.955  0.00  0.00    +0.292 HD
ENDBRANCH  16  20
ENDBRANCH   2   9
BRANCH   4  22
ATOM     22  O   UNL     1     -36.107  20.587   3.559  0.00  0.00    -0.503 OA
ATOM     23  H   UNL     1     -35.648  19.912   3.099  0.00  0.00    +0.292 HD
ENDBRANCH   4  22
BRANCH   6  24
ATOM     24  O   UNL     1     -35.904  21.915   5.978  0.00  0.00    -0.503 OA
ATOM     25  H   UNL     1     -36.138  22.438   6.720  0.00  0.00    +0.292 HD
ENDBRANCH   6  24
BRANCH   1  26
ATOM     26  C   UNL     1     -35.269  21.781   1.115  0.00  0.00    +0.055 C 
BRANCH  26  27
ATOM     27  C   UNL     1     -33.922  21.498   0.498  0.00  0.00    -0.030 C 
ATOM     28  C   UNL     1     -33.180  20.378   0.601  0.00  0.00    -0.048 C 
ATOM     29  C   UNL     1     -31.840  20.163  -0.043  0.00  0.00    +0.026 C 
ATOM     30  C   UNL     1     -33.669  19.213   1.420  0.00  0.00    +0.026 C 
ENDBRANCH  26  27
ENDBRANCH   1  26
TORSDOF 7
ENDMDL
MODEL 2
REMARK VINA RESULT:      -6.8      3.362      5.819
REMARK  Name = 5315125
REMARK  7 active torsions:
REMARK  status: ('A' for Active; 'I' for Inactive)
REMARK    1  A    between atoms: C_1  and  C_26
REMARK    2  A    between atoms: C_2  and  C_9
REMARK    3  A    between atoms: C_4  and  O_22
REMARK    4  A    between atoms: C_6  and  O_24
REMARK    5  A    between atoms: C_14  and  O_18
REMARK    6  A    between atoms: C_16  and  O_20
REMARK    7  A    between atoms: C_26  and  C_27
REMARK                            x       y       z     vdW  Elec       q    Type
REMARK                         _______ _______ _______ _____ _____    ______ ____
ROOT
ATOM      1  C   UNL     1     -33.679  18.573   0.994  0.00  0.00    +0.019 C 
ATOM      2  C   UNL     1     -35.535  20.082   1.363  0.00  0.00    +0.038 C 
ATOM      3  C   UNL     1     -34.224  19.684   1.638  0.00  0.00    +0.002 C 
ATOM      4  C   UNL     1     -34.443  17.856   0.074  0.00  0.00    +0.164 C 
ATOM      5  C   UNL     1     -36.298  19.361   0.440  0.00  0.00    +0.043 C 
ATOM      6  C   UNL     1     -35.752  18.250  -0.204  0.00  0.00    +0.167 C 
ENDROOT
BRANCH   2   9
ATOM      7  O   UNL     1     -35.205  21.966   2.814  0.00  0.00    -0.453 OA
ATOM      8  O   UNL     1     -39.097  23.129   2.484  0.00  0.00    -0.286 OA
ATOM      9  C   UNL     1     -36.114  21.257   2.044  0.00  0.00    +0.148 C 
ATOM     10  C   UNL     1     -36.962  23.532   3.416  0.00  0.00    +0.107 C 
ATOM     11  C   UNL     1     -35.646  23.080   3.484  0.00  0.00    +0.154 C 
ATOM     12  C   UNL     1     -37.406  21.595   1.894  0.00  0.00    +0.080 C 
ATOM     13  C   UNL     1     -37.927  22.788   2.592  0.00  0.00    +0.205 C 
ATOM     14  C   UNL     1     -37.354  24.673   4.118  0.00  0.00    +0.143 C 
ATOM     15  C   UNL     1     -34.711  23.769   4.256  0.00  0.00    +0.074 C 
ATOM     16  C   UNL     1     -35.098  24.910   4.960  0.00  0.00    +0.140 C 
ATOM     17  C   UNL     1     -36.417  25.361   4.891  0.00  0.00    +0.073 C 
BRANCH  14  18
ATOM     18  O   UNL     1     -38.628  25.156   4.083  0.00  0.00    -0.505 OA
ATOM     19  H   UNL     1     -38.999  25.440   3.272  0.00  0.00    +0.292 HD
ENDBRANCH  14  18
BRANCH  16  20
ATOM     20  O   UNL     1     -34.188  25.585   5.714  0.00  0.00    -0.505 OA
ATOM     21  H   UNL     1     -33.312  25.262   5.791  0.00  0.00    +0.292 HD
ENDBRANCH  16  20
ENDBRANCH   2   9
BRANCH   4  22
ATOM     22  O   UNL     1     -33.914  16.769  -0.558  0.00  0.00    -0.503 OA
ATOM     23  H   UNL     1     -32.991  16.724  -0.716  0.00  0.00    +0.292 HD
ENDBRANCH   4  22
BRANCH   6  24
ATOM     24  O   UNL     1     -36.510  17.558  -1.100  0.00  0.00    -0.503 OA
ATOM     25  H   UNL     1     -37.136  18.011  -1.631  0.00  0.00    +0.292 HD
ENDBRANCH   6  24
BRANCH   1  26
ATOM     26  C   UNL     1     -32.275  18.167   1.302  0.00  0.00    +0.055 C 
BRANCH  26  27
ATOM     27  C   UNL     1     -31.255  18.909   0.474  0.00  0.00    -0.030 C 
ATOM     28  C   UNL     1     -29.943  18.638   0.337  0.00  0.00    -0.048 C 
ATOM     29  C   UNL     1     -28.980  19.423  -0.508  0.00  0.00    +0.026 C 
ATOM     30  C   UNL     1     -29.324  17.477   1.067  0.00  0.00    +0.026 C 
ENDBRANCH  26  27
ENDBRANCH   1  26
TORSDOF 7
ENDMDL
MODEL 3
REMARK VINA RESULT:      -6.7      2.773      8.537
REMARK  Name = 5315125
REMARK  7 active torsions:
REMARK  status: ('A' for Active; 'I' for Inactive)
REMARK    1  A    between atoms: C_1  and  C_26
REMARK    2  A    between atoms: C_2  and  C_9
REMARK    3  A    between atoms: C_4  and  O_22
REMARK    4  A    between atoms: C_6  and  O_24
REMARK    5  A    between atoms: C_14  and  O_18
REMARK    6  A    between atoms: C_16  and  O_20
REMARK    7  A    between atoms: C_26  and  C_27
REMARK                            x       y       z     vdW  Elec       q    Type
REMARK                         _______ _______ _______ _____ _____    ______ ____
ROOT
ATOM      1  C   UNL     1     -35.508  24.419   4.415  0.00  0.00    +0.019 C 
ATOM      2  C   UNL     1     -36.429  22.821   2.847  0.00  0.00    +0.038 C 
ATOM      3  C   UNL     1     -35.359  23.284   3.617  0.00  0.00    +0.002 C 
ATOM      4  C   UNL     1     -36.728  25.095   4.444  0.00  0.00    +0.164 C 
ATOM      5  C   UNL     1     -37.649  23.501   2.879  0.00  0.00    +0.043 C 
ATOM      6  C   UNL     1     -37.798  24.636   3.677  0.00  0.00    +0.167 C 
ENDROOT
BRANCH   2   9
ATOM      7  O   UNL     1     -35.067  20.958   2.182  0.00  0.00    -0.453 OA
ATOM      8  O   UNL     1     -37.883  19.605  -0.435  0.00  0.00    -0.286 OA
ATOM      9  C   UNL     1     -36.272  21.621   2.002  0.00  0.00    +0.148 C 
ATOM     10  C   UNL     1     -35.747  19.310   0.532  0.00  0.00    +0.107 C 
ATOM     11  C   UNL     1     -34.829  19.826   1.445  0.00  0.00    +0.154 C 
ATOM     12  C   UNL     1     -37.238  21.219   1.159  0.00  0.00    +0.080 C 
ATOM     13  C   UNL     1     -37.030  20.004   0.346  0.00  0.00    +0.205 C 
ATOM     14  C   UNL     1     -35.450  18.152  -0.190  0.00  0.00    +0.143 C 
ATOM     15  C   UNL     1     -33.606  19.185   1.642  0.00  0.00    +0.074 C 
ATOM     16  C   UNL     1     -33.305  18.028   0.922  0.00  0.00    +0.140 C 
ATOM     17  C   UNL     1     -34.225  17.513   0.008  0.00  0.00    +0.073 C 
BRANCH  14  18
ATOM     18  O   UNL     1     -36.314  17.608  -1.092  0.00  0.00    -0.505 OA
ATOM     19  H   UNL     1     -36.825  18.164  -1.645  0.00  0.00    +0.292 HD
ENDBRANCH  14  18
BRANCH  16  20
ATOM     20  O   UNL     1     -32.112  17.400   1.112  0.00  0.00    -0.505 OA
ATOM     21  H   UNL     1     -32.084  16.469   1.212  0.00  0.00    +0.292 HD
ENDBRANCH  16  20
ENDBRANCH   2   9
BRANCH   4  22
ATOM     22  O   UNL     1     -36.878  26.205   5.222  0.00  0.00    -0.503 OA
ATOM     23  H   UNL     1     -36.614  27.043   4.897  0.00  0.00    +0.292 HD
ENDBRANCH   4  22
BRANCH   6  24
ATOM     24  O   UNL     1     -38.995  25.287   3.695  0.00  0.00    -0.503 OA
ATOM     25  H   UNL     1     -39.650  25.079   3.058  0.00  0.00    +0.292 HD
ENDBRANCH   6  24
BRANCH   1  26
ATOM     26  C   UNL     1     -34.352  24.895   5.231  0.00  0.00    +0.055 C 
BRANCH  26  27
ATOM     27  C   UNL     1     -33.700  26.129   4.660  0.00  0.00    -0.030 C 
ATOM     28  C   UNL     1     -33.035  27.097   5.320  0.00  0.00    -0.048 C 
ATOM     29  C   UNL     1     -32.408  28.306   4.684  0.00  0.00    +0.026 C 
ATOM     30  C   UNL     1     -32.876  27.029   6.815  0.00  0.00    +0.026 C 
ENDBRANCH  26  27
ENDBRANCH   1  26
TORSDOF 7
ENDMDL
MODEL 4
REMARK VINA RESULT:      -6.6      1.074      2.451
REMARK  Name = 5315125
REMARK  7 active torsions:
REMARK  status: ('A' for Active; 'I' for Inactive)
REMARK    1  A    between atoms: C_1  and  C_26
REMARK    2  A    between atoms: C_2  and  C_9
REMARK    3  A    between atoms: C_4  and  O_22
REMARK    4  A    between atoms: C_6  and  O_24
REMARK    5  A    between atoms: C_14  and  O_18
REMARK    6  A    between atoms: C_16  and  O_20
REMARK    7  A    between atoms: C_26  and  C_27
REMARK                            x       y       z     vdW  Elec       q    Type
REMARK                         _______ _______ _______ _____ _____    ______ ____
ROOT
ATOM      1  C   UNL     1     -35.207  22.688   2.634  0.00  0.00    +0.019 C 
ATOM      2  C   UNL     1     -34.486  24.475   4.098  0.00  0.00    +0.038 C 
ATOM      3  C   UNL     1     -34.616  23.939   2.814  0.00  0.00    +0.002 C 
ATOM      4  C   UNL     1     -35.669  21.970   3.736  0.00  0.00    +0.164 C 
ATOM      5  C   UNL     1     -34.950  23.752   5.200  0.00  0.00    +0.043 C 
ATOM      6  C   UNL     1     -35.541  22.502   5.019  0.00  0.00    +0.167 C 
ENDROOT
BRANCH   2   9
ATOM      7  O   UNL     1     -33.720  26.531   3.123  0.00  0.00    -0.453 OA
ATOM      8  O   UNL     1     -32.522  28.004   6.728  0.00  0.00    -0.286 OA
ATOM      9  C   UNL     1     -33.860  25.798   4.291  0.00  0.00    +0.148 C 
ATOM     10  C   UNL     1     -32.721  28.342   4.397  0.00  0.00    +0.107 C 
ATOM     11  C   UNL     1     -33.153  27.779   3.198  0.00  0.00    +0.154 C 
ATOM     12  C   UNL     1     -33.489  26.234   5.506  0.00  0.00    +0.080 C 
ATOM     13  C   UNL     1     -32.877  27.571   5.640  0.00  0.00    +0.205 C 
ATOM     14  C   UNL     1     -32.152  29.617   4.414  0.00  0.00    +0.143 C 
ATOM     15  C   UNL     1     -33.020  28.490   2.006  0.00  0.00    +0.074 C 
ATOM     16  C   UNL     1     -32.451  29.764   2.018  0.00  0.00    +0.140 C 
ATOM     17  C   UNL     1     -32.018  30.326   3.220  0.00  0.00    +0.073 C 
BRANCH  14  18
ATOM     18  O   UNL     1     -31.715  30.211   5.560  0.00  0.00    -0.505 OA
ATOM     19  H   UNL     1     -30.866  30.007   5.899  0.00  0.00    +0.292 HD
ENDBRANCH  14  18
BRANCH  16  20
ATOM     20  O   UNL     1     -32.320  30.461   0.856  0.00  0.00    -0.505 OA
ATOM     21  H   UNL     1     -33.075  30.644   0.331  0.00  0.00    +0.292 HD
ENDBRANCH  16  20
ENDBRANCH   2   9
BRANCH   4  22
ATOM     22  O   UNL     1     -36.248  20.747   3.564  0.00  0.00    -0.503 OA
ATOM     23  H   UNL     1     -36.420  20.428   2.699  0.00  0.00    +0.292 HD
ENDBRANCH   4  22
BRANCH   6  24
ATOM     24  O   UNL     1     -35.988  21.810   6.105  0.00  0.00    -0.503 OA
ATOM     25  H   UNL     1     -35.814  20.892   6.179  0.00  0.00    +0.292 HD
ENDBRANCH   6  24
BRANCH   1  26
ATOM     26  C   UNL     1     -35.337  22.135   1.253  0.00  0.00    +0.055 C 
BRANCH  26  27
ATOM     27  C   UNL     1     -34.007  21.787   0.633  0.00  0.00    -0.030 C 
ATOM     28  C   UNL     1     -33.363  20.604   0.658  0.00  0.00    -0.048 C 
ATOM     29  C   UNL     1     -32.033  20.326   0.017  0.00  0.00    +0.026 C 
ATOM     30  C   UNL     1     -33.965  19.426   1.377  0.00  0.00    +0.026 C 
ENDBRANCH  26  27
ENDBRANCH   1  26
TORSDOF 7
ENDMDL
MODEL 5
REMARK VINA RESULT:      -6.6      1.828      3.131
REMARK  Name = 5315125
REMARK  7 active torsions:
REMARK  status: ('A' for Active; 'I' for Inactive)
REMARK    1  A    between atoms: C_1  and  C_26
REMARK    2  A    between atoms: C_2  and  C_9
REMARK    3  A    between atoms: C_4  and  O_22
REMARK    4  A    between atoms: C_6  and  O_24
REMARK    5  A    between atoms: C_14  and  O_18
REMARK    6  A    between atoms: C_16  and  O_20
REMARK    7  A    between atoms: C_26  and  C_27
REMARK                            x       y       z     vdW  Elec       q    Type
REMARK                         _______ _______ _______ _____ _____    ______ ____
ROOT
ATOM      1  C   UNL     1     -35.258  22.227   2.162  0.00  0.00    +0.019 C 
ATOM      2  C   UNL     1     -35.090  24.344   3.323  0.00  0.00    +0.038 C 
ATOM      3  C   UNL     1     -35.010  23.600   2.143  0.00  0.00    +0.002 C 
ATOM      4  C   UNL     1     -35.586  21.595   3.360  0.00  0.00    +0.164 C 
ATOM      5  C   UNL     1     -35.419  23.707   4.522  0.00  0.00    +0.043 C 
ATOM      6  C   UNL     1     -35.667  22.334   4.540  0.00  0.00    +0.167 C 
ENDROOT
BRANCH   2   9
ATOM      7  O   UNL     1     -35.635  26.505   2.429  0.00  0.00    -0.453 OA
ATOM      8  O   UNL     1     -32.842  28.365   4.740  0.00  0.00    -0.286 OA
ATOM      9  C   UNL     1     -34.827  25.797   3.304  0.00  0.00    +0.148 C 
ATOM     10  C   UNL     1     -34.535  28.563   3.103  0.00  0.00    +0.107 C 
ATOM     11  C   UNL     1     -35.471  27.865   2.344  0.00  0.00    +0.154 C 
ATOM     12  C   UNL     1     -33.894  26.356   4.093  0.00  0.00    +0.080 C 
ATOM     13  C   UNL     1     -33.683  27.817   4.040  0.00  0.00    +0.205 C 
ATOM     14  C   UNL     1     -34.413  29.949   2.975  0.00  0.00    +0.143 C 
ATOM     15  C   UNL     1     -36.295  28.550   1.449  0.00  0.00    +0.074 C 
ATOM     16  C   UNL     1     -36.175  29.933   1.318  0.00  0.00    +0.140 C 
ATOM     17  C   UNL     1     -35.237  30.631   2.079  0.00  0.00    +0.073 C 
BRANCH  14  18
ATOM     18  O   UNL     1     -33.515  30.676   3.695  0.00  0.00    -0.505 OA
ATOM     19  H   UNL     1     -32.603  30.637   3.484  0.00  0.00    +0.292 HD
ENDBRANCH  14  18
BRANCH  16  20
ATOM     20  O   UNL     1     -36.978  30.605   0.446  0.00  0.00    -0.505 OA
ATOM     21  H   UNL     1     -36.607  31.011  -0.313  0.00  0.00    +0.292 HD
ENDBRANCH  16  20
ENDBRANCH   2   9
BRANCH   4  22
ATOM     22  O   UNL     1     -35.830  20.253   3.384  0.00  0.00    -0.503 OA
ATOM     23  H   UNL     1     -35.598  19.723   2.646  0.00  0.00    +0.292 HD
ENDBRANCH   4  22
BRANCH   6  24
ATOM     24  O   UNL     1     -35.986  21.729   5.719  0.00  0.00    -0.503 OA
ATOM     25  H   UNL     1     -36.873  21.734   6.022  0.00  0.00    +0.292 HD
ENDBRANCH   6  24
BRANCH   1  26
ATOM     26  C   UNL     1     -35.168  21.452   0.889  0.00  0.00    +0.055 C 
BRANCH  26  27
ATOM     27  C   UNL     1     -33.749  21.274   0.409  0.00  0.00    -0.030 C 
ATOM     28  C   UNL     1     -32.953  20.197   0.553  0.00  0.00    -0.048 C 
ATOM     29  C   UNL     1     -31.542  20.088   0.049  0.00  0.00    +0.026 C 
ATOM     30  C   UNL     1     -33.451  18.974   1.275  0.00  0.00    +0.026 C 
ENDBRANCH  26  27
ENDBRANCH   1  26
TORSDOF 7
ENDMDL
MODEL 6
REMARK VINA RESULT:      -6.5      3.465      6.243
REMARK  Name = 5315125
REMARK  7 active torsions:
REMARK  status: ('A' for Active; 'I' for Inactive)
REMARK    1  A    between atoms: C_1  and  C_26
REMARK    2  A    between atoms: C_2  and  C_9
REMARK    3  A    between atoms: C_4  and  O_22
REMARK    4  A    between atoms: C_6  and  O_24
REMARK    5  A    between atoms: C_14  and  O_18
REMARK    6  A    between atoms: C_16  and  O_20
REMARK    7  A    between atoms: C_26  and  C_27
REMARK                            x       y       z     vdW  Elec       q    Type
REMARK                         _______ _______ _______ _____ _____    ______ ____
ROOT
ATOM      1  C   UNL     1     -35.237  18.193  -0.294  0.00  0.00    +0.019 C 
ATOM      2  C   UNL     1     -35.246  19.929   1.392  0.00  0.00    +0.038 C 
ATOM      3  C   UNL     1     -35.861  19.280   0.318  0.00  0.00    +0.002 C 
ATOM      4  C   UNL     1     -33.997  17.752   0.164  0.00  0.00    +0.164 C 
ATOM      5  C   UNL     1     -34.003  19.484   1.849  0.00  0.00    +0.043 C 
ATOM      6  C   UNL     1     -33.380  18.396   1.236  0.00  0.00    +0.167 C 
ENDROOT
BRANCH   2   9
ATOM      7  O   UNL     1     -35.060  21.835   2.840  0.00  0.00    -0.453 OA
ATOM      8  O   UNL     1     -38.984  22.816   2.350  0.00  0.00    -0.286 OA
ATOM      9  C   UNL     1     -35.904  21.080   2.041  0.00  0.00    +0.148 C 
ATOM     10  C   UNL     1     -36.908  23.322   3.361  0.00  0.00    +0.107 C 
ATOM     11  C   UNL     1     -35.577  22.932   3.483  0.00  0.00    +0.154 C 
ATOM     12  C   UNL     1     -37.203  21.358   1.839  0.00  0.00    +0.080 C 
ATOM     13  C   UNL     1     -37.805  22.530   2.506  0.00  0.00    +0.205 C 
ATOM     14  C   UNL     1     -37.380  24.449   4.039  0.00  0.00    +0.143 C 
ATOM     15  C   UNL     1     -34.705  23.668   4.285  0.00  0.00    +0.074 C 
ATOM     16  C   UNL     1     -35.171  24.794   4.965  0.00  0.00    +0.140 C 
ATOM     17  C   UNL     1     -36.506  25.183   4.841  0.00  0.00    +0.073 C 
BRANCH  14  18
ATOM     18  O   UNL     1     -38.671  24.871   3.950  0.00  0.00    -0.505 OA
ATOM     19  H   UNL     1     -38.859  25.773   3.777  0.00  0.00    +0.292 HD
ENDBRANCH  14  18
BRANCH  16  20
ATOM     20  O   UNL     1     -34.323  25.515   5.748  0.00  0.00    -0.505 OA
ATOM     21  H   UNL     1     -34.579  25.758   6.616  0.00  0.00    +0.292 HD
ENDBRANCH  16  20
ENDBRANCH   2   9
BRANCH   4  22
ATOM     22  O   UNL     1     -33.383  16.689  -0.432  0.00  0.00    -0.503 OA
ATOM     23  H   UNL     1     -33.880  15.925  -0.651  0.00  0.00    +0.292 HD
ENDBRANCH   4  22
BRANCH   6  24
ATOM     24  O   UNL     1     -32.167  17.977   1.694  0.00  0.00    -0.503 OA
ATOM     25  H   UNL     1     -31.800  17.174   1.378  0.00  0.00    +0.292 HD
ENDBRANCH   6  24
BRANCH   1  26
ATOM     26  C   UNL     1     -35.914  17.514  -1.440  0.00  0.00    +0.055 C 
BRANCH  26  27
ATOM     27  C   UNL     1     -36.869  16.432  -0.999  0.00  0.00    -0.030 C 
ATOM     28  C   UNL     1     -38.209  16.505  -0.885  0.00  0.00    -0.048 C 
ATOM     29  C   UNL     1     -39.103  15.383  -0.437  0.00  0.00    +0.026 C 
ATOM     30  C   UNL     1     -38.933  17.784  -1.209  0.00  0.00    +0.026 C 
ENDBRANCH  26  27
ENDBRANCH   1  26
TORSDOF 7
ENDMDL
MODEL 7
REMARK VINA RESULT:      -6.5      3.628      9.064
REMARK  Name = 5315125
REMARK  7 active torsions:
REMARK  status: ('A' for Active; 'I' for Inactive)
REMARK    1  A    between atoms: C_1  and  C_26
REMARK    2  A    between atoms: C_2  and  C_9
REMARK    3  A    between atoms: C_4  and  O_22
REMARK    4  A    between atoms: C_6  and  O_24
REMARK    5  A    between atoms: C_14  and  O_18
REMARK    6  A    between atoms: C_16  and  O_20
REMARK    7  A    between atoms: C_26  and  C_27
REMARK                            x       y       z     vdW  Elec       q    Type
REMARK                         _______ _______ _______ _____ _____    ______ ____
ROOT
ATOM      1  C   UNL     1     -36.161  22.502   3.745  0.00  0.00    +0.019 C 
ATOM      2  C   UNL     1     -36.152  20.933   1.903  0.00  0.00    +0.038 C 
ATOM      3  C   UNL     1     -35.577  21.425   3.077  0.00  0.00    +0.002 C 
ATOM      4  C   UNL     1     -37.320  23.089   3.240  0.00  0.00    +0.164 C 
ATOM      5  C   UNL     1     -37.314  21.524   1.400  0.00  0.00    +0.043 C 
ATOM      6  C   UNL     1     -37.897  22.600   2.069  0.00  0.00    +0.167 C 
ENDROOT
BRANCH   2   9
ATOM      7  O   UNL     1     -34.208  19.572   1.531  0.00  0.00    -0.453 OA
ATOM      8  O   UNL     1     -36.158  17.204  -1.152  0.00  0.00    -0.286 OA
ATOM      9  C   UNL     1     -35.535  19.794   1.194  0.00  0.00    +0.148 C 
ATOM     10  C   UNL     1     -34.153  17.685   0.003  0.00  0.00    +0.107 C 
ATOM     11  C   UNL     1     -33.547  18.531   0.929  0.00  0.00    +0.154 C 
ATOM     12  C   UNL     1     -36.229  19.044   0.322  0.00  0.00    +0.080 C 
ATOM     13  C   UNL     1     -35.562  17.910  -0.349  0.00  0.00    +0.205 C 
ATOM     14  C   UNL     1     -33.430  16.640  -0.577  0.00  0.00    +0.143 C 
ATOM     15  C   UNL     1     -32.211  18.337   1.283  0.00  0.00    +0.074 C 
ATOM     16  C   UNL     1     -31.486  17.295   0.705  0.00  0.00    +0.140 C 
ATOM     17  C   UNL     1     -32.094  16.448  -0.223  0.00  0.00    +0.073 C 
BRANCH  14  18
ATOM     18  O   UNL     1     -33.977  15.785  -1.486  0.00  0.00    -0.505 OA
ATOM     19  H   UNL     1     -33.462  15.089  -1.844  0.00  0.00    +0.292 HD
ENDBRANCH  14  18
BRANCH  16  20
ATOM     20  O   UNL     1     -30.182  17.102   1.049  0.00  0.00    -0.505 OA
ATOM     21  H   UNL     1     -29.546  16.915   0.386  0.00  0.00    +0.292 HD
ENDBRANCH  16  20
ENDBRANCH   2   9
BRANCH   4  22
ATOM     22  O   UNL     1     -37.895  24.142   3.891  0.00  0.00    -0.503 OA
ATOM     23  H   UNL     1     -37.483  24.984   3.872  0.00  0.00    +0.292 HD
ENDBRANCH   4  22
BRANCH   6  24
ATOM     24  O   UNL     1     -39.030  23.165   1.564  0.00  0.00    -0.503 OA
ATOM     25  H   UNL     1     -39.380  23.942   1.955  0.00  0.00    +0.292 HD
ENDBRANCH   6  24
BRANCH   1  26
ATOM     26  C   UNL     1     -35.530  23.011   4.999  0.00  0.00    +0.055 C 
BRANCH  26  27
ATOM     27  C   UNL     1     -34.522  24.104   4.746  0.00  0.00    -0.030 C 
ATOM     28  C   UNL     1     -34.625  25.414   5.046  0.00  0.00    -0.048 C 
ATOM     29  C   UNL     1     -33.577  26.452   4.764  0.00  0.00    +0.026 C 
ATOM     30  C   UNL     1     -35.866  25.948   5.710  0.00  0.00    +0.026 C 
ENDBRANCH  26  27
ENDBRANCH   1  26
TORSDOF 7
ENDMDL
MODEL 8
REMARK VINA RESULT:      -6.5      2.356      3.359
REMARK  Name = 5315125
REMARK  7 active torsions:
REMARK  status: ('A' for Active; 'I' for Inactive)
REMARK    1  A    between atoms: C_1  and  C_26
REMARK    2  A    between atoms: C_2  and  C_9
REMARK    3  A    between atoms: C_4  and  O_22
REMARK    4  A    between atoms: C_6  and  O_24
REMARK    5  A    between atoms: C_14  and  O_18
REMARK    6  A    between atoms: C_16  and  O_20
REMARK    7  A    between atoms: C_26  and  C_27
REMARK                            x       y       z     vdW  Elec       q    Type
REMARK                         _______ _______ _______ _____ _____    ______ ____
ROOT
ATOM      1  C   UNL     1     -35.365  20.522   1.567  0.00  0.00    +0.019 C 
ATOM      2  C   UNL     1     -36.203  22.783   1.773  0.00  0.00    +0.038 C 
ATOM      3  C   UNL     1     -35.137  21.879   1.793  0.00  0.00    +0.002 C 
ATOM      4  C   UNL     1     -36.659  20.064   1.321  0.00  0.00    +0.164 C 
ATOM      5  C   UNL     1     -37.497  22.320   1.526  0.00  0.00    +0.043 C 
ATOM      6  C   UNL     1     -37.725  20.963   1.301  0.00  0.00    +0.167 C 
ENDROOT
BRANCH   2   9
ATOM      7  O   UNL     1     -34.705  24.505   2.522  0.00  0.00    -0.453 OA
ATOM      8  O   UNL     1     -37.413  27.448   1.742  0.00  0.00    -0.286 OA
ATOM      9  C   UNL     1     -35.963  24.220   2.012  0.00  0.00    +0.148 C 
ATOM     10  C   UNL     1     -35.262  26.869   2.531  0.00  0.00    +0.107 C 
ATOM     11  C   UNL     1     -34.383  25.815   2.773  0.00  0.00    +0.154 C 
ATOM     12  C   UNL     1     -36.893  25.148   1.731  0.00  0.00    +0.080 C 
ATOM     13  C   UNL     1     -36.593  26.573   1.982  0.00  0.00    +0.205 C 
ATOM     14  C   UNL     1     -34.879  28.184   2.806  0.00  0.00    +0.143 C 
ATOM     15  C   UNL     1     -33.114  26.070   3.292  0.00  0.00    +0.074 C 
ATOM     16  C   UNL     1     -32.728  27.381   3.569  0.00  0.00    +0.140 C 
ATOM     17  C   UNL     1     -33.609  28.436   3.326  0.00  0.00    +0.073 C 
BRANCH  14  18
ATOM     18  O   UNL     1     -35.700  29.248   2.586  0.00  0.00    -0.505 OA
ATOM     19  H   UNL     1     -35.793  29.912   3.241  0.00  0.00    +0.292 HD
ENDBRANCH  14  18
BRANCH  16  20
ATOM     20  O   UNL     1     -31.489  27.633   4.074  0.00  0.00    -0.505 OA
ATOM     21  H   UNL     1     -30.736  27.579   3.519  0.00  0.00    +0.292 HD
ENDBRANCH  16  20
ENDBRANCH   2   9
BRANCH   4  22
ATOM     22  O   UNL     1     -36.887  18.737   1.100  0.00  0.00    -0.503 OA
ATOM     23  H   UNL     1     -36.937  18.145   1.824  0.00  0.00    +0.292 HD
ENDBRANCH   4  22
BRANCH   6  24
ATOM     24  O   UNL     1     -38.995  20.529   1.063  0.00  0.00    -0.503 OA
ATOM     25  H   UNL     1     -39.425  20.758   0.262  0.00  0.00    +0.292 HD
ENDBRANCH   6  24
BRANCH   1  26
ATOM     26  C   UNL     1     -34.211  19.574   1.592  0.00  0.00    +0.055 C 
BRANCH  26  27
ATOM     27  C   UNL     1     -33.053  20.038   0.744  0.00  0.00    -0.030 C 
ATOM     28  C   UNL     1     -31.895  19.396   0.498  0.00  0.00    -0.048 C 
ATOM     29  C   UNL     1     -30.778  19.920  -0.360  0.00  0.00    +0.026 C 
ATOM     30  C   UNL     1     -31.629  18.045   1.106  0.00  0.00    +0.026 C 
ENDBRANCH  26  27
ENDBRANCH   1  26
TORSDOF 7
ENDMDL
MODEL 9
REMARK VINA RESULT:      -6.5      3.035      8.942
REMARK  Name = 5315125
REMARK  7 active torsions:
REMARK  status: ('A' for Active; 'I' for Inactive)
REMARK    1  A    between atoms: C_1  and  C_26
REMARK    2  A    between atoms: C_2  and  C_9
REMARK    3  A    between atoms: C_4  and  O_22
REMARK    4  A    between atoms: C_6  and  O_24
REMARK    5  A    between atoms: C_14  and  O_18
REMARK    6  A    between atoms: C_16  and  O_20
REMARK    7  A    between atoms: C_26  and  C_27
REMARK                            x       y       z     vdW  Elec       q    Type
REMARK                         _______ _______ _______ _____ _____    ______ ____
ROOT
ATOM      1  C   UNL     1     -35.381  24.732   4.624  0.00  0.00    +0.019 C 
ATOM      2  C   UNL     1     -36.356  23.114   3.113  0.00  0.00    +0.038 C 
ATOM      3  C   UNL     1     -35.281  23.549   3.892  0.00  0.00    +0.002 C 
ATOM      4  C   UNL     1     -36.554  25.484   4.578  0.00  0.00    +0.164 C 
ATOM      5  C   UNL     1     -37.530  23.870   3.069  0.00  0.00    +0.043 C 
ATOM      6  C   UNL     1     -37.628  25.053   3.801  0.00  0.00    +0.167 C 
ENDROOT
BRANCH   2   9
ATOM      7  O   UNL     1     -37.387  21.561   1.599  0.00  0.00    -0.453 OA
ATOM      8  O   UNL     1     -34.092  19.164   1.530  0.00  0.00    -0.286 OA
ATOM      9  C   UNL     1     -36.253  21.862   2.337  0.00  0.00    +0.148 C 
ATOM     10  C   UNL     1     -36.296  19.555   0.771  0.00  0.00    +0.107 C 
ATOM     11  C   UNL     1     -37.387  20.418   0.838  0.00  0.00    +0.154 C 
ATOM     12  C   UNL     1     -35.138  21.113   2.349  0.00  0.00    +0.080 C 
ATOM     13  C   UNL     1     -35.088  19.875   1.544  0.00  0.00    +0.205 C 
ATOM     14  C   UNL     1     -36.353  18.405  -0.021  0.00  0.00    +0.143 C 
ATOM     15  C   UNL     1     -38.545  20.138   0.112  0.00  0.00    +0.074 C 
ATOM     16  C   UNL     1     -38.606  18.991  -0.680  0.00  0.00    +0.140 C 
ATOM     17  C   UNL     1     -37.512  18.127  -0.747  0.00  0.00    +0.073 C 
BRANCH  14  18
ATOM     18  O   UNL     1     -35.313  17.531  -0.121  0.00  0.00    -0.505 OA
ATOM     19  H   UNL     1     -35.188  17.041  -0.910  0.00  0.00    +0.292 HD
ENDBRANCH  14  18
BRANCH  16  20
ATOM     20  O   UNL     1     -39.734  18.715  -1.391  0.00  0.00    -0.505 OA
ATOM     21  H   UNL     1     -39.668  18.415  -2.276  0.00  0.00    +0.292 HD
ENDBRANCH  16  20
ENDBRANCH   2   9
BRANCH   4  22
ATOM     22  O   UNL     1     -36.655  26.642   5.292  0.00  0.00    -0.503 OA
ATOM     23  H   UNL     1     -36.852  27.446   4.853  0.00  0.00    +0.292 HD
ENDBRANCH   4  22
BRANCH   6  24
ATOM     24  O   UNL     1     -38.781  25.779   3.746  0.00  0.00    -0.503 OA
ATOM     25  H   UNL     1     -38.792  26.606   3.304  0.00  0.00    +0.292 HD
ENDBRANCH   6  24
BRANCH   1  26
ATOM     26  C   UNL     1     -34.220  25.178   5.452  0.00  0.00    +0.055 C 
BRANCH  26  27
ATOM     27  C   UNL     1     -33.535  26.400   4.893  0.00  0.00    -0.030 C 
ATOM     28  C   UNL     1     -32.833  27.336   5.559  0.00  0.00    -0.048 C 
ATOM     29  C   UNL     1     -32.175  28.534   4.936  0.00  0.00    +0.026 C 
ATOM     30  C   UNL     1     -32.662  27.240   7.052  0.00  0.00    +0.026 C 
ENDBRANCH  26  27
ENDBRANCH   1  26
TORSDOF 7
ENDMDL
