MODEL 1
REMARK VINA RESULT:      -6.6      0.000      0.000
REMARK  Name = 57333718
REMARK  9 active torsions:
REMARK  status: ('A' for Active; 'I' for Inactive)
REMARK    1  A    between atoms: C_4  and  O_20
REMARK    2  A    between atoms: C_5  and  O_13
REMARK    3  A    between atoms: C_12  and  C_15
REMARK    4  A    between atoms: C_16  and  C_17
REMARK    5  A    between atoms: C_17  and  O_18
REMARK    6  A    between atoms: O_20  and  C_22
REMARK    7  A    between atoms: C_22  and  C_23
REMARK    8  A    between atoms: C_25  and  O_30
REMARK    9  A    between atoms: C_29  and  O_32
REMARK                            x       y       z     vdW  Elec       q    Type
REMARK                         _______ _______ _______ _____ _____    ______ ____
ROOT
ATOM      1  O   UNL     1     -35.514  26.193   4.182  0.00  0.00    -0.475 OA
ATOM      2  O   UNL     1     -35.873  20.130   2.716  0.00  0.00    -0.289 OA
ATOM      3  C   UNL     1     -36.616  24.117   3.496  0.00  0.00    +0.109 C 
ATOM      4  C   UNL     1     -37.350  23.355   2.378  0.00  0.00    +0.208 C 
ATOM      5  C   UNL     1     -36.526  22.241   1.714  0.00  0.00    +0.180 C 
ATOM      6  C   UNL     1     -35.521  23.322   4.179  0.00  0.00    -0.009 C 
ATOM      7  C   UNL     1     -35.992  25.442   3.048  0.00  0.00    +0.213 C 
ATOM      8  C   UNL     1     -35.897  21.356   2.787  0.00  0.00    +0.200 C 
ATOM      9  C   UNL     1     -35.227  22.040   3.922  0.00  0.00    +0.036 C 
ATOM     10  C   UNL     1     -35.428  22.772   0.792  0.00  0.00    +0.041 C 
ATOM     11  C   UNL     1     -34.760  24.105   5.133  0.00  0.00    +0.033 C 
ATOM     12  C   UNL     1     -34.800  25.451   5.110  0.00  0.00    +0.138 C 
ENDROOT
BRANCH   5  13
ATOM     13  O   UNL     1     -37.380  21.423   0.920  0.00  0.00    -0.376 OA
ATOM     14  H   UNL     1     -36.843  20.862   0.340  0.00  0.00    +0.211 HD
ENDBRANCH   5  13
BRANCH  12  15
ATOM     15  C   UNL     1     -34.080  26.258   6.057  0.00  0.00    +0.035 C 
ATOM     16  C   UNL     1     -32.992  26.971   5.740  0.00  0.00    +0.008 C 
BRANCH  16  17
ATOM     17  C   UNL     1     -32.245  27.815   6.721  0.00  0.00    +0.163 C 
BRANCH  17  18
ATOM     18  O   UNL     1     -30.868  27.471   6.664  0.00  0.00    -0.377 OA
ATOM     19  H   UNL     1     -30.440  27.713   7.501  0.00  0.00    +0.211 HD
ENDBRANCH  17  18
ENDBRANCH  16  17
ENDBRANCH  12  15
BRANCH   4  20
ATOM     20  O   UNL     1     -38.529  22.764   2.955  0.00  0.00    -0.446 OA
BRANCH  20  22
ATOM     21  O   UNL     1     -40.303  21.821   1.830  0.00  0.00    -0.245 OA
ATOM     22  C   UNL     1     -39.644  22.789   2.177  0.00  0.00    +0.344 C 
BRANCH  22  23
ATOM     23  C   UNL     1     -39.976  24.183   1.788  0.00  0.00    +0.105 C 
ATOM     24  C   UNL     1     -40.051  24.538   0.441  0.00  0.00    -0.010 C 
ATOM     25  C   UNL     1     -40.211  25.140   2.775  0.00  0.00    +0.143 C 
ATOM     26  C   UNL     1     -40.362  25.849   0.081  0.00  0.00    +0.033 C 
ATOM     27  C   UNL     1     -40.522  26.451   2.416  0.00  0.00    +0.073 C 
ATOM     28  C   UNL     1     -39.804  23.535  -0.639  0.00  0.00    +0.031 C 
ATOM     29  C   UNL     1     -40.597  26.806   1.069  0.00  0.00    +0.136 C 
BRANCH  25  30
ATOM     30  O   UNL     1     -40.143  24.814   4.097  0.00  0.00    -0.505 OA
ATOM     31  H   UNL     1     -40.929  24.695   4.592  0.00  0.00    +0.292 HD
ENDBRANCH  25  30
BRANCH  29  32
ATOM     32  O   UNL     1     -40.900  28.086   0.718  0.00  0.00    -0.505 OA
ATOM     33  H   UNL     1     -41.791  28.330   0.560  0.00  0.00    +0.292 HD
ENDBRANCH  29  32
ENDBRANCH  22  23
ENDBRANCH  20  22
ENDBRANCH   4  20
TORSDOF 9
ENDMDL
MODEL 2
REMARK VINA RESULT:      -6.6      3.869      6.954
REMARK  Name = 57333718
REMARK  9 active torsions:
REMARK  status: ('A' for Active; 'I' for Inactive)
REMARK    1  A    between atoms: C_4  and  O_20
REMARK    2  A    between atoms: C_5  and  O_13
REMARK    3  A    between atoms: C_12  and  C_15
REMARK    4  A    between atoms: C_16  and  C_17
REMARK    5  A    between atoms: C_17  and  O_18
REMARK    6  A    between atoms: O_20  and  C_22
REMARK    7  A    between atoms: C_22  and  C_23
REMARK    8  A    between atoms: C_25  and  O_30
REMARK    9  A    between atoms: C_29  and  O_32
REMARK                            x       y       z     vdW  Elec       q    Type
REMARK                         _______ _______ _______ _____ _____    ______ ____
ROOT
ATOM      1  O   UNL     1     -36.961  30.285   1.036  0.00  0.00    -0.475 OA
ATOM      2  O   UNL     1     -31.793  28.042   3.739  0.00  0.00    -0.289 OA
ATOM      3  C   UNL     1     -35.574  28.623   2.178  0.00  0.00    +0.109 C 
ATOM      4  C   UNL     1     -34.856  27.263   2.093  0.00  0.00    +0.208 C 
ATOM      5  C   UNL     1     -33.326  27.351   1.989  0.00  0.00    +0.180 C 
ATOM      6  C   UNL     1     -34.726  29.740   2.754  0.00  0.00    -0.009 C 
ATOM      7  C   UNL     1     -36.126  29.126   0.842  0.00  0.00    +0.213 C 
ATOM      8  C   UNL     1     -32.790  28.292   3.065  0.00  0.00    +0.200 C 
ATOM      9  C   UNL     1     -33.483  29.595   3.232  0.00  0.00    +0.036 C 
ATOM     10  C   UNL     1     -32.841  27.825   0.618  0.00  0.00    +0.041 C 
ATOM     11  C   UNL     1     -35.378  31.034   2.699  0.00  0.00    +0.033 C 
ATOM     12  C   UNL     1     -36.436  31.241   1.892  0.00  0.00    +0.138 C 
ENDROOT
BRANCH   5  13
ATOM     13  O   UNL     1     -32.757  26.064   2.212  0.00  0.00    -0.376 OA
ATOM     14  H   UNL     1     -33.437  25.466   2.558  0.00  0.00    +0.211 HD
ENDBRANCH   5  13
BRANCH  12  15
ATOM     15  C   UNL     1     -37.123  32.502   1.833  0.00  0.00    +0.035 C 
ATOM     16  C   UNL     1     -38.430  32.616   1.566  0.00  0.00    +0.008 C 
BRANCH  16  17
ATOM     17  C   UNL     1     -39.148  33.926   1.510  0.00  0.00    +0.163 C 
BRANCH  17  18
ATOM     18  O   UNL     1     -38.991  34.588   2.756  0.00  0.00    -0.377 OA
ATOM     19  H   UNL     1     -39.807  34.502   3.274  0.00  0.00    +0.211 HD
ENDBRANCH  17  18
ENDBRANCH  16  17
ENDBRANCH  12  15
BRANCH   4  20
ATOM     20  O   UNL     1     -35.188  26.520   3.280  0.00  0.00    -0.446 OA
BRANCH  20  22
ATOM     21  O   UNL     1     -37.308  25.915   2.617  0.00  0.00    -0.245 OA
ATOM     22  C   UNL     1     -36.248  25.675   3.172  0.00  0.00    +0.344 C 
BRANCH  22  23
ATOM     23  C   UNL     1     -35.950  24.379   3.834  0.00  0.00    +0.105 C 
ATOM     24  C   UNL     1     -35.840  23.212   3.078  0.00  0.00    -0.010 C 
ATOM     25  C   UNL     1     -35.782  24.331   5.218  0.00  0.00    +0.143 C 
ATOM     26  C   UNL     1     -35.563  21.998   3.705  0.00  0.00    +0.033 C 
ATOM     27  C   UNL     1     -35.504  23.117   5.846  0.00  0.00    +0.073 C 
ATOM     28  C   UNL     1     -36.016  23.233   1.594  0.00  0.00    +0.031 C 
ATOM     29  C   UNL     1     -35.395  21.950   5.089  0.00  0.00    +0.136 C 
BRANCH  25  30
ATOM     30  O   UNL     1     -35.886  25.460   5.976  0.00  0.00    -0.505 OA
ATOM     31  H   UNL     1     -36.501  26.126   5.744  0.00  0.00    +0.292 HD
ENDBRANCH  25  30
BRANCH  29  32
ATOM     32  O   UNL     1     -35.123  20.765   5.701  0.00  0.00    -0.505 OA
ATOM     33  H   UNL     1     -34.325  20.313   5.514  0.00  0.00    +0.292 HD
ENDBRANCH  29  32
ENDBRANCH  22  23
ENDBRANCH  20  22
ENDBRANCH   4  20
TORSDOF 9
ENDMDL
MODEL 3
REMARK VINA RESULT:      -6.5      3.526      6.224
REMARK  Name = 57333718
REMARK  9 active torsions:
REMARK  status: ('A' for Active; 'I' for Inactive)
REMARK    1  A    between atoms: C_4  and  O_20
REMARK    2  A    between atoms: C_5  and  O_13
REMARK    3  A    between atoms: C_12  and  C_15
REMARK    4  A    between atoms: C_16  and  C_17
REMARK    5  A    between atoms: C_17  and  O_18
REMARK    6  A    between atoms: O_20  and  C_22
REMARK    7  A    between atoms: C_22  and  C_23
REMARK    8  A    between atoms: C_25  and  O_30
REMARK    9  A    between atoms: C_29  and  O_32
REMARK                            x       y       z     vdW  Elec       q    Type
REMARK                         _______ _______ _______ _____ _____    ______ ____
ROOT
ATOM      1  O   UNL     1     -32.505  29.369   4.893  0.00  0.00    -0.475 OA
ATOM      2  O   UNL     1     -31.010  25.648   0.101  0.00  0.00    -0.289 OA
ATOM      3  C   UNL     1     -32.844  27.575   3.261  0.00  0.00    +0.109 C 
ATOM      4  C   UNL     1     -33.637  27.075   2.040  0.00  0.00    +0.208 C 
ATOM      5  C   UNL     1     -32.857  27.096   0.717  0.00  0.00    +0.180 C 
ATOM      6  C   UNL     1     -31.341  27.421   3.135  0.00  0.00    -0.009 C 
ATOM      7  C   UNL     1     -33.112  29.037   3.628  0.00  0.00    +0.213 C 
ATOM      8  C   UNL     1     -31.495  26.435   0.910  0.00  0.00    +0.200 C 
ATOM      9  C   UNL     1     -30.712  26.837   2.106  0.00  0.00    +0.036 C 
ATOM     10  C   UNL     1     -32.659  28.505   0.157  0.00  0.00    +0.041 C 
ATOM     11  C   UNL     1     -30.613  28.020   4.237  0.00  0.00    +0.033 C 
ATOM     12  C   UNL     1     -31.204  28.916   5.049  0.00  0.00    +0.138 C 
ENDROOT
BRANCH   5  13
ATOM     13  O   UNL     1     -33.568  26.351  -0.268  0.00  0.00    -0.376 OA
ATOM     14  H   UNL     1     -34.366  26.837  -0.527  0.00  0.00    +0.211 HD
ENDBRANCH   5  13
BRANCH  12  15
ATOM     15  C   UNL     1     -30.522  29.509   6.166  0.00  0.00    +0.035 C 
ATOM     16  C   UNL     1     -29.292  29.149   6.553  0.00  0.00    +0.008 C 
BRANCH  16  17
ATOM     17  C   UNL     1     -28.578  29.768   7.711  0.00  0.00    +0.163 C 
BRANCH  17  18
ATOM     18  O   UNL     1     -28.184  28.739   8.608  0.00  0.00    -0.377 OA
ATOM     19  H   UNL     1     -27.934  27.948   8.104  0.00  0.00    +0.211 HD
ENDBRANCH  17  18
ENDBRANCH  16  17
ENDBRANCH  12  15
BRANCH   4  20
ATOM     20  O   UNL     1     -34.039  25.719   2.308  0.00  0.00    -0.446 OA
BRANCH  20  22
ATOM     21  O   UNL     1     -36.193  26.338   2.837  0.00  0.00    -0.245 OA
ATOM     22  C   UNL     1     -35.248  25.569   2.912  0.00  0.00    +0.344 C 
BRANCH  22  23
ATOM     23  C   UNL     1     -35.283  24.311   3.701  0.00  0.00    +0.105 C 
ATOM     24  C   UNL     1     -35.061  24.337   5.077  0.00  0.00    -0.010 C 
ATOM     25  C   UNL     1     -35.536  23.099   3.059  0.00  0.00    +0.143 C 
ATOM     26  C   UNL     1     -35.093  23.153   5.813  0.00  0.00    +0.033 C 
ATOM     27  C   UNL     1     -35.569  21.913   3.794  0.00  0.00    +0.073 C 
ATOM     28  C   UNL     1     -34.786  25.621   5.792  0.00  0.00    +0.031 C 
ATOM     29  C   UNL     1     -35.346  21.940   5.171  0.00  0.00    +0.136 C 
BRANCH  25  30
ATOM     30  O   UNL     1     -35.755  23.049   1.715  0.00  0.00    -0.505 OA
ATOM     31  H   UNL     1     -36.268  22.357   1.348  0.00  0.00    +0.292 HD
ENDBRANCH  25  30
BRANCH  29  32
ATOM     32  O   UNL     1     -35.378  20.784   5.888  0.00  0.00    -0.505 OA
ATOM     33  H   UNL     1     -35.935  20.080   5.619  0.00  0.00    +0.292 HD
ENDBRANCH  29  32
ENDBRANCH  22  23
ENDBRANCH  20  22
ENDBRANCH   4  20
TORSDOF 9
ENDMDL
MODEL 4
REMARK VINA RESULT:      -6.5      2.562      6.139
REMARK  Name = 57333718
REMARK  9 active torsions:
REMARK  status: ('A' for Active; 'I' for Inactive)
REMARK    1  A    between atoms: C_4  and  O_20
REMARK    2  A    between atoms: C_5  and  O_13
REMARK    3  A    between atoms: C_12  and  C_15
REMARK    4  A    between atoms: C_16  and  C_17
REMARK    5  A    between atoms: C_17  and  O_18
REMARK    6  A    between atoms: O_20  and  C_22
REMARK    7  A    between atoms: C_22  and  C_23
REMARK    8  A    between atoms: C_25  and  O_30
REMARK    9  A    between atoms: C_29  and  O_32
REMARK                            x       y       z     vdW  Elec       q    Type
REMARK                         _______ _______ _______ _____ _____    ______ ____
ROOT
ATOM      1  O   UNL     1     -33.600  21.937   0.771  0.00  0.00    -0.475 OA
ATOM      2  O   UNL     1     -39.752  20.918   1.167  0.00  0.00    -0.289 OA
ATOM      3  C   UNL     1     -35.867  22.239   1.644  0.00  0.00    +0.109 C 
ATOM      4  C   UNL     1     -37.074  23.182   1.802  0.00  0.00    +0.208 C 
ATOM      5  C   UNL     1     -38.281  22.832   0.918  0.00  0.00    +0.180 C 
ATOM      6  C   UNL     1     -36.223  20.843   1.172  0.00  0.00    -0.009 C 
ATOM      7  C   UNL     1     -34.780  22.763   0.703  0.00  0.00    +0.213 C 
ATOM      8  C   UNL     1     -38.606  21.347   1.053  0.00  0.00    +0.200 C 
ATOM      9  C   UNL     1     -37.470  20.395   0.969  0.00  0.00    +0.036 C 
ATOM     10  C   UNL     1     -38.063  23.168  -0.558  0.00  0.00    +0.041 C 
ATOM     11  C   UNL     1     -35.061  20.019   0.904  0.00  0.00    +0.033 C 
ATOM     12  C   UNL     1     -33.845  20.573   0.741  0.00  0.00    +0.138 C 
ENDROOT
BRANCH   5  13
ATOM     13  O   UNL     1     -39.420  23.570   1.351  0.00  0.00    -0.376 OA
ATOM     14  H   UNL     1     -39.606  23.361   2.280  0.00  0.00    +0.211 HD
ENDBRANCH   5  13
BRANCH  12  15
ATOM     15  C   UNL     1     -32.667  19.785   0.501  0.00  0.00    +0.035 C 
ATOM     16  C   UNL     1     -32.411  18.632   1.131  0.00  0.00    +0.008 C 
BRANCH  16  17
ATOM     17  C   UNL     1     -31.190  17.808   0.879  0.00  0.00    +0.163 C 
BRANCH  17  18
ATOM     18  O   UNL     1     -31.590  16.475   0.593  0.00  0.00    -0.377 OA
ATOM     19  H   UNL     1     -32.556  16.436   0.520  0.00  0.00    +0.211 HD
ENDBRANCH  17  18
ENDBRANCH  16  17
ENDBRANCH  12  15
BRANCH   4  20
ATOM     20  O   UNL     1     -37.490  23.129   3.179  0.00  0.00    -0.446 OA
BRANCH  20  22
ATOM     21  O   UNL     1     -38.798  24.829   4.017  0.00  0.00    -0.245 OA
ATOM     22  C   UNL     1     -37.710  24.330   3.777  0.00  0.00    +0.344 C 
BRANCH  22  23
ATOM     23  C   UNL     1     -36.421  24.985   4.116  0.00  0.00    +0.105 C 
ATOM     24  C   UNL     1     -35.526  24.368   4.989  0.00  0.00    -0.010 C 
ATOM     25  C   UNL     1     -36.108  26.227   3.561  0.00  0.00    +0.143 C 
ATOM     26  C   UNL     1     -34.318  24.989   5.306  0.00  0.00    +0.033 C 
ATOM     27  C   UNL     1     -34.900  26.848   3.877  0.00  0.00    +0.073 C 
ATOM     28  C   UNL     1     -35.833  23.039   5.600  0.00  0.00    +0.031 C 
ATOM     29  C   UNL     1     -34.005  26.230   4.750  0.00  0.00    +0.136 C 
BRANCH  25  30
ATOM     30  O   UNL     1     -36.969  26.849   2.707  0.00  0.00    -0.505 OA
ATOM     31  H   UNL     1     -36.681  27.586   2.205  0.00  0.00    +0.292 HD
ENDBRANCH  25  30
BRANCH  29  32
ATOM     32  O   UNL     1     -32.827  26.836   5.059  0.00  0.00    -0.505 OA
ATOM     33  H   UNL     1     -32.350  26.574   5.821  0.00  0.00    +0.292 HD
ENDBRANCH  29  32
ENDBRANCH  22  23
ENDBRANCH  20  22
ENDBRANCH   4  20
TORSDOF 9
ENDMDL
MODEL 5
REMARK VINA RESULT:      -6.5      2.024      5.138
REMARK  Name = 57333718
REMARK  9 active torsions:
REMARK  status: ('A' for Active; 'I' for Inactive)
REMARK    1  A    between atoms: C_4  and  O_20
REMARK    2  A    between atoms: C_5  and  O_13
REMARK    3  A    between atoms: C_12  and  C_15
REMARK    4  A    between atoms: C_16  and  C_17
REMARK    5  A    between atoms: C_17  and  O_18
REMARK    6  A    between atoms: O_20  and  C_22
REMARK    7  A    between atoms: C_22  and  C_23
REMARK    8  A    between atoms: C_25  and  O_30
REMARK    9  A    between atoms: C_29  and  O_32
REMARK                            x       y       z     vdW  Elec       q    Type
REMARK                         _______ _______ _______ _____ _____    ______ ____
ROOT
ATOM      1  O   UNL     1     -35.903  21.173   2.626  0.00  0.00    -0.475 OA
ATOM      2  O   UNL     1     -34.603  27.235   3.400  0.00  0.00    -0.289 OA
ATOM      3  C   UNL     1     -36.407  23.545   2.964  0.00  0.00    +0.109 C 
ATOM      4  C   UNL     1     -36.972  24.622   3.908  0.00  0.00    +0.208 C 
ATOM      5  C   UNL     1     -35.914  25.540   4.539  0.00  0.00    +0.180 C 
ATOM      6  C   UNL     1     -35.079  23.906   2.328  0.00  0.00    -0.009 C 
ATOM      7  C   UNL     1     -36.229  22.170   3.615  0.00  0.00    +0.213 C 
ATOM      8  C   UNL     1     -34.975  26.065   3.456  0.00  0.00    +0.200 C 
ATOM      9  C   UNL     1     -34.447  25.078   2.481  0.00  0.00    +0.036 C 
ATOM     10  C   UNL     1     -35.091  24.851   5.628  0.00  0.00    +0.041 C 
ATOM     11  C   UNL     1     -34.506  22.824   1.552  0.00  0.00    +0.033 C 
ATOM     12  C   UNL     1     -34.936  21.558   1.711  0.00  0.00    +0.138 C 
ENDROOT
BRANCH   5  13
ATOM     13  O   UNL     1     -36.554  26.661   5.143  0.00  0.00    -0.376 OA
ATOM     14  H   UNL     1     -36.746  26.461   6.072  0.00  0.00    +0.211 HD
ENDBRANCH   5  13
BRANCH  12  15
ATOM     15  C   UNL     1     -34.410  20.465   0.940  0.00  0.00    +0.035 C 
ATOM     16  C   UNL     1     -33.837  19.386   1.488  0.00  0.00    +0.008 C 
BRANCH  16  17
ATOM     17  C   UNL     1     -33.295  18.245   0.689  0.00  0.00    +0.163 C 
BRANCH  17  18
ATOM     18  O   UNL     1     -32.276  17.604   1.442  0.00  0.00    -0.377 OA
ATOM     19  H   UNL     1     -31.765  18.270   1.929  0.00  0.00    +0.211 HD
ENDBRANCH  17  18
ENDBRANCH  16  17
ENDBRANCH  12  15
BRANCH   4  20
ATOM     20  O   UNL     1     -37.882  25.436   3.144  0.00  0.00    -0.446 OA
BRANCH  20  22
ATOM     21  O   UNL     1     -39.898  24.745   4.015  0.00  0.00    -0.245 OA
ATOM     22  C   UNL     1     -39.161  24.982   3.071  0.00  0.00    +0.344 C 
BRANCH  22  23
ATOM     23  C   UNL     1     -39.570  24.807   1.654  0.00  0.00    +0.105 C 
ATOM     24  C   UNL     1     -39.771  23.529   1.133  0.00  0.00    -0.010 C 
ATOM     25  C   UNL     1     -39.752  25.927   0.842  0.00  0.00    +0.143 C 
ATOM     26  C   UNL     1     -40.153  23.370  -0.199  0.00  0.00    +0.033 C 
ATOM     27  C   UNL     1     -40.135  25.768  -0.490  0.00  0.00    +0.073 C 
ATOM     28  C   UNL     1     -39.583  22.311   1.978  0.00  0.00    +0.031 C 
ATOM     29  C   UNL     1     -40.334  24.490  -1.011  0.00  0.00    +0.136 C 
BRANCH  25  30
ATOM     30  O   UNL     1     -39.561  27.185   1.331  0.00  0.00    -0.505 OA
ATOM     31  H   UNL     1     -39.125  27.309   2.150  0.00  0.00    +0.292 HD
ENDBRANCH  25  30
BRANCH  29  32
ATOM     32  O   UNL     1     -40.708  24.335  -2.310  0.00  0.00    -0.505 OA
ATOM     33  H   UNL     1     -40.058  24.294  -2.984  0.00  0.00    +0.292 HD
ENDBRANCH  29  32
ENDBRANCH  22  23
ENDBRANCH  20  22
ENDBRANCH   4  20
TORSDOF 9
ENDMDL
MODEL 6
REMARK VINA RESULT:      -6.4      2.192      4.862
REMARK  Name = 57333718
REMARK  9 active torsions:
REMARK  status: ('A' for Active; 'I' for Inactive)
REMARK    1  A    between atoms: C_4  and  O_20
REMARK    2  A    between atoms: C_5  and  O_13
REMARK    3  A    between atoms: C_12  and  C_15
REMARK    4  A    between atoms: C_16  and  C_17
REMARK    5  A    between atoms: C_17  and  O_18
REMARK    6  A    between atoms: O_20  and  C_22
REMARK    7  A    between atoms: C_22  and  C_23
REMARK    8  A    between atoms: C_25  and  O_30
REMARK    9  A    between atoms: C_29  and  O_32
REMARK                            x       y       z     vdW  Elec       q    Type
REMARK                         _______ _______ _______ _____ _____    ______ ____
ROOT
ATOM      1  O   UNL     1     -35.744  20.298   2.171  0.00  0.00    -0.475 OA
ATOM      2  O   UNL     1     -35.596  26.534   2.535  0.00  0.00    -0.289 OA
ATOM      3  C   UNL     1     -36.678  22.561   2.210  0.00  0.00    +0.109 C 
ATOM      4  C   UNL     1     -37.549  23.584   2.961  0.00  0.00    +0.208 C 
ATOM      5  C   UNL     1     -36.765  24.718   3.640  0.00  0.00    +0.180 C 
ATOM      6  C   UNL     1     -35.347  23.107   1.730  0.00  0.00    -0.009 C 
ATOM      7  C   UNL     1     -36.375  21.289   3.006  0.00  0.00    +0.213 C 
ATOM      8  C   UNL     1     -35.773  25.324   2.650  0.00  0.00    +0.200 C 
ATOM      9  C   UNL     1     -34.948  24.380   1.855  0.00  0.00    +0.036 C 
ATOM     10  C   UNL     1     -36.013  24.264   4.892  0.00  0.00    +0.041 C 
ATOM     11  C   UNL     1     -34.493  22.091   1.145  0.00  0.00    +0.033 C 
ATOM     12  C   UNL     1     -34.727  20.783   1.364  0.00  0.00    +0.138 C 
ENDROOT
BRANCH   5  13
ATOM     13  O   UNL     1     -37.665  25.747   4.042  0.00  0.00    -0.376 OA
ATOM     14  H   UNL     1     -37.939  25.595   4.960  0.00  0.00    +0.211 HD
ENDBRANCH   5  13
BRANCH  12  15
ATOM     15  C   UNL     1     -33.917  19.749   0.779  0.00  0.00    +0.035 C 
ATOM     16  C   UNL     1     -33.302  18.802   1.497  0.00  0.00    +0.008 C 
BRANCH  16  17
ATOM     17  C   UNL     1     -32.465  17.722   0.892  0.00  0.00    +0.163 C 
BRANCH  17  18
ATOM     18  O   UNL     1     -31.213  17.685   1.562  0.00  0.00    -0.377 OA
ATOM     19  H   UNL     1     -30.543  18.132   1.022  0.00  0.00    +0.211 HD
ENDBRANCH  17  18
ENDBRANCH  16  17
ENDBRANCH  12  15
BRANCH   4  20
ATOM     20  O   UNL     1     -38.455  24.168   2.007  0.00  0.00    -0.446 OA
BRANCH  20  22
ATOM     21  O   UNL     1     -40.089  22.571   2.288  0.00  0.00    -0.245 OA
ATOM     22  C   UNL     1     -39.736  23.716   2.055  0.00  0.00    +0.344 C 
BRANCH  22  23
ATOM     23  C   UNL     1     -40.689  24.822   1.781  0.00  0.00    +0.105 C 
ATOM     24  C   UNL     1     -41.278  24.947   0.523  0.00  0.00    -0.010 C 
ATOM     25  C   UNL     1     -40.991  25.740   2.787  0.00  0.00    +0.143 C 
ATOM     26  C   UNL     1     -42.171  25.989   0.271  0.00  0.00    +0.033 C 
ATOM     27  C   UNL     1     -41.884  26.782   2.535  0.00  0.00    +0.073 C 
ATOM     28  C   UNL     1     -40.974  23.980  -0.574  0.00  0.00    +0.031 C 
ATOM     29  C   UNL     1     -42.473  26.908   1.277  0.00  0.00    +0.136 C 
BRANCH  25  30
ATOM     30  O   UNL     1     -40.426  25.637   4.023  0.00  0.00    -0.505 OA
ATOM     31  H   UNL     1     -39.709  26.193   4.259  0.00  0.00    +0.292 HD
ENDBRANCH  25  30
BRANCH  29  32
ATOM     32  O   UNL     1     -43.344  27.924   1.031  0.00  0.00    -0.505 OA
ATOM     33  H   UNL     1     -43.190  28.512   0.319  0.00  0.00    +0.292 HD
ENDBRANCH  29  32
ENDBRANCH  22  23
ENDBRANCH  20  22
ENDBRANCH   4  20
TORSDOF 9
ENDMDL
MODEL 7
REMARK VINA RESULT:      -6.4      2.386      5.275
REMARK  Name = 57333718
REMARK  9 active torsions:
REMARK  status: ('A' for Active; 'I' for Inactive)
REMARK    1  A    between atoms: C_4  and  O_20
REMARK    2  A    between atoms: C_5  and  O_13
REMARK    3  A    between atoms: C_12  and  C_15
REMARK    4  A    between atoms: C_16  and  C_17
REMARK    5  A    between atoms: C_17  and  O_18
REMARK    6  A    between atoms: O_20  and  C_22
REMARK    7  A    between atoms: C_22  and  C_23
REMARK    8  A    between atoms: C_25  and  O_30
REMARK    9  A    between atoms: C_29  and  O_32
REMARK                            x       y       z     vdW  Elec       q    Type
REMARK                         _______ _______ _______ _____ _____    ______ ____
ROOT
ATOM      1  O   UNL     1     -34.770  24.761   5.887  0.00  0.00    -0.475 OA
ATOM      2  O   UNL     1     -37.075  25.141   0.092  0.00  0.00    -0.289 OA
ATOM      3  C   UNL     1     -35.493  23.917   3.706  0.00  0.00    +0.109 C 
ATOM      4  C   UNL     1     -36.505  23.057   2.926  0.00  0.00    +0.208 C 
ATOM      5  C   UNL     1     -37.525  23.858   2.102  0.00  0.00    +0.180 C 
ATOM      6  C   UNL     1     -35.242  25.285   3.105  0.00  0.00    -0.009 C 
ATOM      7  C   UNL     1     -35.858  24.136   5.177  0.00  0.00    +0.213 C 
ATOM      8  C   UNL     1     -36.800  24.911   1.268  0.00  0.00    +0.200 C 
ATOM      9  C   UNL     1     -35.770  25.729   1.956  0.00  0.00    +0.036 C 
ATOM     10  C   UNL     1     -38.590  24.541   2.961  0.00  0.00    +0.041 C 
ATOM     11  C   UNL     1     -34.390  26.121   3.929  0.00  0.00    +0.033 C 
ATOM     12  C   UNL     1     -34.182  25.828   5.226  0.00  0.00    +0.138 C 
ENDROOT
BRANCH   5  13
ATOM     13  O   UNL     1     -38.206  22.985   1.206  0.00  0.00    -0.376 OA
ATOM     14  H   UNL     1     -38.116  22.070   1.516  0.00  0.00    +0.211 HD
ENDBRANCH   5  13
BRANCH  12  15
ATOM     15  C   UNL     1     -33.323  26.618   6.065  0.00  0.00    +0.035 C 
ATOM     16  C   UNL     1     -32.567  27.623   5.606  0.00  0.00    +0.008 C 
BRANCH  16  17
ATOM     17  C   UNL     1     -31.678  28.450   6.477  0.00  0.00    +0.163 C 
BRANCH  17  18
ATOM     18  O   UNL     1     -30.468  27.740   6.701  0.00  0.00    -0.377 OA
ATOM     19  H   UNL     1     -29.810  28.005   6.039  0.00  0.00    +0.211 HD
ENDBRANCH  17  18
ENDBRANCH  16  17
ENDBRANCH  12  15
BRANCH   4  20
ATOM     20  O   UNL     1     -35.759  22.214   2.029  0.00  0.00    -0.446 OA
BRANCH  20  22
ATOM     21  O   UNL     1     -35.307  20.566   3.571  0.00  0.00    -0.245 OA
ATOM     22  C   UNL     1     -35.577  20.930   2.438  0.00  0.00    +0.344 C 
BRANCH  22  23
ATOM     23  C   UNL     1     -35.755  19.991   1.301  0.00  0.00    +0.105 C 
ATOM     24  C   UNL     1     -34.646  19.391   0.705  0.00  0.00    -0.010 C 
ATOM     25  C   UNL     1     -37.037  19.713   0.827  0.00  0.00    +0.143 C 
ATOM     26  C   UNL     1     -34.818  18.512  -0.364  0.00  0.00    +0.033 C 
ATOM     27  C   UNL     1     -37.210  18.833  -0.242  0.00  0.00    +0.073 C 
ATOM     28  C   UNL     1     -33.261  19.670   1.191  0.00  0.00    +0.031 C 
ATOM     29  C   UNL     1     -36.100  18.233  -0.838  0.00  0.00    +0.136 C 
BRANCH  25  30
ATOM     30  O   UNL     1     -38.134  20.289   1.394  0.00  0.00    -0.505 OA
ATOM     31  H   UNL     1     -38.453  19.980   2.218  0.00  0.00    +0.292 HD
ENDBRANCH  25  30
BRANCH  29  32
ATOM     32  O   UNL     1     -36.269  17.375  -1.880  0.00  0.00    -0.505 OA
ATOM     33  H   UNL     1     -36.785  16.601  -1.772  0.00  0.00    +0.292 HD
ENDBRANCH  29  32
ENDBRANCH  22  23
ENDBRANCH  20  22
ENDBRANCH   4  20
TORSDOF 9
ENDMDL
MODEL 8
REMARK VINA RESULT:      -6.3      3.981      7.017
REMARK  Name = 57333718
REMARK  9 active torsions:
REMARK  status: ('A' for Active; 'I' for Inactive)
REMARK    1  A    between atoms: C_4  and  O_20
REMARK    2  A    between atoms: C_5  and  O_13
REMARK    3  A    between atoms: C_12  and  C_15
REMARK    4  A    between atoms: C_16  and  C_17
REMARK    5  A    between atoms: C_17  and  O_18
REMARK    6  A    between atoms: O_20  and  C_22
REMARK    7  A    between atoms: C_22  and  C_23
REMARK    8  A    between atoms: C_25  and  O_30
REMARK    9  A    between atoms: C_29  and  O_32
REMARK                            x       y       z     vdW  Elec       q    Type
REMARK                         _______ _______ _______ _____ _____    ______ ____
ROOT
ATOM      1  O   UNL     1     -37.290  30.392   0.809  0.00  0.00    -0.475 OA
ATOM      2  O   UNL     1     -32.155  27.813   3.263  0.00  0.00    -0.289 OA
ATOM      3  C   UNL     1     -35.987  28.694   1.997  0.00  0.00    +0.109 C 
ATOM      4  C   UNL     1     -35.439  27.255   1.999  0.00  0.00    +0.208 C 
ATOM      5  C   UNL     1     -33.928  27.144   1.747  0.00  0.00    +0.180 C 
ATOM      6  C   UNL     1     -34.965  29.751   2.365  0.00  0.00    -0.009 C 
ATOM      7  C   UNL     1     -36.615  29.125   0.670  0.00  0.00    +0.213 C 
ATOM      8  C   UNL     1     -33.181  28.115   2.658  0.00  0.00    +0.200 C 
ATOM      9  C   UNL     1     -33.703  29.502   2.741  0.00  0.00    +0.036 C 
ATOM     10  C   UNL     1     -33.537  27.415   0.294  0.00  0.00    +0.041 C 
ATOM     11  C   UNL     1     -35.470  31.103   2.227  0.00  0.00    +0.033 C 
ATOM     12  C   UNL     1     -36.575  31.356   1.501  0.00  0.00    +0.138 C 
ENDROOT
BRANCH   5  13
ATOM     13  O   UNL     1     -33.487  25.826   2.060  0.00  0.00    -0.376 OA
ATOM     14  H   UNL     1     -32.629  25.663   1.637  0.00  0.00    +0.211 HD
ENDBRANCH   5  13
BRANCH  12  15
ATOM     15  C   UNL     1     -37.119  32.680   1.365  0.00  0.00    +0.035 C 
ATOM     16  C   UNL     1     -38.248  33.077   1.964  0.00  0.00    +0.008 C 
BRANCH  16  17
ATOM     17  C   UNL     1     -38.813  34.455   1.828  0.00  0.00    +0.163 C 
BRANCH  17  18
ATOM     18  O   UNL     1     -39.164  34.933   3.119  0.00  0.00    -0.377 OA
ATOM     19  H   UNL     1     -38.399  34.860   3.710  0.00  0.00    +0.211 HD
ENDBRANCH  17  18
ENDBRANCH  16  17
ENDBRANCH  12  15
BRANCH   4  20
ATOM     20  O   UNL     1     -35.728  26.680   3.287  0.00  0.00    -0.446 OA
BRANCH  20  22
ATOM     21  O   UNL     1     -37.907  26.018   2.951  0.00  0.00    -0.245 OA
ATOM     22  C   UNL     1     -36.765  25.802   3.324  0.00  0.00    +0.344 C 
BRANCH  22  23
ATOM     23  C   UNL     1     -36.326  24.502   3.891  0.00  0.00    +0.105 C 
ATOM     24  C   UNL     1     -35.823  24.435   5.190  0.00  0.00    -0.010 C 
ATOM     25  C   UNL     1     -36.416  23.344   3.118  0.00  0.00    +0.143 C 
ATOM     26  C   UNL     1     -35.411  23.212   5.717  0.00  0.00    +0.033 C 
ATOM     27  C   UNL     1     -36.004  22.120   3.645  0.00  0.00    +0.073 C 
ATOM     28  C   UNL     1     -35.715  25.658   6.042  0.00  0.00    +0.031 C 
ATOM     29  C   UNL     1     -35.500  22.053   4.944  0.00  0.00    +0.136 C 
BRANCH  25  30
ATOM     30  O   UNL     1     -36.904  23.386   1.846  0.00  0.00    -0.505 OA
ATOM     31  H   UNL     1     -37.371  22.653   1.499  0.00  0.00    +0.292 HD
ENDBRANCH  25  30
BRANCH  29  32
ATOM     32  O   UNL     1     -35.098  20.859   5.458  0.00  0.00    -0.505 OA
ATOM     33  H   UNL     1     -34.328  20.441   5.127  0.00  0.00    +0.292 HD
ENDBRANCH  29  32
ENDBRANCH  22  23
ENDBRANCH  20  22
ENDBRANCH   4  20
TORSDOF 9
ENDMDL
MODEL 9
REMARK VINA RESULT:      -6.2      1.760      2.828
REMARK  Name = 57333718
REMARK  9 active torsions:
REMARK  status: ('A' for Active; 'I' for Inactive)
REMARK    1  A    between atoms: C_4  and  O_20
REMARK    2  A    between atoms: C_5  and  O_13
REMARK    3  A    between atoms: C_12  and  C_15
REMARK    4  A    between atoms: C_16  and  C_17
REMARK    5  A    between atoms: C_17  and  O_18
REMARK    6  A    between atoms: O_20  and  C_22
REMARK    7  A    between atoms: C_22  and  C_23
REMARK    8  A    between atoms: C_25  and  O_30
REMARK    9  A    between atoms: C_29  and  O_32
REMARK                            x       y       z     vdW  Elec       q    Type
REMARK                         _______ _______ _______ _____ _____    ______ ____
ROOT
ATOM      1  O   UNL     1     -34.028  27.211   3.005  0.00  0.00    -0.475 OA
ATOM      2  O   UNL     1     -36.226  22.089   5.829  0.00  0.00    -0.289 OA
ATOM      3  C   UNL     1     -35.718  25.561   3.647  0.00  0.00    +0.109 C 
ATOM      4  C   UNL     1     -36.668  24.439   3.186  0.00  0.00    +0.208 C 
ATOM      5  C   UNL     1     -36.229  23.023   3.589  0.00  0.00    +0.180 C 
ATOM      6  C   UNL     1     -34.901  25.219   4.878  0.00  0.00    -0.009 C 
ATOM      7  C   UNL     1     -34.731  26.029   2.574  0.00  0.00    +0.213 C 
ATOM      8  C   UNL     1     -35.877  22.994   5.074  0.00  0.00    +0.200 C 
ATOM      9  C   UNL     1     -35.012  24.087   5.586  0.00  0.00    +0.036 C 
ATOM     10  C   UNL     1     -35.039  22.507   2.779  0.00  0.00    +0.041 C 
ATOM     11  C   UNL     1     -33.922  26.236   5.211  0.00  0.00    +0.033 C 
ATOM     12  C   UNL     1     -33.555  27.163   4.306  0.00  0.00    +0.138 C 
ENDROOT
BRANCH   5  13
ATOM     13  O   UNL     1     -37.305  22.112   3.377  0.00  0.00    -0.376 OA
ATOM     14  H   UNL     1     -37.753  21.941   4.220  0.00  0.00    +0.211 HD
ENDBRANCH   5  13
BRANCH  12  15
ATOM     15  C   UNL     1     -32.608  28.201   4.610  0.00  0.00    +0.035 C 
ATOM     16  C   UNL     1     -32.099  28.399   5.832  0.00  0.00    +0.008 C 
BRANCH  16  17
ATOM     17  C   UNL     1     -31.110  29.474   6.150  0.00  0.00    +0.163 C 
BRANCH  17  18
ATOM     18  O   UNL     1     -30.185  28.975   7.105  0.00  0.00    -0.377 OA
ATOM     19  H   UNL     1     -30.556  29.071   7.996  0.00  0.00    +0.211 HD
ENDBRANCH  17  18
ENDBRANCH  16  17
ENDBRANCH  12  15
BRANCH   4  20
ATOM     20  O   UNL     1     -37.959  24.697   3.767  0.00  0.00    -0.446 OA
BRANCH  20  22
ATOM     21  O   UNL     1     -39.440  26.411   3.358  0.00  0.00    -0.245 OA
ATOM     22  C   UNL     1     -38.817  25.424   3.003  0.00  0.00    +0.344 C 
BRANCH  22  23
ATOM     23  C   UNL     1     -38.906  24.854   1.634  0.00  0.00    +0.105 C 
ATOM     24  C   UNL     1     -38.384  25.552   0.546  0.00  0.00    -0.010 C 
ATOM     25  C   UNL     1     -39.518  23.615   1.439  0.00  0.00    +0.143 C 
ATOM     26  C   UNL     1     -38.473  25.013  -0.737  0.00  0.00    +0.033 C 
ATOM     27  C   UNL     1     -39.607  23.075   0.156  0.00  0.00    +0.073 C 
ATOM     28  C   UNL     1     -37.724  26.881   0.723  0.00  0.00    +0.031 C 
ATOM     29  C   UNL     1     -39.085  23.774  -0.932  0.00  0.00    +0.136 C 
BRANCH  25  30
ATOM     30  O   UNL     1     -40.035  22.916   2.489  0.00  0.00    -0.505 OA
ATOM     31  H   UNL     1     -40.751  23.269   2.980  0.00  0.00    +0.292 HD
ENDBRANCH  25  30
BRANCH  29  32
ATOM     32  O   UNL     1     -39.171  23.247  -2.184  0.00  0.00    -0.505 OA
ATOM     33  H   UNL     1     -38.900  22.364  -2.341  0.00  0.00    +0.292 HD
ENDBRANCH  29  32
ENDBRANCH  22  23
ENDBRANCH  20  22
ENDBRANCH   4  20
TORSDOF 9
ENDMDL
