MODEL 1
REMARK VINA RESULT:      -6.0      0.000      0.000
REMARK  Name = 5391612
REMARK  8 active torsions:
REMARK  status: ('A' for Active; 'I' for Inactive)
REMARK    1  A    between atoms: C_1  and  C_8
REMARK    2  A    between atoms: C_2  and  O_19
REMARK    3  A    between atoms: N_7  and  C_8
REMARK    4  A    between atoms: N_7  and  N_10
REMARK    5  A    between atoms: C_11  and  C_14
REMARK    6  A    between atoms: O_19  and  C_20
REMARK    7  A    between atoms: C_20  and  C_22
REMARK    8  A    between atoms: C_22  and  O_23
REMARK                            x       y       z     vdW  Elec       q    Type
REMARK                         _______ _______ _______ _____ _____    ______ ____
ROOT
ATOM      1  C   UNL     1     -35.695  24.034   5.141  0.00  0.00    +0.031 C 
ATOM      2  C   UNL     1     -35.955  23.683   3.816  0.00  0.00    +0.137 C 
ATOM      3  C   UNL     1     -35.278  23.061   6.052  0.00  0.00    +0.000 C 
ATOM      4  C   UNL     1     -35.799  22.360   3.402  0.00  0.00    +0.037 C 
ATOM      5  C   UNL     1     -35.122  21.738   5.636  0.00  0.00    -0.000 C 
ATOM      6  C   UNL     1     -35.382  21.388   4.311  0.00  0.00    +0.003 C 
ENDROOT
BRANCH   1   7
ATOM      7  C   UNL     1     -35.851  25.408   5.596  0.00  0.00    +0.141 C 
BRANCH   7   8
ATOM      8  N   UNL     1     -35.051  26.366   5.222  0.00  0.00    -0.126 NA
BRANCH   8  10
ATOM      9  O   UNL     1     -33.648  27.287   3.113  0.00  0.00    -0.269 OA
ATOM     10  N   UNL     1     -35.590  27.237   4.334  0.00  0.00    -0.228 N 
ATOM     11  C   UNL     1     -34.808  27.670   3.271  0.00  0.00    +0.260 C 
ATOM     12  H   UNL     1     -36.515  27.556   4.441  0.00  0.00    +0.171 HD
BRANCH  11  14
ATOM     13  N   UNL     1     -36.652  30.458   0.646  0.00  0.00    -0.242 NA
ATOM     14  C   UNL     1     -35.446  28.634   2.363  0.00  0.00    +0.058 C 
ATOM     15  C   UNL     1     -35.255  29.989   2.563  0.00  0.00    +0.025 C 
ATOM     16  C   UNL     1     -36.229  28.175   1.320  0.00  0.00    +0.025 C 
ATOM     17  C   UNL     1     -35.878  30.857   1.680  0.00  0.00    +0.099 C 
ATOM     18  C   UNL     1     -36.808  29.123   0.493  0.00  0.00    +0.099 C 
ENDBRANCH  11  14
ENDBRANCH   8  10
ENDBRANCH   7   8
ENDBRANCH   1   7
BRANCH   2  19
ATOM     19  O   UNL     1     -36.363  24.618   2.912  0.00  0.00    -0.464 OA
BRANCH  19  20
ATOM     20  C   UNL     1     -37.654  24.442   2.336  0.00  0.00    +0.314 C 
BRANCH  20  22
ATOM     21  O   UNL     1     -39.656  24.530   3.710  0.00  0.00    -0.246 OA
ATOM     22  C   UNL     1     -38.693  25.090   3.208  0.00  0.00    +0.359 C 
BRANCH  22  23
ATOM     23  O   UNL     1     -38.414  26.409   3.368  0.00  0.00    -0.478 OA
ATOM     24  H   UNL     1     -38.181  26.931   2.626  0.00  0.00    +0.295 HD
ENDBRANCH  22  23
ENDBRANCH  20  22
ENDBRANCH  19  20
ENDBRANCH   2  19
TORSDOF 8
ENDMDL
MODEL 2
REMARK VINA RESULT:      -5.9      2.504      4.616
REMARK  Name = 5391612
REMARK  8 active torsions:
REMARK  status: ('A' for Active; 'I' for Inactive)
REMARK    1  A    between atoms: C_1  and  C_8
REMARK    2  A    between atoms: C_2  and  O_19
REMARK    3  A    between atoms: N_7  and  C_8
REMARK    4  A    between atoms: N_7  and  N_10
REMARK    5  A    between atoms: C_11  and  C_14
REMARK    6  A    between atoms: O_19  and  C_20
REMARK    7  A    between atoms: C_20  and  C_22
REMARK    8  A    between atoms: C_22  and  O_23
REMARK                            x       y       z     vdW  Elec       q    Type
REMARK                         _______ _______ _______ _____ _____    ______ ____
ROOT
ATOM      1  C   UNL     1     -38.693  23.489   2.372  0.00  0.00    +0.031 C 
ATOM      2  C   UNL     1     -37.630  22.692   2.795  0.00  0.00    +0.137 C 
ATOM      3  C   UNL     1     -39.331  23.217   1.161  0.00  0.00    +0.000 C 
ATOM      4  C   UNL     1     -37.205  21.622   2.008  0.00  0.00    +0.037 C 
ATOM      5  C   UNL     1     -38.906  22.146   0.374  0.00  0.00    -0.000 C 
ATOM      6  C   UNL     1     -37.842  21.349   0.797  0.00  0.00    +0.003 C 
ENDROOT
BRANCH   1   7
ATOM      7  C   UNL     1     -39.154  24.611   3.178  0.00  0.00    +0.141 C 
BRANCH   7   8
ATOM      8  N   UNL     1     -38.670  25.814   3.048  0.00  0.00    -0.126 NA
BRANCH   8  10
ATOM      9  O   UNL     1     -36.262  26.264   1.924  0.00  0.00    -0.269 OA
ATOM     10  N   UNL     1     -37.570  26.064   3.799  0.00  0.00    -0.228 N 
ATOM     11  C   UNL     1     -36.361  26.286   3.152  0.00  0.00    +0.260 C 
ATOM     12  H   UNL     1     -37.626  26.086   4.782  0.00  0.00    +0.171 HD
BRANCH  11  14
ATOM     13  N   UNL     1     -33.016  26.968   5.683  0.00  0.00    -0.242 NA
ATOM     14  C   UNL     1     -35.204  26.523   4.028  0.00  0.00    +0.058 C 
ATOM     15  C   UNL     1     -35.170  25.945   5.283  0.00  0.00    +0.025 C 
ATOM     16  C   UNL     1     -34.164  27.319   3.585  0.00  0.00    +0.025 C 
ATOM     17  C   UNL     1     -34.058  26.198   6.070  0.00  0.00    +0.099 C 
ATOM     18  C   UNL     1     -33.097  27.511   4.447  0.00  0.00    +0.099 C 
ENDBRANCH  11  14
ENDBRANCH   8  10
ENDBRANCH   7   8
ENDBRANCH   1   7
BRANCH   2  19
ATOM     19  O   UNL     1     -36.993  22.942   3.974  0.00  0.00    -0.464 OA
BRANCH  19  20
ATOM     20  C   UNL     1     -35.655  22.469   4.100  0.00  0.00    +0.314 C 
BRANCH  20  22
ATOM     21  O   UNL     1     -35.433  22.647   6.513  0.00  0.00    -0.246 OA
ATOM     22  C   UNL     1     -35.422  21.967   5.498  0.00  0.00    +0.359 C 
BRANCH  22  23
ATOM     23  O   UNL     1     -35.193  20.629   5.484  0.00  0.00    -0.478 OA
ATOM     24  H   UNL     1     -35.909  20.031   5.569  0.00  0.00    +0.295 HD
ENDBRANCH  22  23
ENDBRANCH  20  22
ENDBRANCH  19  20
ENDBRANCH   2  19
TORSDOF 8
ENDMDL
MODEL 3
REMARK VINA RESULT:      -5.8      3.440      5.454
REMARK  Name = 5391612
REMARK  8 active torsions:
REMARK  status: ('A' for Active; 'I' for Inactive)
REMARK    1  A    between atoms: C_1  and  C_8
REMARK    2  A    between atoms: C_2  and  O_19
REMARK    3  A    between atoms: N_7  and  C_8
REMARK    4  A    between atoms: N_7  and  N_10
REMARK    5  A    between atoms: C_11  and  C_14
REMARK    6  A    between atoms: O_19  and  C_20
REMARK    7  A    between atoms: C_20  and  C_22
REMARK    8  A    between atoms: C_22  and  O_23
REMARK                            x       y       z     vdW  Elec       q    Type
REMARK                         _______ _______ _______ _____ _____    ______ ____
ROOT
ATOM      1  C   UNL     1     -34.340  20.180   1.350  0.00  0.00    +0.031 C 
ATOM      2  C   UNL     1     -33.916  21.268   0.587  0.00  0.00    +0.137 C 
ATOM      3  C   UNL     1     -33.526  19.053   1.472  0.00  0.00    +0.000 C 
ATOM      4  C   UNL     1     -32.678  21.228  -0.054  0.00  0.00    +0.037 C 
ATOM      5  C   UNL     1     -32.287  19.015   0.830  0.00  0.00    -0.000 C 
ATOM      6  C   UNL     1     -31.863  20.103   0.068  0.00  0.00    +0.003 C 
ENDROOT
BRANCH   1   7
ATOM      7  C   UNL     1     -35.628  20.199   2.028  0.00  0.00    +0.141 C 
BRANCH   7   8
ATOM      8  N   UNL     1     -35.765  20.583   3.266  0.00  0.00    -0.126 NA
BRANCH   8  10
ATOM      9  O   UNL     1     -35.054  21.620   5.650  0.00  0.00    -0.269 OA
ATOM     10  N   UNL     1     -35.656  21.920   3.456  0.00  0.00    -0.228 N 
ATOM     11  C   UNL     1     -35.285  22.385   4.712  0.00  0.00    +0.260 C 
ATOM     12  H   UNL     1     -35.836  22.549   2.720  0.00  0.00    +0.171 HD
BRANCH  11  14
ATOM     13  N   UNL     1     -35.080  26.609   5.124  0.00  0.00    -0.242 NA
ATOM     14  C   UNL     1     -35.214  23.846   4.855  0.00  0.00    +0.058 C 
ATOM     15  C   UNL     1     -33.982  24.473   4.848  0.00  0.00    +0.025 C 
ATOM     16  C   UNL     1     -36.381  24.576   4.994  0.00  0.00    +0.025 C 
ATOM     17  C   UNL     1     -33.968  25.852   4.986  0.00  0.00    +0.099 C 
ATOM     18  C   UNL     1     -36.260  25.950   5.125  0.00  0.00    +0.099 C 
ENDBRANCH  11  14
ENDBRANCH   8  10
ENDBRANCH   7   8
ENDBRANCH   1   7
BRANCH   2  19
ATOM     19  O   UNL     1     -34.696  22.377   0.456  0.00  0.00    -0.464 OA
BRANCH  19  20
ATOM     20  C   UNL     1     -34.078  23.637   0.708  0.00  0.00    +0.314 C 
BRANCH  20  22
ATOM     21  O   UNL     1     -34.881  25.763   1.567  0.00  0.00    -0.246 OA
ATOM     22  C   UNL     1     -35.090  24.596   1.270  0.00  0.00    +0.359 C 
BRANCH  22  23
ATOM     23  O   UNL     1     -36.293  23.982   1.406  0.00  0.00    -0.478 OA
ATOM     24  H   UNL     1     -36.718  23.614   0.657  0.00  0.00    +0.295 HD
ENDBRANCH  22  23
ENDBRANCH  20  22
ENDBRANCH  19  20
ENDBRANCH   2  19
TORSDOF 8
ENDMDL
MODEL 4
REMARK VINA RESULT:      -5.7      2.831      6.693
REMARK  Name = 5391612
REMARK  8 active torsions:
REMARK  status: ('A' for Active; 'I' for Inactive)
REMARK    1  A    between atoms: C_1  and  C_8
REMARK    2  A    between atoms: C_2  and  O_19
REMARK    3  A    between atoms: N_7  and  C_8
REMARK    4  A    between atoms: N_7  and  N_10
REMARK    5  A    between atoms: C_11  and  C_14
REMARK    6  A    between atoms: O_19  and  C_20
REMARK    7  A    between atoms: C_20  and  C_22
REMARK    8  A    between atoms: C_22  and  O_23
REMARK                            x       y       z     vdW  Elec       q    Type
REMARK                         _______ _______ _______ _____ _____    ______ ____
ROOT
ATOM      1  C   UNL     1     -32.147  28.642   5.511  0.00  0.00    +0.031 C 
ATOM      2  C   UNL     1     -32.121  28.884   4.137  0.00  0.00    +0.137 C 
ATOM      3  C   UNL     1     -31.811  29.659   6.405  0.00  0.00    +0.000 C 
ATOM      4  C   UNL     1     -31.759  30.143   3.659  0.00  0.00    +0.037 C 
ATOM      5  C   UNL     1     -31.449  30.918   5.925  0.00  0.00    -0.000 C 
ATOM      6  C   UNL     1     -31.423  31.160   4.552  0.00  0.00    +0.003 C 
ENDROOT
BRANCH   1   7
ATOM      7  C   UNL     1     -32.522  27.335   6.033  0.00  0.00    +0.141 C 
BRANCH   7   8
ATOM      8  N   UNL     1     -33.751  26.903   6.026  0.00  0.00    -0.126 NA
BRANCH   8  10
ATOM      9  O   UNL     1     -36.179  25.791   5.663  0.00  0.00    -0.269 OA
ATOM     10  N   UNL     1     -33.892  25.611   5.641  0.00  0.00    -0.228 N 
ATOM     11  C   UNL     1     -35.174  25.104   5.473  0.00  0.00    +0.260 C 
ATOM     12  H   UNL     1     -33.102  25.044   5.484  0.00  0.00    +0.171 HD
BRANCH  11  14
ATOM     13  N   UNL     1     -35.404  21.015   4.341  0.00  0.00    -0.242 NA
ATOM     14  C   UNL     1     -35.253  23.689   5.081  0.00  0.00    +0.058 C 
ATOM     15  C   UNL     1     -35.076  22.706   6.037  0.00  0.00    +0.025 C 
ATOM     16  C   UNL     1     -35.505  23.360   3.762  0.00  0.00    +0.025 C 
ATOM     17  C   UNL     1     -35.160  21.388   5.617  0.00  0.00    +0.099 C 
ATOM     18  C   UNL     1     -35.570  22.013   3.444  0.00  0.00    +0.099 C 
ENDBRANCH  11  14
ENDBRANCH   8  10
ENDBRANCH   7   8
ENDBRANCH   1   7
BRANCH   2  19
ATOM     19  O   UNL     1     -32.446  27.904   3.248  0.00  0.00    -0.464 OA
BRANCH  19  20
ATOM     20  C   UNL     1     -33.466  28.202   2.299  0.00  0.00    +0.314 C 
BRANCH  20  22
ATOM     21  O   UNL     1     -35.093  26.423   2.000  0.00  0.00    -0.246 OA
ATOM     22  C   UNL     1     -34.702  27.406   2.612  0.00  0.00    +0.359 C 
BRANCH  22  23
ATOM     23  O   UNL     1     -35.339  27.933   3.688  0.00  0.00    -0.478 OA
ATOM     24  H   UNL     1     -36.038  28.545   3.565  0.00  0.00    +0.295 HD
ENDBRANCH  22  23
ENDBRANCH  20  22
ENDBRANCH  19  20
ENDBRANCH   2  19
TORSDOF 8
ENDMDL
MODEL 5
REMARK VINA RESULT:      -5.7      2.595      3.032
REMARK  Name = 5391612
REMARK  8 active torsions:
REMARK  status: ('A' for Active; 'I' for Inactive)
REMARK    1  A    between atoms: C_1  and  C_8
REMARK    2  A    between atoms: C_2  and  O_19
REMARK    3  A    between atoms: N_7  and  C_8
REMARK    4  A    between atoms: N_7  and  N_10
REMARK    5  A    between atoms: C_11  and  C_14
REMARK    6  A    between atoms: O_19  and  C_20
REMARK    7  A    between atoms: C_20  and  C_22
REMARK    8  A    between atoms: C_22  and  O_23
REMARK                            x       y       z     vdW  Elec       q    Type
REMARK                         _______ _______ _______ _____ _____    ______ ____
ROOT
ATOM      1  C   UNL     1     -35.348  24.079   5.075  0.00  0.00    +0.031 C 
ATOM      2  C   UNL     1     -35.696  23.787   3.757  0.00  0.00    +0.137 C 
ATOM      3  C   UNL     1     -35.064  23.044   5.968  0.00  0.00    +0.000 C 
ATOM      4  C   UNL     1     -35.760  22.461   3.330  0.00  0.00    +0.037 C 
ATOM      5  C   UNL     1     -35.129  21.717   5.540  0.00  0.00    -0.000 C 
ATOM      6  C   UNL     1     -35.477  21.426   4.221  0.00  0.00    +0.003 C 
ENDROOT
BRANCH   1   7
ATOM      7  C   UNL     1     -35.274  25.456   5.542  0.00  0.00    +0.141 C 
BRANCH   7   8
ATOM      8  N   UNL     1     -34.186  25.971   6.041  0.00  0.00    -0.126 NA
BRANCH   8  10
ATOM      9  O   UNL     1     -31.836  27.128   6.674  0.00  0.00    -0.269 OA
ATOM     10  N   UNL     1     -33.750  27.088   5.410  0.00  0.00    -0.228 N 
ATOM     11  C   UNL     1     -32.528  27.631   5.788  0.00  0.00    +0.260 C 
ATOM     12  H   UNL     1     -34.288  27.506   4.699  0.00  0.00    +0.171 HD
BRANCH  11  14
ATOM     13  N   UNL     1     -31.378  31.175   3.745  0.00  0.00    -0.242 NA
ATOM     14  C   UNL     1     -32.131  28.857   5.081  0.00  0.00    +0.058 C 
ATOM     15  C   UNL     1     -31.801  29.986   5.807  0.00  0.00    +0.025 C 
ATOM     16  C   UNL     1     -32.091  28.865   3.699  0.00  0.00    +0.025 C 
ATOM     17  C   UNL     1     -31.433  31.116   5.094  0.00  0.00    +0.099 C 
ATOM     18  C   UNL     1     -31.709  30.045   3.080  0.00  0.00    +0.099 C 
ENDBRANCH  11  14
ENDBRANCH   8  10
ENDBRANCH   7   8
ENDBRANCH   1   7
BRANCH   2  19
ATOM     19  O   UNL     1     -35.976  24.783   2.870  0.00  0.00    -0.464 OA
BRANCH  19  20
ATOM     20  C   UNL     1     -37.237  24.725   2.208  0.00  0.00    +0.314 C 
BRANCH  20  22
ATOM     21  O   UNL     1     -39.216  24.414   3.582  0.00  0.00    -0.246 OA
ATOM     22  C   UNL     1     -38.329  25.138   3.155  0.00  0.00    +0.359 C 
BRANCH  22  23
ATOM     23  O   UNL     1     -38.196  26.448   3.481  0.00  0.00    -0.478 OA
ATOM     24  H   UNL     1     -37.617  26.997   2.989  0.00  0.00    +0.295 HD
ENDBRANCH  22  23
ENDBRANCH  20  22
ENDBRANCH  19  20
ENDBRANCH   2  19
TORSDOF 8
ENDMDL
MODEL 6
REMARK VINA RESULT:      -5.6      2.444      3.100
REMARK  Name = 5391612
REMARK  8 active torsions:
REMARK  status: ('A' for Active; 'I' for Inactive)
REMARK    1  A    between atoms: C_1  and  C_8
REMARK    2  A    between atoms: C_2  and  O_19
REMARK    3  A    between atoms: N_7  and  C_8
REMARK    4  A    between atoms: N_7  and  N_10
REMARK    5  A    between atoms: C_11  and  C_14
REMARK    6  A    between atoms: O_19  and  C_20
REMARK    7  A    between atoms: C_20  and  C_22
REMARK    8  A    between atoms: C_22  and  O_23
REMARK                            x       y       z     vdW  Elec       q    Type
REMARK                         _______ _______ _______ _____ _____    ______ ____
ROOT
ATOM      1  C   UNL     1     -35.721  24.047   5.158  0.00  0.00    +0.031 C 
ATOM      2  C   UNL     1     -35.959  23.726   3.822  0.00  0.00    +0.137 C 
ATOM      3  C   UNL     1     -35.336  23.051   6.057  0.00  0.00    +0.000 C 
ATOM      4  C   UNL     1     -35.812  22.409   3.385  0.00  0.00    +0.037 C 
ATOM      5  C   UNL     1     -35.190  21.735   5.619  0.00  0.00    -0.000 C 
ATOM      6  C   UNL     1     -35.428  21.414   4.283  0.00  0.00    +0.003 C 
ENDROOT
BRANCH   1   7
ATOM      7  C   UNL     1     -35.868  25.414   5.636  0.00  0.00    +0.141 C 
BRANCH   7   8
ATOM      8  N   UNL     1     -34.887  26.272   5.624  0.00  0.00    -0.126 NA
BRANCH   8  10
ATOM      9  O   UNL     1     -34.292  28.118   3.753  0.00  0.00    -0.269 OA
ATOM     10  N   UNL     1     -33.951  26.043   4.671  0.00  0.00    -0.228 N 
ATOM     11  C   UNL     1     -33.696  27.040   3.738  0.00  0.00    +0.260 C 
ATOM     12  H   UNL     1     -33.462  25.189   4.641  0.00  0.00    +0.171 HD
BRANCH  11  14
ATOM     13  N   UNL     1     -30.786  26.099   0.787  0.00  0.00    -0.242 NA
ATOM     14  C   UNL     1     -32.689  26.714   2.717  0.00  0.00    +0.058 C 
ATOM     15  C   UNL     1     -32.987  25.786   1.737  0.00  0.00    +0.025 C 
ATOM     16  C   UNL     1     -31.457  27.341   2.749  0.00  0.00    +0.025 C 
ATOM     17  C   UNL     1     -32.005  25.513   0.799  0.00  0.00    +0.099 C 
ATOM     18  C   UNL     1     -30.543  27.000   1.765  0.00  0.00    +0.099 C 
ENDBRANCH  11  14
ENDBRANCH   8  10
ENDBRANCH   7   8
ENDBRANCH   1   7
BRANCH   2  19
ATOM     19  O   UNL     1     -36.336  24.683   2.928  0.00  0.00    -0.464 OA
BRANCH  19  20
ATOM     20  C   UNL     1     -37.605  24.520   2.301  0.00  0.00    +0.314 C 
BRANCH  20  22
ATOM     21  O   UNL     1     -39.611  24.493   3.671  0.00  0.00    -0.246 OA
ATOM     22  C   UNL     1     -38.682  25.108   3.170  0.00  0.00    +0.359 C 
BRANCH  22  23
ATOM     23  O   UNL     1     -38.480  26.441   3.329  0.00  0.00    -0.478 OA
ATOM     24  H   UNL     1     -38.357  26.797   4.186  0.00  0.00    +0.295 HD
ENDBRANCH  22  23
ENDBRANCH  20  22
ENDBRANCH  19  20
ENDBRANCH   2  19
TORSDOF 8
ENDMDL
MODEL 7
REMARK VINA RESULT:      -5.6      2.396      3.437
REMARK  Name = 5391612
REMARK  8 active torsions:
REMARK  status: ('A' for Active; 'I' for Inactive)
REMARK    1  A    between atoms: C_1  and  C_8
REMARK    2  A    between atoms: C_2  and  O_19
REMARK    3  A    between atoms: N_7  and  C_8
REMARK    4  A    between atoms: N_7  and  N_10
REMARK    5  A    between atoms: C_11  and  C_14
REMARK    6  A    between atoms: O_19  and  C_20
REMARK    7  A    between atoms: C_20  and  C_22
REMARK    8  A    between atoms: C_22  and  O_23
REMARK                            x       y       z     vdW  Elec       q    Type
REMARK                         _______ _______ _______ _____ _____    ______ ____
ROOT
ATOM      1  C   UNL     1     -35.738  24.070   5.170  0.00  0.00    +0.031 C 
ATOM      2  C   UNL     1     -36.018  23.664   3.865  0.00  0.00    +0.137 C 
ATOM      3  C   UNL     1     -35.258  23.147   6.101  0.00  0.00    +0.000 C 
ATOM      4  C   UNL     1     -35.819  22.336   3.491  0.00  0.00    +0.037 C 
ATOM      5  C   UNL     1     -35.060  21.818   5.725  0.00  0.00    -0.000 C 
ATOM      6  C   UNL     1     -35.340  21.412   4.421  0.00  0.00    +0.003 C 
ENDROOT
BRANCH   1   7
ATOM      7  C   UNL     1     -35.938  25.452   5.583  0.00  0.00    +0.141 C 
BRANCH   7   8
ATOM      8  N   UNL     1     -35.569  26.464   4.849  0.00  0.00    -0.126 NA
BRANCH   8  10
ATOM      9  O   UNL     1     -33.852  27.297   2.946  0.00  0.00    -0.269 OA
ATOM     10  N   UNL     1     -34.353  26.973   5.162  0.00  0.00    -0.228 N 
ATOM     11  C   UNL     1     -33.519  27.383   4.130  0.00  0.00    +0.260 C 
ATOM     12  H   UNL     1     -34.066  27.050   6.101  0.00  0.00    +0.171 HD
BRANCH  11  14
ATOM     13  N   UNL     1     -29.718  28.871   5.314  0.00  0.00    -0.242 NA
ATOM     14  C   UNL     1     -32.204  27.898   4.539  0.00  0.00    +0.058 C 
ATOM     15  C   UNL     1     -31.974  28.200   5.869  0.00  0.00    +0.025 C 
ATOM     16  C   UNL     1     -31.214  28.074   3.590  0.00  0.00    +0.025 C 
ATOM     17  C   UNL     1     -30.719  28.683   6.204  0.00  0.00    +0.099 C 
ATOM     18  C   UNL     1     -29.993  28.561   4.027  0.00  0.00    +0.099 C 
ENDBRANCH  11  14
ENDBRANCH   8  10
ENDBRANCH   7   8
ENDBRANCH   1   7
BRANCH   2  19
ATOM     19  O   UNL     1     -36.487  24.550   2.942  0.00  0.00    -0.464 OA
BRANCH  19  20
ATOM     20  C   UNL     1     -37.794  24.315   2.424  0.00  0.00    +0.314 C 
BRANCH  20  22
ATOM     21  O   UNL     1     -39.826  24.590   3.726  0.00  0.00    -0.246 OA
ATOM     22  C   UNL     1     -38.809  25.063   3.244  0.00  0.00    +0.359 C 
BRANCH  22  23
ATOM     23  O   UNL     1     -38.436  26.361   3.379  0.00  0.00    -0.478 OA
ATOM     24  H   UNL     1     -39.087  27.025   3.503  0.00  0.00    +0.295 HD
ENDBRANCH  22  23
ENDBRANCH  20  22
ENDBRANCH  19  20
ENDBRANCH   2  19
TORSDOF 8
ENDMDL
MODEL 8
REMARK VINA RESULT:      -5.5      2.671      3.586
REMARK  Name = 5391612
REMARK  8 active torsions:
REMARK  status: ('A' for Active; 'I' for Inactive)
REMARK    1  A    between atoms: C_1  and  C_8
REMARK    2  A    between atoms: C_2  and  O_19
REMARK    3  A    between atoms: N_7  and  C_8
REMARK    4  A    between atoms: N_7  and  N_10
REMARK    5  A    between atoms: C_11  and  C_14
REMARK    6  A    between atoms: O_19  and  C_20
REMARK    7  A    between atoms: C_20  and  C_22
REMARK    8  A    between atoms: C_22  and  O_23
REMARK                            x       y       z     vdW  Elec       q    Type
REMARK                         _______ _______ _______ _____ _____    ______ ____
ROOT
ATOM      1  C   UNL     1     -35.862  23.972   4.588  0.00  0.00    +0.031 C 
ATOM      2  C   UNL     1     -35.933  22.956   3.636  0.00  0.00    +0.137 C 
ATOM      3  C   UNL     1     -35.414  23.689   5.880  0.00  0.00    +0.000 C 
ATOM      4  C   UNL     1     -35.557  21.656   3.975  0.00  0.00    +0.037 C 
ATOM      5  C   UNL     1     -35.038  22.389   6.218  0.00  0.00    -0.000 C 
ATOM      6  C   UNL     1     -35.109  21.372   5.265  0.00  0.00    +0.003 C 
ENDROOT
BRANCH   1   7
ATOM      7  C   UNL     1     -36.250  25.336   4.257  0.00  0.00    +0.141 C 
BRANCH   7   8
ATOM      8  N   UNL     1     -35.562  26.083   3.440  0.00  0.00    -0.126 NA
BRANCH   8  10
ATOM      9  O   UNL     1     -32.895  25.869   3.763  0.00  0.00    -0.269 OA
ATOM     10  N   UNL     1     -34.838  27.057   4.042  0.00  0.00    -0.228 N 
ATOM     11  C   UNL     1     -33.466  26.880   4.175  0.00  0.00    +0.260 C 
ATOM     12  H   UNL     1     -35.274  27.873   4.380  0.00  0.00    +0.171 HD
BRANCH  11  14
ATOM     13  N   UNL     1     -31.391  30.010   6.164  0.00  0.00    -0.242 NA
ATOM     14  C   UNL     1     -32.748  27.963   4.863  0.00  0.00    +0.058 C 
ATOM     15  C   UNL     1     -32.453  29.127   4.179  0.00  0.00    +0.025 C 
ATOM     16  C   UNL     1     -32.378  27.803   6.186  0.00  0.00    +0.025 C 
ATOM     17  C   UNL     1     -31.774  30.117   4.872  0.00  0.00    +0.099 C 
ATOM     18  C   UNL     1     -31.703  28.852   6.789  0.00  0.00    +0.099 C 
ENDBRANCH  11  14
ENDBRANCH   8  10
ENDBRANCH   7   8
ENDBRANCH   1   7
BRANCH   2  19
ATOM     19  O   UNL     1     -36.368  23.211   2.370  0.00  0.00    -0.464 OA
BRANCH  19  20
ATOM     20  C   UNL     1     -37.134  22.194   1.730  0.00  0.00    +0.314 C 
BRANCH  20  22
ATOM     21  O   UNL     1     -39.187  23.298   2.414  0.00  0.00    -0.246 OA
ATOM     22  C   UNL     1     -38.565  22.272   2.185  0.00  0.00    +0.359 C 
BRANCH  22  23
ATOM     23  O   UNL     1     -39.085  21.024   2.310  0.00  0.00    -0.478 OA
ATOM     24  H   UNL     1     -38.661  20.297   1.899  0.00  0.00    +0.295 HD
ENDBRANCH  22  23
ENDBRANCH  20  22
ENDBRANCH  19  20
ENDBRANCH   2  19
TORSDOF 8
ENDMDL
MODEL 9
REMARK VINA RESULT:      -5.5      4.453      7.187
REMARK  Name = 5391612
REMARK  8 active torsions:
REMARK  status: ('A' for Active; 'I' for Inactive)
REMARK    1  A    between atoms: C_1  and  C_8
REMARK    2  A    between atoms: C_2  and  O_19
REMARK    3  A    between atoms: N_7  and  C_8
REMARK    4  A    between atoms: N_7  and  N_10
REMARK    5  A    between atoms: C_11  and  C_14
REMARK    6  A    between atoms: O_19  and  C_20
REMARK    7  A    between atoms: C_20  and  C_22
REMARK    8  A    between atoms: C_22  and  O_23
REMARK                            x       y       z     vdW  Elec       q    Type
REMARK                         _______ _______ _______ _____ _____    ______ ____
ROOT
ATOM      1  C   UNL     1     -35.823  22.380   3.810  0.00  0.00    +0.031 C 
ATOM      2  C   UNL     1     -35.827  23.770   3.688  0.00  0.00    +0.137 C 
ATOM      3  C   UNL     1     -35.486  21.787   5.028  0.00  0.00    +0.000 C 
ATOM      4  C   UNL     1     -35.494  24.566   4.784  0.00  0.00    +0.037 C 
ATOM      5  C   UNL     1     -35.154  22.585   6.123  0.00  0.00    -0.000 C 
ATOM      6  C   UNL     1     -35.157  23.975   6.001  0.00  0.00    +0.003 C 
ENDROOT
BRANCH   1   7
ATOM      7  C   UNL     1     -36.167  21.530   2.680  0.00  0.00    +0.141 C 
BRANCH   7   8
ATOM      8  N   UNL     1     -35.820  20.275   2.614  0.00  0.00    -0.126 NA
BRANCH   8  10
ATOM      9  O   UNL     1     -35.153  19.027   0.321  0.00  0.00    -0.269 OA
ATOM     10  N   UNL     1     -34.526  20.066   2.268  0.00  0.00    -0.228 N 
ATOM     11  C   UNL     1     -34.256  19.415   1.071  0.00  0.00    +0.260 C 
ATOM     12  H   UNL     1     -33.794  20.367   2.853  0.00  0.00    +0.171 HD
BRANCH  11  14
ATOM     13  N   UNL     1     -30.144  18.782   0.207  0.00  0.00    -0.242 NA
ATOM     14  C   UNL     1     -32.833  19.196   0.772  0.00  0.00    +0.058 C 
ATOM     15  C   UNL     1     -32.207  18.053   1.234  0.00  0.00    +0.025 C 
ATOM     16  C   UNL     1     -32.139  20.136   0.033  0.00  0.00    +0.025 C 
ATOM     17  C   UNL     1     -30.866  17.894   0.927  0.00  0.00    +0.099 C 
ATOM     18  C   UNL     1     -30.801  19.883  -0.222  0.00  0.00    +0.099 C 
ENDBRANCH  11  14
ENDBRANCH   8  10
ENDBRANCH   7   8
ENDBRANCH   1   7
BRANCH   2  19
ATOM     19  O   UNL     1     -36.152  24.368   2.508  0.00  0.00    -0.464 OA
BRANCH  19  20
ATOM     20  C   UNL     1     -36.836  25.616   2.581  0.00  0.00    +0.314 C 
BRANCH  20  22
ATOM     21  O   UNL     1     -38.934  24.420   2.309  0.00  0.00    -0.246 OA
ATOM     22  C   UNL     1     -38.313  25.379   2.742  0.00  0.00    +0.359 C 
BRANCH  22  23
ATOM     23  O   UNL     1     -38.875  26.393   3.448  0.00  0.00    -0.478 OA
ATOM     24  H   UNL     1     -38.569  27.271   3.331  0.00  0.00    +0.295 HD
ENDBRANCH  22  23
ENDBRANCH  20  22
ENDBRANCH  19  20
ENDBRANCH   2  19
TORSDOF 8
ENDMDL
