MODEL 1
REMARK VINA RESULT:      -5.3      0.000      0.000
REMARK  Name = 5324460
REMARK  3 active torsions:
REMARK  status: ('A' for Active; 'I' for Inactive)
REMARK    1  A    between atoms: C_2  and  C_10
REMARK    2  A    between atoms: C_4  and  N_8
REMARK    3  A    between atoms: N_9  and  N_11
REMARK                            x       y       z     vdW  Elec       q    Type
REMARK                         _______ _______ _______ _____ _____    ______ ____
ROOT
ATOM      1  O   UNL     1     -35.168  23.333   3.986  0.00  0.00    -0.431 OA
ATOM      2  C   UNL     1     -34.914  23.886   5.201  0.00  0.00    +0.168 C 
ATOM      3  C   UNL     1     -35.062  22.950   6.198  0.00  0.00    +0.044 C 
ATOM      4  C   UNL     1     -35.482  22.030   4.210  0.00  0.00    +0.289 C 
ATOM      5  C   UNL     1     -35.432  21.745   5.554  0.00  0.00    +0.066 C 
ENDROOT
BRANCH   4   8
ATOM      6  O   UNL     1     -35.113  20.234   2.811  0.00  0.00    -0.123 OA
ATOM      7  O   UNL     1     -36.717  21.643   2.302  0.00  0.00    -0.123 OA
ATOM      8  N   UNL     1     -35.780  21.279   3.072  0.00  0.00    +0.093 N 
ENDBRANCH   4   8
BRANCH   2  10
ATOM      9  N   UNL     1     -33.415  25.709   4.782  0.00  0.00    -0.166 NA
ATOM     10  C   UNL     1     -34.556  25.262   5.245  0.00  0.00    +0.156 C 
BRANCH   9  11
ATOM     11  N   UNL     1     -33.102  27.044   4.880  0.00  0.00    -0.146 N 
ATOM     12  N   UNL     1     -32.883  29.132   4.387  0.00  0.00    -0.126 NA
ATOM     13  N   UNL     1     -32.393  28.924   5.661  0.00  0.00    -0.126 NA
ATOM     14  C   UNL     1     -33.308  27.974   3.934  0.00  0.00    +0.213 C 
ATOM     15  C   UNL     1     -32.537  27.648   5.936  0.00  0.00    +0.213 C 
ENDBRANCH   9  11
ENDBRANCH   2  10
TORSDOF 3
ENDMDL
MODEL 2
REMARK VINA RESULT:      -5.3      4.304      6.240
REMARK  Name = 5324460
REMARK  3 active torsions:
REMARK  status: ('A' for Active; 'I' for Inactive)
REMARK    1  A    between atoms: C_2  and  C_10
REMARK    2  A    between atoms: C_4  and  N_8
REMARK    3  A    between atoms: N_9  and  N_11
REMARK                            x       y       z     vdW  Elec       q    Type
REMARK                         _______ _______ _______ _____ _____    ______ ____
ROOT
ATOM      1  O   UNL     1     -33.602  18.960   1.662  0.00  0.00    -0.431 OA
ATOM      2  C   UNL     1     -34.757  19.598   1.336  0.00  0.00    +0.168 C 
ATOM      3  C   UNL     1     -35.302  19.056   0.195  0.00  0.00    +0.044 C 
ATOM      4  C   UNL     1     -33.408  18.001   0.719  0.00  0.00    +0.289 C 
ATOM      5  C   UNL     1     -34.426  18.019  -0.205  0.00  0.00    +0.066 C 
ENDROOT
BRANCH   4   8
ATOM      6  O   UNL     1     -31.290  17.664   1.566  0.00  0.00    -0.123 OA
ATOM      7  O   UNL     1     -32.188  16.082   0.339  0.00  0.00    -0.123 OA
ATOM      8  N   UNL     1     -32.259  17.225   0.879  0.00  0.00    +0.093 N 
ENDBRANCH   4   8
BRANCH   2  10
ATOM      9  N   UNL     1     -35.040  20.638   3.476  0.00  0.00    -0.166 NA
ATOM     10  C   UNL     1     -35.192  20.661   2.175  0.00  0.00    +0.156 C 
BRANCH   9  11
ATOM     11  N   UNL     1     -35.508  21.676   4.247  0.00  0.00    -0.146 N 
ATOM     12  N   UNL     1     -35.910  22.935   5.951  0.00  0.00    -0.126 NA
ATOM     13  N   UNL     1     -36.497  23.499   4.836  0.00  0.00    -0.126 NA
ATOM     14  C   UNL     1     -35.315  21.827   5.567  0.00  0.00    +0.213 C 
ATOM     15  C   UNL     1     -36.239  22.714   3.815  0.00  0.00    +0.213 C 
ENDBRANCH   9  11
ENDBRANCH   2  10
TORSDOF 3
ENDMDL
MODEL 3
REMARK VINA RESULT:      -5.3      3.469      6.793
REMARK  Name = 5324460
REMARK  3 active torsions:
REMARK  status: ('A' for Active; 'I' for Inactive)
REMARK    1  A    between atoms: C_2  and  C_10
REMARK    2  A    between atoms: C_4  and  N_8
REMARK    3  A    between atoms: N_9  and  N_11
REMARK                            x       y       z     vdW  Elec       q    Type
REMARK                         _______ _______ _______ _____ _____    ______ ____
ROOT
ATOM      1  O   UNL     1     -35.869  24.513   3.939  0.00  0.00    -0.431 OA
ATOM      2  C   UNL     1     -36.230  23.203   3.990  0.00  0.00    +0.168 C 
ATOM      3  C   UNL     1     -35.549  22.554   4.994  0.00  0.00    +0.044 C 
ATOM      4  C   UNL     1     -34.948  24.700   4.920  0.00  0.00    +0.289 C 
ATOM      5  C   UNL     1     -34.717  23.526   5.597  0.00  0.00    +0.066 C 
ENDROOT
BRANCH   4   8
ATOM      6  O   UNL     1     -33.280  26.188   5.488  0.00  0.00    -0.123 OA
ATOM      7  O   UNL     1     -35.160  26.984   4.682  0.00  0.00    -0.123 OA
ATOM      8  N   UNL     1     -34.447  25.998   5.034  0.00  0.00    +0.093 N 
ENDBRANCH   4   8
BRANCH   2  10
ATOM      9  N   UNL     1     -38.417  23.215   3.009  0.00  0.00    -0.166 NA
ATOM     10  C   UNL     1     -37.196  22.741   3.054  0.00  0.00    +0.156 C 
BRANCH   9  11
ATOM     11  N   UNL     1     -39.324  22.711   2.107  0.00  0.00    -0.146 N 
ATOM     12  N   UNL     1     -40.849  22.604   0.586  0.00  0.00    -0.126 NA
ATOM     13  N   UNL     1     -40.494  21.319   0.948  0.00  0.00    -0.126 NA
ATOM     14  C   UNL     1     -40.123  23.431   1.305  0.00  0.00    +0.213 C 
ATOM     15  C   UNL     1     -39.566  21.412   1.873  0.00  0.00    +0.213 C 
ENDBRANCH   9  11
ENDBRANCH   2  10
TORSDOF 3
ENDMDL
MODEL 4
REMARK VINA RESULT:      -5.3      1.856      2.631
REMARK  Name = 5324460
REMARK  3 active torsions:
REMARK  status: ('A' for Active; 'I' for Inactive)
REMARK    1  A    between atoms: C_2  and  C_10
REMARK    2  A    between atoms: C_4  and  N_8
REMARK    3  A    between atoms: N_9  and  N_11
REMARK                            x       y       z     vdW  Elec       q    Type
REMARK                         _______ _______ _______ _____ _____    ______ ____
ROOT
ATOM      1  O   UNL     1     -34.439  24.483   5.721  0.00  0.00    -0.431 OA
ATOM      2  C   UNL     1     -34.560  25.830   5.576  0.00  0.00    +0.168 C 
ATOM      3  C   UNL     1     -35.804  26.153   5.088  0.00  0.00    +0.044 C 
ATOM      4  C   UNL     1     -35.619  23.942   5.320  0.00  0.00    +0.289 C 
ATOM      5  C   UNL     1     -36.492  24.927   4.921  0.00  0.00    +0.066 C 
ENDROOT
BRANCH   4   8
ATOM      6  O   UNL     1     -35.984  21.991   6.493  0.00  0.00    -0.123 OA
ATOM      7  O   UNL     1     -35.485  21.850   4.361  0.00  0.00    -0.123 OA
ATOM      8  N   UNL     1     -35.698  22.551   5.394  0.00  0.00    +0.093 N 
ENDBRANCH   4   8
BRANCH   2  10
ATOM      9  N   UNL     1     -33.043  27.645   5.193  0.00  0.00    -0.166 NA
ATOM     10  C   UNL     1     -33.446  26.641   5.931  0.00  0.00    +0.156 C 
BRANCH   9  11
ATOM     11  N   UNL     1     -31.939  28.378   5.562  0.00  0.00    -0.146 N 
ATOM     12  N   UNL     1     -29.996  29.311   5.509  0.00  0.00    -0.126 NA
ATOM     13  N   UNL     1     -30.603  29.620   6.710  0.00  0.00    -0.126 NA
ATOM     14  C   UNL     1     -30.829  28.555   4.829  0.00  0.00    +0.213 C 
ATOM     15  C   UNL     1     -31.781  29.041   6.717  0.00  0.00    +0.213 C 
ENDBRANCH   9  11
ENDBRANCH   2  10
TORSDOF 3
ENDMDL
MODEL 5
REMARK VINA RESULT:      -5.2      1.697      2.198
REMARK  Name = 5324460
REMARK  3 active torsions:
REMARK  status: ('A' for Active; 'I' for Inactive)
REMARK    1  A    between atoms: C_2  and  C_10
REMARK    2  A    between atoms: C_4  and  N_8
REMARK    3  A    between atoms: N_9  and  N_11
REMARK                            x       y       z     vdW  Elec       q    Type
REMARK                         _______ _______ _______ _____ _____    ______ ____
ROOT
ATOM      1  O   UNL     1     -34.634  24.151   5.473  0.00  0.00    -0.431 OA
ATOM      2  C   UNL     1     -34.377  25.155   4.594  0.00  0.00    +0.168 C 
ATOM      3  C   UNL     1     -34.653  24.754   3.308  0.00  0.00    +0.044 C 
ATOM      4  C   UNL     1     -35.078  23.097   4.740  0.00  0.00    +0.289 C 
ATOM      5  C   UNL     1     -35.107  23.417   3.403  0.00  0.00    +0.066 C 
ENDROOT
BRANCH   4   8
ATOM      6  O   UNL     1     -35.071  20.809   5.031  0.00  0.00    -0.123 OA
ATOM      7  O   UNL     1     -36.023  22.055   6.566  0.00  0.00    -0.123 OA
ATOM      8  N   UNL     1     -35.401  21.951   5.468  0.00  0.00    +0.093 N 
ENDBRANCH   4   8
BRANCH   2  10
ATOM      9  N   UNL     1     -32.777  26.937   4.699  0.00  0.00    -0.166 NA
ATOM     10  C   UNL     1     -33.892  26.388   5.114  0.00  0.00    +0.156 C 
BRANCH   9  11
ATOM     11  N   UNL     1     -32.334  28.113   5.258  0.00  0.00    -0.146 N 
ATOM     12  N   UNL     1     -31.746  30.176   5.477  0.00  0.00    -0.126 NA
ATOM     13  N   UNL     1     -31.606  29.544   6.697  0.00  0.00    -0.126 NA
ATOM     14  C   UNL     1     -32.189  29.284   4.619  0.00  0.00    +0.213 C 
ATOM     15  C   UNL     1     -31.970  28.292   6.536  0.00  0.00    +0.213 C 
ENDBRANCH   9  11
ENDBRANCH   2  10
TORSDOF 3
ENDMDL
MODEL 6
REMARK VINA RESULT:      -5.2      1.857      2.740
REMARK  Name = 5324460
REMARK  3 active torsions:
REMARK  status: ('A' for Active; 'I' for Inactive)
REMARK    1  A    between atoms: C_2  and  C_10
REMARK    2  A    between atoms: C_4  and  N_8
REMARK    3  A    between atoms: N_9  and  N_11
REMARK                            x       y       z     vdW  Elec       q    Type
REMARK                         _______ _______ _______ _____ _____    ______ ____
ROOT
ATOM      1  O   UNL     1     -34.434  24.469   5.695  0.00  0.00    -0.431 OA
ATOM      2  C   UNL     1     -34.531  25.818   5.561  0.00  0.00    +0.168 C 
ATOM      3  C   UNL     1     -35.776  26.169   5.095  0.00  0.00    +0.044 C 
ATOM      4  C   UNL     1     -35.631  23.954   5.309  0.00  0.00    +0.289 C 
ATOM      5  C   UNL     1     -36.490  24.958   4.931  0.00  0.00    +0.066 C 
ENDROOT
BRANCH   4   8
ATOM      6  O   UNL     1     -35.551  21.866   4.334  0.00  0.00    -0.123 OA
ATOM      7  O   UNL     1     -36.014  22.002   6.475  0.00  0.00    -0.123 OA
ATOM      8  N   UNL     1     -35.736  22.564   5.374  0.00  0.00    +0.093 N 
ENDBRANCH   4   8
BRANCH   2  10
ATOM      9  N   UNL     1     -33.074  27.697   5.254  0.00  0.00    -0.166 NA
ATOM     10  C   UNL     1     -33.396  26.605   5.904  0.00  0.00    +0.156 C 
BRANCH   9  11
ATOM     11  N   UNL     1     -31.947  28.403   5.603  0.00  0.00    -0.146 N 
ATOM     12  N   UNL     1     -30.577  29.646   6.711  0.00  0.00    -0.126 NA
ATOM     13  N   UNL     1     -29.970  29.261   5.532  0.00  0.00    -0.126 NA
ATOM     14  C   UNL     1     -31.778  29.112   6.730  0.00  0.00    +0.213 C 
ATOM     15  C   UNL     1     -30.824  28.507   4.877  0.00  0.00    +0.213 C 
ENDBRANCH   9  11
ENDBRANCH   2  10
TORSDOF 3
ENDMDL
MODEL 7
REMARK VINA RESULT:      -5.1      4.472      5.326
REMARK  Name = 5324460
REMARK  3 active torsions:
REMARK  status: ('A' for Active; 'I' for Inactive)
REMARK    1  A    between atoms: C_2  and  C_10
REMARK    2  A    between atoms: C_4  and  N_8
REMARK    3  A    between atoms: N_9  and  N_11
REMARK                            x       y       z     vdW  Elec       q    Type
REMARK                         _______ _______ _______ _____ _____    ______ ____
ROOT
ATOM      1  O   UNL     1     -36.549  23.253   4.068  0.00  0.00    -0.431 OA
ATOM      2  C   UNL     1     -36.625  24.574   4.380  0.00  0.00    +0.168 C 
ATOM      3  C   UNL     1     -35.714  24.891   5.360  0.00  0.00    +0.044 C 
ATOM      4  C   UNL     1     -35.580  22.722   4.859  0.00  0.00    +0.289 C 
ATOM      5  C   UNL     1     -35.036  23.689   5.671  0.00  0.00    +0.066 C 
ENDROOT
BRANCH   4   8
ATOM      6  O   UNL     1     -35.082  20.630   5.691  0.00  0.00    -0.123 OA
ATOM      7  O   UNL     1     -35.399  20.847   3.530  0.00  0.00    -0.123 OA
ATOM      8  N   UNL     1     -35.346  21.357   4.688  0.00  0.00    +0.093 N 
ENDBRANCH   4   8
BRANCH   2  10
ATOM      9  N   UNL     1     -38.837  25.025   3.575  0.00  0.00    -0.166 NA
ATOM     10  C   UNL     1     -37.578  25.370   3.685  0.00  0.00    +0.156 C 
BRANCH   9  11
ATOM     11  N   UNL     1     -39.711  25.811   2.863  0.00  0.00    -0.146 N 
ATOM     12  N   UNL     1     -41.461  26.954   2.329  0.00  0.00    -0.126 NA
ATOM     13  N   UNL     1     -40.561  27.007   1.283  0.00  0.00    -0.126 NA
ATOM     14  C   UNL     1     -40.921  26.221   3.278  0.00  0.00    +0.213 C 
ATOM     15  C   UNL     1     -39.508  26.304   1.633  0.00  0.00    +0.213 C 
ENDBRANCH   9  11
ENDBRANCH   2  10
TORSDOF 3
ENDMDL
MODEL 8
REMARK VINA RESULT:      -5.1      4.159      7.112
REMARK  Name = 5324460
REMARK  3 active torsions:
REMARK  status: ('A' for Active; 'I' for Inactive)
REMARK    1  A    between atoms: C_2  and  C_10
REMARK    2  A    between atoms: C_4  and  N_8
REMARK    3  A    between atoms: N_9  and  N_11
REMARK                            x       y       z     vdW  Elec       q    Type
REMARK                         _______ _______ _______ _____ _____    ______ ____
ROOT
ATOM      1  O   UNL     1     -31.069  27.568   6.021  0.00  0.00    -0.431 OA
ATOM      2  C   UNL     1     -32.192  28.124   5.495  0.00  0.00    +0.168 C 
ATOM      3  C   UNL     1     -32.060  29.491   5.411  0.00  0.00    +0.044 C 
ATOM      4  C   UNL     1     -30.212  28.591   6.276  0.00  0.00    +0.289 C 
ATOM      5  C   UNL     1     -30.774  29.794   5.919  0.00  0.00    +0.066 C 
ENDROOT
BRANCH   4   8
ATOM      6  O   UNL     1     -28.650  27.001   6.869  0.00  0.00    -0.123 OA
ATOM      7  O   UNL     1     -28.203  29.110   7.283  0.00  0.00    -0.123 OA
ATOM      8  N   UNL     1     -28.983  28.222   6.827  0.00  0.00    +0.093 N 
ENDBRANCH   4   8
BRANCH   2  10
ATOM      9  N   UNL     1     -33.867  26.489   6.009  0.00  0.00    -0.166 NA
ATOM     10  C   UNL     1     -33.261  27.256   5.137  0.00  0.00    +0.156 C 
BRANCH   9  11
ATOM     11  N   UNL     1     -34.872  25.642   5.606  0.00  0.00    -0.146 N 
ATOM     12  N   UNL     1     -36.753  24.928   4.829  0.00  0.00    -0.126 NA
ATOM     13  N   UNL     1     -35.979  23.840   5.184  0.00  0.00    -0.126 NA
ATOM     14  C   UNL     1     -36.057  26.011   5.095  0.00  0.00    +0.213 C 
ATOM     15  C   UNL     1     -34.843  24.302   5.654  0.00  0.00    +0.213 C 
ENDBRANCH   9  11
ENDBRANCH   2  10
TORSDOF 3
ENDMDL
MODEL 9
REMARK VINA RESULT:      -5.1      2.895      6.966
REMARK  Name = 5324460
REMARK  3 active torsions:
REMARK  status: ('A' for Active; 'I' for Inactive)
REMARK    1  A    between atoms: C_2  and  C_10
REMARK    2  A    between atoms: C_4  and  N_8
REMARK    3  A    between atoms: N_9  and  N_11
REMARK                            x       y       z     vdW  Elec       q    Type
REMARK                         _______ _______ _______ _____ _____    ______ ____
ROOT
ATOM      1  O   UNL     1     -35.491  23.528   4.165  0.00  0.00    -0.431 OA
ATOM      2  C   UNL     1     -35.513  22.169   4.177  0.00  0.00    +0.168 C 
ATOM      3  C   UNL     1     -35.341  21.695   5.457  0.00  0.00    +0.044 C 
ATOM      4  C   UNL     1     -35.302  23.925   5.451  0.00  0.00    +0.289 C 
ATOM      5  C   UNL     1     -35.204  22.835   6.284  0.00  0.00    +0.066 C 
ENDROOT
BRANCH   4   8
ATOM      6  O   UNL     1     -36.295  26.006   5.504  0.00  0.00    -0.123 OA
ATOM      7  O   UNL     1     -34.158  25.854   5.985  0.00  0.00    -0.123 OA
ATOM      8  N   UNL     1     -35.250  25.305   5.653  0.00  0.00    +0.093 N 
ENDBRANCH   4   8
BRANCH   2  10
ATOM      9  N   UNL     1     -35.201  20.306   2.703  0.00  0.00    -0.166 NA
ATOM     10  C   UNL     1     -35.699  21.495   2.939  0.00  0.00    +0.156 C 
BRANCH   9  11
ATOM     11  N   UNL     1     -35.380  19.711   1.476  0.00  0.00    -0.146 N 
ATOM     12  N   UNL     1     -34.972  18.675  -0.371  0.00  0.00    -0.126 NA
ATOM     13  N   UNL     1     -36.319  18.976  -0.321  0.00  0.00    -0.126 NA
ATOM     14  C   UNL     1     -34.424  19.132   0.733  0.00  0.00    +0.213 C 
ATOM     15  C   UNL     1     -36.540  19.605   0.811  0.00  0.00    +0.213 C 
ENDBRANCH   9  11
ENDBRANCH   2  10
TORSDOF 3
ENDMDL
