MODEL 1
REMARK VINA RESULT:      -6.5      0.000      0.000
REMARK  Name = 193322
REMARK  5 active torsions:
REMARK  status: ('A' for Active; 'I' for Inactive)
REMARK    1  A    between atoms: C_7  and  O_22
REMARK    2  A    between atoms: C_7  and  C_25
REMARK    3  A    between atoms: C_25  and  C_26
REMARK    4  A    between atoms: C_26  and  O_27
REMARK    5  A    between atoms: O_27  and  S_28
REMARK                            x       y       z     vdW  Elec       q    Type
REMARK                         _______ _______ _______ _____ _____    ______ ____
ROOT
ATOM      1  O   UNL     1     -33.305  22.107   0.621  0.00  0.00    -0.296 OA
ATOM      2  O   UNL     1     -31.895  15.650   0.327  0.00  0.00    -0.291 OA
ATOM      3  C   UNL     1     -37.144  21.095   1.455  0.00  0.00    +0.004 C 
ATOM      4  C   UNL     1     -36.658  22.564   1.475  0.00  0.00    +0.036 C 
ATOM      5  C   UNL     1     -36.347  20.210   0.485  0.00  0.00    +0.008 C 
ATOM      6  C   UNL     1     -34.845  20.218   0.899  0.00  0.00    +0.061 C 
ATOM      7  C   UNL     1     -37.717  23.172   2.428  0.00  0.00    +0.142 C 
ATOM      8  C   UNL     1     -38.652  21.220   1.246  0.00  0.00    +0.003 C 
ATOM      9  C   UNL     1     -33.947  19.306  -0.018  0.00  0.00    +0.022 C 
ATOM     10  C   UNL     1     -35.211  22.569   1.977  0.00  0.00    +0.067 C 
ATOM     11  C   UNL     1     -39.042  22.507   1.999  0.00  0.00    +0.034 C 
ATOM     12  C   UNL     1     -36.882  18.772   0.479  0.00  0.00    +0.005 C 
ATOM     13  C   UNL     1     -34.357  21.674   1.087  0.00  0.00    +0.151 C 
ATOM     14  C   UNL     1     -36.717  23.251   0.082  0.00  0.00    +0.003 C 
ATOM     15  C   UNL     1     -34.600  17.921  -0.146  0.00  0.00    -0.042 C 
ATOM     16  C   UNL     1     -36.076  17.891  -0.464  0.00  0.00    +0.022 C 
ATOM     17  C   UNL     1     -32.546  19.162   0.646  0.00  0.00    +0.012 C 
ATOM     18  C   UNL     1     -33.790  19.883  -1.444  0.00  0.00    +0.004 C 
ATOM     19  C   UNL     1     -31.714  18.024   0.077  0.00  0.00    +0.069 C 
ATOM     20  C   UNL     1     -33.937  16.759  -0.017  0.00  0.00    +0.029 C 
ATOM     21  C   UNL     1     -32.469  16.726   0.171  0.00  0.00    +0.173 C 
ENDROOT
BRANCH   7  22
ATOM     22  O   UNL     1     -37.435  22.838   3.784  0.00  0.00    -0.380 OA
ATOM     23  H   UNL     1     -38.182  23.101   4.344  0.00  0.00    +0.211 HD
ENDBRANCH   7  22
BRANCH   7  25
ATOM     24  O   UNL     1     -38.292  25.280   1.478  0.00  0.00    -0.291 OA
ATOM     25  C   UNL     1     -37.784  24.670   2.418  0.00  0.00    +0.207 C 
BRANCH  25  26
ATOM     26  C   UNL     1     -37.197  25.376   3.622  0.00  0.00    +0.243 C 
BRANCH  26  27
ATOM     27  O   UNL     1     -35.791  25.448   3.521  0.00  0.00    -0.192 OA
BRANCH  27  28
ATOM     28  S   UNL     1     -34.861  25.246   4.855  0.00  0.00    +0.239 S 
ATOM     29  O   UNL     1     -35.559  23.984   5.618  0.00  0.00    -0.116 OA
ATOM     30  O   UNL     1     -33.544  24.820   4.420  0.00  0.00    -0.116 OA
ATOM     31  O   UNL     1     -35.004  26.414   5.705  0.00  0.00    -0.022 OA
ENDBRANCH  27  28
ENDBRANCH  26  27
ENDBRANCH  25  26
ENDBRANCH   7  25
TORSDOF 5
ENDMDL
MODEL 2
REMARK VINA RESULT:      -6.5      6.867     11.761
REMARK  Name = 193322
REMARK  5 active torsions:
REMARK  status: ('A' for Active; 'I' for Inactive)
REMARK    1  A    between atoms: C_7  and  O_22
REMARK    2  A    between atoms: C_7  and  C_25
REMARK    3  A    between atoms: C_25  and  C_26
REMARK    4  A    between atoms: C_26  and  O_27
REMARK    5  A    between atoms: O_27  and  S_28
REMARK                            x       y       z     vdW  Elec       q    Type
REMARK                         _______ _______ _______ _____ _____    ______ ____
ROOT
ATOM      1  O   UNL     1     -37.141  29.956   0.935  0.00  0.00    -0.296 OA
ATOM      2  O   UNL     1     -39.646  35.995   1.945  0.00  0.00    -0.291 OA
ATOM      3  C   UNL     1     -33.593  31.338   2.337  0.00  0.00    +0.004 C 
ATOM      4  C   UNL     1     -33.814  29.848   1.984  0.00  0.00    +0.036 C 
ATOM      5  C   UNL     1     -34.477  32.288   1.516  0.00  0.00    +0.008 C 
ATOM      6  C   UNL     1     -35.976  31.945   1.771  0.00  0.00    +0.061 C 
ATOM      7  C   UNL     1     -32.721  29.208   2.876  0.00  0.00    +0.142 C 
ATOM      8  C   UNL     1     -32.078  31.506   2.251  0.00  0.00    +0.003 C 
ATOM      9  C   UNL     1     -36.967  32.893   0.997  0.00  0.00    +0.022 C 
ATOM     10  C   UNL     1     -35.264  29.496   2.331  0.00  0.00    +0.067 C 
ATOM     11  C   UNL     1     -31.511  30.156   2.735  0.00  0.00    +0.034 C 
ATOM     12  C   UNL     1     -34.204  33.753   1.880  0.00  0.00    +0.005 C 
ATOM     13  C   UNL     1     -36.210  30.428   1.584  0.00  0.00    +0.151 C 
ATOM     14  C   UNL     1     -33.556  29.525   0.486  0.00  0.00    +0.003 C 
ATOM     15  C   UNL     1     -36.561  34.356   1.243  0.00  0.00    -0.042 C 
ATOM     16  C   UNL     1     -35.098  34.693   1.082  0.00  0.00    +0.022 C 
ATOM     17  C   UNL     1     -38.407  32.654   1.539  0.00  0.00    +0.012 C 
ATOM     18  C   UNL     1     -36.938  32.650  -0.530  0.00  0.00    +0.004 C 
ATOM     19  C   UNL     1     -39.392  33.748   1.159  0.00  0.00    +0.069 C 
ATOM     20  C   UNL     1     -37.425  35.334   1.562  0.00  0.00    +0.029 C 
ATOM     21  C   UNL     1     -38.884  35.090   1.610  0.00  0.00    +0.173 C 
ENDROOT
BRANCH   7  22
ATOM     22  O   UNL     1     -33.134  29.165   4.239  0.00  0.00    -0.380 OA
ATOM     23  H   UNL     1     -32.465  29.595   4.793  0.00  0.00    +0.211 HD
ENDBRANCH   7  22
BRANCH   7  25
ATOM     24  O   UNL     1     -31.331  27.487   1.991  0.00  0.00    -0.291 OA
ATOM     25  C   UNL     1     -32.391  27.785   2.541  0.00  0.00    +0.207 C 
BRANCH  25  26
ATOM     26  C   UNL     1     -33.429  26.749   2.917  0.00  0.00    +0.243 C 
BRANCH  26  27
ATOM     27  O   UNL     1     -33.059  26.081   4.105  0.00  0.00    -0.192 OA
BRANCH  27  28
ATOM     28  S   UNL     1     -34.047  26.124   5.412  0.00  0.00    +0.239 S 
ATOM     29  O   UNL     1     -35.319  27.007   4.898  0.00  0.00    -0.116 OA
ATOM     30  O   UNL     1     -34.521  24.775   5.656  0.00  0.00    -0.116 OA
ATOM     31  O   UNL     1     -33.388  26.867   6.470  0.00  0.00    -0.022 OA
ENDBRANCH  27  28
ENDBRANCH  26  27
ENDBRANCH  25  26
ENDBRANCH   7  25
TORSDOF 5
ENDMDL
MODEL 3
REMARK VINA RESULT:      -6.4      1.559      2.021
REMARK  Name = 193322
REMARK  5 active torsions:
REMARK  status: ('A' for Active; 'I' for Inactive)
REMARK    1  A    between atoms: C_7  and  O_22
REMARK    2  A    between atoms: C_7  and  C_25
REMARK    3  A    between atoms: C_25  and  C_26
REMARK    4  A    between atoms: C_26  and  O_27
REMARK    5  A    between atoms: O_27  and  S_28
REMARK                            x       y       z     vdW  Elec       q    Type
REMARK                         _______ _______ _______ _____ _____    ______ ____
ROOT
ATOM      1  O   UNL     1     -32.960  23.206  -0.196  0.00  0.00    -0.296 OA
ATOM      2  O   UNL     1     -31.703  16.752   0.536  0.00  0.00    -0.291 OA
ATOM      3  C   UNL     1     -36.151  22.727   2.264  0.00  0.00    +0.004 C 
ATOM      4  C   UNL     1     -35.714  24.118   1.745  0.00  0.00    +0.036 C 
ATOM      5  C   UNL     1     -35.789  21.585   1.303  0.00  0.00    +0.008 C 
ATOM      6  C   UNL     1     -34.244  21.561   1.093  0.00  0.00    +0.061 C 
ATOM      7  C   UNL     1     -36.320  25.009   2.858  0.00  0.00    +0.142 C 
ATOM      8  C   UNL     1     -37.621  22.926   2.627  0.00  0.00    +0.003 C 
ATOM      9  C   UNL     1     -33.768  20.396   0.147  0.00  0.00    +0.022 C 
ATOM     10  C   UNL     1     -34.186  24.115   1.636  0.00  0.00    +0.067 C 
ATOM     11  C   UNL     1     -37.699  24.377   3.143  0.00  0.00    +0.034 C 
ATOM     12  C   UNL     1     -36.266  20.232   1.846  0.00  0.00    +0.005 C 
ATOM     13  C   UNL     1     -33.739  22.976   0.727  0.00  0.00    +0.151 C 
ATOM     14  C   UNL     1     -36.323  24.478   0.362  0.00  0.00    +0.003 C 
ATOM     15  C   UNL     1     -34.403  19.076   0.614  0.00  0.00    -0.042 C 
ATOM     16  C   UNL     1     -35.885  19.098   0.904  0.00  0.00    +0.022 C 
ATOM     17  C   UNL     1     -32.217  20.288   0.235  0.00  0.00    +0.012 C 
ATOM     18  C   UNL     1     -34.191  20.624  -1.323  0.00  0.00    +0.004 C 
ATOM     19  C   UNL     1     -31.662  18.987  -0.321  0.00  0.00    +0.069 C 
ATOM     20  C   UNL     1     -33.728  17.922   0.750  0.00  0.00    +0.029 C 
ATOM     21  C   UNL     1     -32.305  17.810   0.361  0.00  0.00    +0.173 C 
ENDROOT
BRANCH   7  22
ATOM     22  O   UNL     1     -35.524  24.964   4.039  0.00  0.00    -0.380 OA
ATOM     23  H   UNL     1     -35.982  24.447   4.718  0.00  0.00    +0.211 HD
ENDBRANCH   7  22
BRANCH   7  25
ATOM     24  O   UNL     1     -37.480  27.000   2.250  0.00  0.00    -0.291 OA
ATOM     25  C   UNL     1     -36.403  26.467   2.518  0.00  0.00    +0.207 C 
BRANCH  25  26
ATOM     26  C   UNL     1     -35.098  27.234   2.527  0.00  0.00    +0.243 C 
BRANCH  26  27
ATOM     27  O   UNL     1     -34.825  27.739   3.817  0.00  0.00    -0.192 OA
BRANCH  27  28
ATOM     28  S   UNL     1     -33.415  27.365   4.563  0.00  0.00    +0.239 S 
ATOM     29  O   UNL     1     -33.895  26.625   5.935  0.00  0.00    -0.116 OA
ATOM     30  O   UNL     1     -32.730  26.377   3.750  0.00  0.00    -0.116 OA
ATOM     31  O   UNL     1     -32.742  28.596   4.933  0.00  0.00    -0.022 OA
ENDBRANCH  27  28
ENDBRANCH  26  27
ENDBRANCH  25  26
ENDBRANCH   7  25
TORSDOF 5
ENDMDL
MODEL 4
REMARK VINA RESULT:      -6.4      2.701      3.995
REMARK  Name = 193322
REMARK  5 active torsions:
REMARK  status: ('A' for Active; 'I' for Inactive)
REMARK    1  A    between atoms: C_7  and  O_22
REMARK    2  A    between atoms: C_7  and  C_25
REMARK    3  A    between atoms: C_25  and  C_26
REMARK    4  A    between atoms: C_26  and  O_27
REMARK    5  A    between atoms: O_27  and  S_28
REMARK                            x       y       z     vdW  Elec       q    Type
REMARK                         _______ _______ _______ _____ _____    ______ ____
ROOT
ATOM      1  O   UNL     1     -33.800  24.216  -0.524  0.00  0.00    -0.296 OA
ATOM      2  O   UNL     1     -33.494  17.607  -0.512  0.00  0.00    -0.291 OA
ATOM      3  C   UNL     1     -34.850  24.041   3.391  0.00  0.00    +0.004 C 
ATOM      4  C   UNL     1     -34.589  25.385   2.669  0.00  0.00    +0.036 C 
ATOM      5  C   UNL     1     -35.353  22.939   2.448  0.00  0.00    +0.008 C 
ATOM      6  C   UNL     1     -34.291  22.692   1.334  0.00  0.00    +0.061 C 
ATOM      7  C   UNL     1     -34.225  26.267   3.890  0.00  0.00    +0.142 C 
ATOM      8  C   UNL     1     -35.732  24.437   4.574  0.00  0.00    +0.003 C 
ATOM      9  C   UNL     1     -34.701  21.548   0.333  0.00  0.00    +0.022 C 
ATOM     10  C   UNL     1     -33.474  25.153   1.644  0.00  0.00    +0.067 C 
ATOM     11  C   UNL     1     -35.227  25.836   4.982  0.00  0.00    +0.034 C 
ATOM     12  C   UNL     1     -35.625  21.637   3.212  0.00  0.00    +0.005 C 
ATOM     13  C   UNL     1     -33.879  24.036   0.690  0.00  0.00    +0.151 C 
ATOM     14  C   UNL     1     -35.841  25.947   1.942  0.00  0.00    +0.003 C 
ATOM     15  C   UNL     1     -35.134  20.309   1.133  0.00  0.00    -0.042 C 
ATOM     16  C   UNL     1     -36.100  20.538   2.272  0.00  0.00    +0.022 C 
ATOM     17  C   UNL     1     -33.465  21.193  -0.547  0.00  0.00    +0.012 C 
ATOM     18  C   UNL     1     -35.884  21.958  -0.573  0.00  0.00    +0.004 C 
ATOM     19  C   UNL     1     -33.600  19.870  -1.284  0.00  0.00    +0.069 C 
ATOM     20  C   UNL     1     -34.728  19.057   0.863  0.00  0.00    +0.029 C 
ATOM     21  C   UNL     1     -33.884  18.757  -0.314  0.00  0.00    +0.173 C 
ENDROOT
BRANCH   7  22
ATOM     22  O   UNL     1     -32.897  26.003   4.333  0.00  0.00    -0.380 OA
ATOM     23  H   UNL     1     -32.927  25.525   5.177  0.00  0.00    +0.211 HD
ENDBRANCH   7  22
BRANCH   7  25
ATOM     24  O   UNL     1     -35.296  28.333   3.380  0.00  0.00    -0.291 OA
ATOM     25  C   UNL     1     -34.245  27.742   3.627  0.00  0.00    +0.207 C 
BRANCH  25  26
ATOM     26  C   UNL     1     -32.909  28.452   3.684  0.00  0.00    +0.243 C 
BRANCH  26  27
ATOM     27  O   UNL     1     -32.787  29.187   4.883  0.00  0.00    -0.192 OA
BRANCH  27  28
ATOM     28  S   UNL     1     -31.807  28.646   6.080  0.00  0.00    +0.239 S 
ATOM     29  O   UNL     1     -32.728  27.546   6.857  0.00  0.00    -0.116 OA
ATOM     30  O   UNL     1     -30.702  27.935   5.464  0.00  0.00    -0.116 OA
ATOM     31  O   UNL     1     -31.548  29.739   7.000  0.00  0.00    -0.022 OA
ENDBRANCH  27  28
ENDBRANCH  26  27
ENDBRANCH  25  26
ENDBRANCH   7  25
TORSDOF 5
ENDMDL
MODEL 5
REMARK VINA RESULT:      -6.4      5.337      8.837
REMARK  Name = 193322
REMARK  5 active torsions:
REMARK  status: ('A' for Active; 'I' for Inactive)
REMARK    1  A    between atoms: C_7  and  O_22
REMARK    2  A    between atoms: C_7  and  C_25
REMARK    3  A    between atoms: C_25  and  C_26
REMARK    4  A    between atoms: C_26  and  O_27
REMARK    5  A    between atoms: O_27  and  S_28
REMARK                            x       y       z     vdW  Elec       q    Type
REMARK                         _______ _______ _______ _____ _____    ______ ____
ROOT
ATOM      1  O   UNL     1     -33.414  25.323   4.727  0.00  0.00    -0.296 OA
ATOM      2  O   UNL     1     -39.784  24.775   3.024  0.00  0.00    -0.291 OA
ATOM      3  C   UNL     1     -33.556  29.187   3.496  0.00  0.00    +0.004 C 
ATOM      4  C   UNL     1     -32.305  28.588   4.184  0.00  0.00    +0.036 C 
ATOM      5  C   UNL     1     -34.379  28.142   2.728  0.00  0.00    +0.008 C 
ATOM      6  C   UNL     1     -34.852  27.033   3.715  0.00  0.00    +0.061 C 
ATOM      7  C   UNL     1     -31.671  29.887   4.741  0.00  0.00    +0.142 C 
ATOM      8  C   UNL     1     -33.001  30.381   2.723  0.00  0.00    +0.003 C 
ATOM      9  C   UNL     1     -35.738  25.930   3.025  0.00  0.00    +0.022 C 
ATOM     10  C   UNL     1     -32.787  27.570   5.222  0.00  0.00    +0.067 C 
ATOM     11  C   UNL     1     -31.857  30.917   3.607  0.00  0.00    +0.034 C 
ATOM     12  C   UNL     1     -35.590  28.787   2.042  0.00  0.00    +0.005 C 
ATOM     13  C   UNL     1     -33.652  26.515   4.542  0.00  0.00    +0.151 C 
ATOM     14  C   UNL     1     -31.335  27.886   3.193  0.00  0.00    +0.003 C 
ATOM     15  C   UNL     1     -36.843  26.612   2.202  0.00  0.00    -0.042 C 
ATOM     16  C   UNL     1     -36.418  27.747   1.300  0.00  0.00    +0.022 C 
ATOM     17  C   UNL     1     -36.384  25.048   4.134  0.00  0.00    +0.012 C 
ATOM     18  C   UNL     1     -34.921  25.038   2.062  0.00  0.00    +0.004 C 
ATOM     19  C   UNL     1     -37.544  24.197   3.641  0.00  0.00    +0.069 C 
ATOM     20  C   UNL     1     -38.135  26.244   2.224  0.00  0.00    +0.029 C 
ATOM     21  C   UNL     1     -38.588  25.063   2.991  0.00  0.00    +0.173 C 
ENDROOT
BRANCH   7  22
ATOM     22  O   UNL     1     -32.359  30.333   5.906  0.00  0.00    -0.380 OA
ATOM     23  H   UNL     1     -31.746  30.347   6.657  0.00  0.00    +0.211 HD
ENDBRANCH   7  22
BRANCH   7  25
ATOM     24  O   UNL     1     -29.317  30.130   4.463  0.00  0.00    -0.291 OA
ATOM     25  C   UNL     1     -30.244  29.750   5.178  0.00  0.00    +0.207 C 
BRANCH  25  26
ATOM     26  C   UNL     1     -30.016  29.125   6.538  0.00  0.00    +0.243 C 
BRANCH  26  27
ATOM     27  O   UNL     1     -29.555  27.798   6.406  0.00  0.00    -0.192 OA
BRANCH  27  28
ATOM     28  S   UNL     1     -28.013  27.421   6.813  0.00  0.00    +0.239 S 
ATOM     29  O   UNL     1     -27.737  28.328   8.141  0.00  0.00    -0.116 OA
ATOM     30  O   UNL     1     -27.989  26.028   7.222  0.00  0.00    -0.116 OA
ATOM     31  O   UNL     1     -27.126  27.887   5.763  0.00  0.00    -0.022 OA
ENDBRANCH  27  28
ENDBRANCH  26  27
ENDBRANCH  25  26
ENDBRANCH   7  25
TORSDOF 5
ENDMDL
MODEL 6
REMARK VINA RESULT:      -6.4      3.745      7.653
REMARK  Name = 193322
REMARK  5 active torsions:
REMARK  status: ('A' for Active; 'I' for Inactive)
REMARK    1  A    between atoms: C_7  and  O_22
REMARK    2  A    between atoms: C_7  and  C_25
REMARK    3  A    between atoms: C_25  and  C_26
REMARK    4  A    between atoms: C_26  and  O_27
REMARK    5  A    between atoms: O_27  and  S_28
REMARK                            x       y       z     vdW  Elec       q    Type
REMARK                         _______ _______ _______ _____ _____    ______ ____
ROOT
ATOM      1  O   UNL     1     -38.671  23.776   3.297  0.00  0.00    -0.296 OA
ATOM      2  O   UNL     1     -33.537  26.585   6.383  0.00  0.00    -0.291 OA
ATOM      3  C   UNL     1     -36.017  21.946   0.833  0.00  0.00    +0.004 C 
ATOM      4  C   UNL     1     -37.534  21.646   0.775  0.00  0.00    +0.036 C 
ATOM      5  C   UNL     1     -35.702  23.367   1.323  0.00  0.00    +0.008 C 
ATOM      6  C   UNL     1     -36.289  23.558   2.755  0.00  0.00    +0.061 C 
ATOM      7  C   UNL     1     -37.493  20.230   0.149  0.00  0.00    +0.142 C 
ATOM      8  C   UNL     1     -35.518  21.533  -0.550  0.00  0.00    +0.003 C 
ATOM      9  C   UNL     1     -35.985  24.978   3.362  0.00  0.00    +0.022 C 
ATOM     10  C   UNL     1     -38.082  21.741   2.203  0.00  0.00    +0.067 C 
ATOM     11  C   UNL     1     -36.397  20.324  -0.933  0.00  0.00    +0.034 C 
ATOM     12  C   UNL     1     -34.190  23.626   1.336  0.00  0.00    +0.005 C 
ATOM     13  C   UNL     1     -37.770  23.116   2.781  0.00  0.00    +0.151 C 
ATOM     14  C   UNL     1     -38.321  22.626  -0.138  0.00  0.00    +0.003 C 
ATOM     15  C   UNL     1     -34.487  25.284   3.204  0.00  0.00    -0.042 C 
ATOM     16  C   UNL     1     -33.878  25.027   1.846  0.00  0.00    +0.022 C 
ATOM     17  C   UNL     1     -36.356  24.961   4.874  0.00  0.00    +0.012 C 
ATOM     18  C   UNL     1     -36.770  26.102   2.646  0.00  0.00    +0.004 C 
ATOM     19  C   UNL     1     -35.772  26.124   5.660  0.00  0.00    +0.069 C 
ATOM     20  C   UNL     1     -33.711  25.782   4.182  0.00  0.00    +0.029 C 
ATOM     21  C   UNL     1     -34.278  26.171   5.493  0.00  0.00    +0.173 C 
ENDROOT
BRANCH   7  22
ATOM     22  O   UNL     1     -37.121  19.253   1.118  0.00  0.00    -0.380 OA
ATOM     23  H   UNL     1     -37.673  18.464   1.009  0.00  0.00    +0.211 HD
ENDBRANCH   7  22
BRANCH   7  25
ATOM     24  O   UNL     1     -39.868  20.257  -0.041  0.00  0.00    -0.291 OA
ATOM     25  C   UNL     1     -38.805  19.743  -0.388  0.00  0.00    +0.207 C 
BRANCH  25  26
ATOM     26  C   UNL     1     -38.742  18.596  -1.374  0.00  0.00    +0.243 C 
BRANCH  26  27
ATOM     27  O   UNL     1     -38.994  17.367  -0.726  0.00  0.00    -0.192 OA
BRANCH  27  28
ATOM     28  S   UNL     1     -37.919  16.137  -0.855  0.00  0.00    +0.239 S 
ATOM     29  O   UNL     1     -36.536  16.777  -0.275  0.00  0.00    -0.116 OA
ATOM     30  O   UNL     1     -38.333  15.088   0.059  0.00  0.00    -0.116 OA
ATOM     31  O   UNL     1     -37.717  15.839  -2.261  0.00  0.00    -0.022 OA
ENDBRANCH  27  28
ENDBRANCH  26  27
ENDBRANCH  25  26
ENDBRANCH   7  25
TORSDOF 5
ENDMDL
MODEL 7
REMARK VINA RESULT:      -6.4      5.063      8.945
REMARK  Name = 193322
REMARK  5 active torsions:
REMARK  status: ('A' for Active; 'I' for Inactive)
REMARK    1  A    between atoms: C_7  and  O_22
REMARK    2  A    between atoms: C_7  and  C_25
REMARK    3  A    between atoms: C_25  and  C_26
REMARK    4  A    between atoms: C_26  and  O_27
REMARK    5  A    between atoms: O_27  and  S_28
REMARK                            x       y       z     vdW  Elec       q    Type
REMARK                         _______ _______ _______ _____ _____    ______ ____
ROOT
ATOM      1  O   UNL     1     -34.363  28.077   1.004  0.00  0.00    -0.296 OA
ATOM      2  O   UNL     1     -31.013  33.144   3.626  0.00  0.00    -0.291 OA
ATOM      3  C   UNL     1     -34.498  26.424   4.707  0.00  0.00    +0.004 C 
ATOM      4  C   UNL     1     -35.241  25.801   3.500  0.00  0.00    +0.036 C 
ATOM      5  C   UNL     1     -33.243  27.210   4.301  0.00  0.00    +0.008 C 
ATOM      6  C   UNL     1     -33.649  28.362   3.333  0.00  0.00    +0.061 C 
ATOM      7  C   UNL     1     -36.341  25.013   4.254  0.00  0.00    +0.142 C 
ATOM      8  C   UNL     1     -34.335  25.251   5.671  0.00  0.00    +0.003 C 
ATOM      9  C   UNL     1     -32.429  29.252   2.887  0.00  0.00    +0.022 C 
ATOM     10  C   UNL     1     -35.721  26.948   2.606  0.00  0.00    +0.067 C 
ATOM     11  C   UNL     1     -35.608  24.404   5.469  0.00  0.00    +0.034 C 
ATOM     12  C   UNL     1     -32.526  27.784   5.530  0.00  0.00    +0.005 C 
ATOM     13  C   UNL     1     -34.532  27.807   2.191  0.00  0.00    +0.151 C 
ATOM     14  C   UNL     1     -34.355  24.838   2.663  0.00  0.00    +0.003 C 
ATOM     15  C   UNL     1     -31.628  29.670   4.131  0.00  0.00    -0.042 C 
ATOM     16  C   UNL     1     -31.296  28.583   5.124  0.00  0.00    +0.022 C 
ATOM     17  C   UNL     1     -32.977  30.521   2.169  0.00  0.00    +0.012 C 
ATOM     18  C   UNL     1     -31.466  28.496   1.943  0.00  0.00    +0.004 C 
ATOM     19  C   UNL     1     -31.950  31.633   2.024  0.00  0.00    +0.069 C 
ATOM     20  C   UNL     1     -31.196  30.921   4.363  0.00  0.00    +0.029 C 
ATOM     21  C   UNL     1     -31.383  32.000   3.368  0.00  0.00    +0.173 C 
ENDROOT
BRANCH   7  22
ATOM     22  O   UNL     1     -37.372  25.884   4.710  0.00  0.00    -0.380 OA
ATOM     23  H   UNL     1     -38.096  25.360   5.085  0.00  0.00    +0.211 HD
ENDBRANCH   7  22
BRANCH   7  25
ATOM     24  O   UNL     1     -36.887  22.783   3.617  0.00  0.00    -0.291 OA
ATOM     25  C   UNL     1     -37.056  23.987   3.428  0.00  0.00    +0.207 C 
BRANCH  25  26
ATOM     26  C   UNL     1     -37.989  24.518   2.360  0.00  0.00    +0.243 C 
BRANCH  26  27
ATOM     27  O   UNL     1     -39.278  24.740   2.890  0.00  0.00    -0.192 OA
BRANCH  27  28
ATOM     28  S   UNL     1     -40.202  25.965   2.314  0.00  0.00    +0.239 S 
ATOM     29  O   UNL     1     -39.130  26.916   1.534  0.00  0.00    -0.116 OA
ATOM     30  O   UNL     1     -41.102  25.412   1.318  0.00  0.00    -0.116 OA
ATOM     31  O   UNL     1     -40.732  26.717   3.436  0.00  0.00    -0.022 OA
ENDBRANCH  27  28
ENDBRANCH  26  27
ENDBRANCH  25  26
ENDBRANCH   7  25
TORSDOF 5
ENDMDL
MODEL 8
REMARK VINA RESULT:      -6.3      2.428      3.651
REMARK  Name = 193322
REMARK  5 active torsions:
REMARK  status: ('A' for Active; 'I' for Inactive)
REMARK    1  A    between atoms: C_7  and  O_22
REMARK    2  A    between atoms: C_7  and  C_25
REMARK    3  A    between atoms: C_25  and  C_26
REMARK    4  A    between atoms: C_26  and  O_27
REMARK    5  A    between atoms: O_27  and  S_28
REMARK                            x       y       z     vdW  Elec       q    Type
REMARK                         _______ _______ _______ _____ _____    ______ ____
ROOT
ATOM      1  O   UNL     1     -34.462  24.139  -0.514  0.00  0.00    -0.296 OA
ATOM      2  O   UNL     1     -33.630  17.778  -2.131  0.00  0.00    -0.291 OA
ATOM      3  C   UNL     1     -35.086  22.946   3.314  0.00  0.00    +0.004 C 
ATOM      4  C   UNL     1     -35.008  24.441   2.920  0.00  0.00    +0.036 C 
ATOM      5  C   UNL     1     -35.594  22.050   2.175  0.00  0.00    +0.008 C 
ATOM      6  C   UNL     1     -34.636  22.181   0.952  0.00  0.00    +0.061 C 
ATOM      7  C   UNL     1     -34.593  25.045   4.285  0.00  0.00    +0.142 C 
ATOM      8  C   UNL     1     -35.870  22.962   4.624  0.00  0.00    +0.003 C 
ATOM      9  C   UNL     1     -35.054  21.267  -0.260  0.00  0.00    +0.022 C 
ATOM     10  C   UNL     1     -33.990  24.571   1.783  0.00  0.00    +0.067 C 
ATOM     11  C   UNL     1     -35.439  24.271   5.317  0.00  0.00    +0.034 C 
ATOM     12  C   UNL     1     -35.681  20.585   2.620  0.00  0.00    +0.005 C 
ATOM     13  C   UNL     1     -34.401  23.673   0.622  0.00  0.00    +0.151 C 
ATOM     14  C   UNL     1     -36.370  25.027   2.455  0.00  0.00    +0.003 C 
ATOM     15  C   UNL     1     -35.303  19.838   0.248  0.00  0.00    -0.042 C 
ATOM     16  C   UNL     1     -36.161  19.694   1.482  0.00  0.00    +0.022 C 
ATOM     17  C   UNL     1     -33.892  21.256  -1.297  0.00  0.00    +0.012 C 
ATOM     18  C   UNL     1     -36.354  21.755  -0.941  0.00  0.00    +0.004 C 
ATOM     19  C   UNL     1     -33.996  20.137  -2.320  0.00  0.00    +0.069 C 
ATOM     20  C   UNL     1     -34.828  18.732  -0.349  0.00  0.00    +0.029 C 
ATOM     21  C   UNL     1     -34.088  18.804  -1.629  0.00  0.00    +0.173 C 
ENDROOT
BRANCH   7  22
ATOM     22  O   UNL     1     -33.209  24.822   4.542  0.00  0.00    -0.380 OA
ATOM     23  H   UNL     1     -32.859  24.188   3.898  0.00  0.00    +0.211 HD
ENDBRANCH   7  22
BRANCH   7  25
ATOM     24  O   UNL     1     -35.768  27.029   4.886  0.00  0.00    -0.291 OA
ATOM     25  C   UNL     1     -34.758  26.531   4.390  0.00  0.00    +0.207 C 
BRANCH  25  26
ATOM     26  C   UNL     1     -33.617  27.372   3.857  0.00  0.00    +0.243 C 
BRANCH  26  27
ATOM     27  O   UNL     1     -33.273  28.386   4.777  0.00  0.00    -0.192 OA
BRANCH  27  28
ATOM     28  S   UNL     1     -31.972  28.198   5.756  0.00  0.00    +0.239 S 
ATOM     29  O   UNL     1     -30.759  27.867   4.718  0.00  0.00    -0.116 OA
ATOM     30  O   UNL     1     -31.687  29.483   6.368  0.00  0.00    -0.116 OA
ATOM     31  O   UNL     1     -32.180  27.026   6.587  0.00  0.00    -0.022 OA
ENDBRANCH  27  28
ENDBRANCH  26  27
ENDBRANCH  25  26
ENDBRANCH   7  25
TORSDOF 5
ENDMDL
MODEL 9
REMARK VINA RESULT:      -6.3      2.586      3.940
REMARK  Name = 193322
REMARK  5 active torsions:
REMARK  status: ('A' for Active; 'I' for Inactive)
REMARK    1  A    between atoms: C_7  and  O_22
REMARK    2  A    between atoms: C_7  and  C_25
REMARK    3  A    between atoms: C_25  and  C_26
REMARK    4  A    between atoms: C_26  and  O_27
REMARK    5  A    between atoms: O_27  and  S_28
REMARK                            x       y       z     vdW  Elec       q    Type
REMARK                         _______ _______ _______ _____ _____    ______ ____
ROOT
ATOM      1  O   UNL     1     -34.507  20.918   1.079  0.00  0.00    -0.296 OA
ATOM      2  O   UNL     1     -39.246  17.062  -1.459  0.00  0.00    -0.291 OA
ATOM      3  C   UNL     1     -37.426  23.121   2.837  0.00  0.00    +0.004 C 
ATOM      4  C   UNL     1     -35.924  23.386   3.101  0.00  0.00    +0.036 C 
ATOM      5  C   UNL     1     -37.696  22.519   1.450  0.00  0.00    +0.008 C 
ATOM      6  C   UNL     1     -36.935  21.166   1.320  0.00  0.00    +0.061 C 
ATOM      7  C   UNL     1     -36.024  24.077   4.484  0.00  0.00    +0.142 C 
ATOM      8  C   UNL     1     -38.091  24.450   3.190  0.00  0.00    +0.003 C 
ATOM      9  C   UNL     1     -37.180  20.450  -0.061  0.00  0.00    +0.022 C 
ATOM     10  C   UNL     1     -35.201  22.036   3.068  0.00  0.00    +0.067 C 
ATOM     11  C   UNL     1     -37.251  25.005   4.357  0.00  0.00    +0.034 C 
ATOM     12  C   UNL     1     -39.198  22.301   1.224  0.00  0.00    +0.005 C 
ATOM     13  C   UNL     1     -35.456  21.350   1.731  0.00  0.00    +0.151 C 
ATOM     14  C   UNL     1     -35.274  24.338   2.059  0.00  0.00    +0.003 C 
ATOM     15  C   UNL     1     -38.690  20.400  -0.342  0.00  0.00    -0.042 C 
ATOM     16  C   UNL     1     -39.463  21.683  -0.142  0.00  0.00    +0.022 C 
ATOM     17  C   UNL     1     -36.618  19.000   0.026  0.00  0.00    +0.012 C 
ATOM     18  C   UNL     1     -36.509  21.198  -1.236  0.00  0.00    +0.004 C 
ATOM     19  C   UNL     1     -37.114  18.085  -1.083  0.00  0.00    +0.069 C 
ATOM     20  C   UNL     1     -39.342  19.307  -0.773  0.00  0.00    +0.029 C 
ATOM     21  C   UNL     1     -38.618  18.060  -1.107  0.00  0.00    +0.173 C 
ENDROOT
BRANCH   7  22
ATOM     22  O   UNL     1     -36.255  23.122   5.516  0.00  0.00    -0.380 OA
ATOM     23  H   UNL     1     -36.983  23.426   6.080  0.00  0.00    +0.211 HD
ENDBRANCH   7  22
BRANCH   7  25
ATOM     24  O   UNL     1     -33.688  24.242   4.923  0.00  0.00    -0.291 OA
ATOM     25  C   UNL     1     -34.784  24.801   4.914  0.00  0.00    +0.207 C 
BRANCH  25  26
ATOM     26  C   UNL     1     -34.962  26.246   5.330  0.00  0.00    +0.243 C 
BRANCH  26  27
ATOM     27  O   UNL     1     -34.344  27.111   4.402  0.00  0.00    -0.192 OA
BRANCH  27  28
ATOM     28  S   UNL     1     -32.855  27.720   4.713  0.00  0.00    +0.239 S 
ATOM     29  O   UNL     1     -32.538  27.197   6.225  0.00  0.00    -0.116 OA
ATOM     30  O   UNL     1     -31.914  27.071   3.819  0.00  0.00    -0.116 OA
ATOM     31  O   UNL     1     -32.942  29.168   4.752  0.00  0.00    -0.022 OA
ENDBRANCH  27  28
ENDBRANCH  26  27
ENDBRANCH  25  26
ENDBRANCH   7  25
TORSDOF 5
ENDMDL
