MODEL 1
REMARK VINA RESULT:      -6.2      0.000      0.000
REMARK  Name = 195196
REMARK  12 active torsions:
REMARK  status: ('A' for Active; 'I' for Inactive)
REMARK    1  A    between atoms: N_2  and  N_6
REMARK    2  A    between atoms: C_3  and  C_21
REMARK    3  A    between atoms: C_7  and  C_9
REMARK    4  A    between atoms: C_9  and  C_10
REMARK    5  A    between atoms: C_10  and  C_11
REMARK    6  A    between atoms: C_11  and  C_12
REMARK    7  A    between atoms: C_12  and  C_13
REMARK    8  A    between atoms: C_13  and  N_16
REMARK    9  A    between atoms: C_21  and  C_22
REMARK   10  A    between atoms: C_22  and  C_23
REMARK   11  A    between atoms: C_23  and  C_24
REMARK   12  A    between atoms: C_24  and  C_31
REMARK                            x       y       z     vdW  Elec       q    Type
REMARK                         _______ _______ _______ _____ _____    ______ ____
ROOT
ATOM      1  O   UNL     1     -38.566  26.656   2.319  0.00  0.00    -0.274 OA
ATOM      2  N   UNL     1     -38.390  25.166   4.092  0.00  0.00    -0.234 N 
ATOM      3  C   UNL     1     -39.001  25.716   2.981  0.00  0.00    +0.238 C 
ATOM      4  H   UNL     1     -38.806  24.412   4.568  0.00  0.00    +0.173 HD
ENDROOT
BRANCH   2   6
ATOM      5  O   UNL     1     -36.386  23.637   5.245  0.00  0.00    -0.274 OA
ATOM      6  N   UNL     1     -37.195  25.689   4.520  0.00  0.00    -0.234 N 
ATOM      7  C   UNL     1     -36.255  24.848   5.083  0.00  0.00    +0.238 C 
ATOM      8  H   UNL     1     -37.010  26.652   4.426  0.00  0.00    +0.173 HD
BRANCH   7   9
ATOM      9  C   UNL     1     -34.978  25.571   5.462  0.00  0.00    +0.087 C 
BRANCH   9  10
ATOM     10  C   UNL     1     -33.821  25.188   4.541  0.00  0.00    +0.010 C 
BRANCH  10  11
ATOM     11  C   UNL     1     -33.770  25.950   3.211  0.00  0.00    +0.002 C 
BRANCH  11  12
ATOM     12  C   UNL     1     -33.665  27.470   3.380  0.00  0.00    +0.022 C 
BRANCH  12  13
ATOM     13  C   UNL     1     -32.224  27.935   3.570  0.00  0.00    +0.102 C 
BRANCH  13  16
ATOM     14  O   UNL     1     -31.719  27.232   6.422  0.00  0.00    -0.269 OA
ATOM     15  O   UNL     1     -32.342  30.911   3.725  0.00  0.00    -0.269 OA
ATOM     16  N   UNL     1     -32.075  28.798   4.711  0.00  0.00    -0.223 N 
ATOM     17  C   UNL     1     -31.841  28.369   5.996  0.00  0.00    +0.255 C 
ATOM     18  C   UNL     1     -32.146  30.171   4.673  0.00  0.00    +0.255 C 
ATOM     19  C   UNL     1     -31.756  29.575   6.834  0.00  0.00    +0.063 C 
ATOM     20  C   UNL     1     -31.937  30.640   6.051  0.00  0.00    +0.063 C 
ENDBRANCH  13  16
ENDBRANCH  12  13
ENDBRANCH  11  12
ENDBRANCH  10  11
ENDBRANCH   9  10
ENDBRANCH   7   9
ENDBRANCH   2   6
BRANCH   3  21
ATOM     21  C   UNL     1     -40.301  25.026   2.624  0.00  0.00    +0.087 C 
BRANCH  21  22
ATOM     22  C   UNL     1     -40.358  24.616   1.153  0.00  0.00    +0.010 C 
BRANCH  22  23
ATOM     23  C   UNL     1     -39.202  23.690   0.759  0.00  0.00    +0.001 C 
BRANCH  23  24
ATOM     24  C   UNL     1     -39.093  22.449   1.646  0.00  0.00    +0.013 C 
BRANCH  24  31
ATOM     25  S   UNL     1     -36.453  23.252   1.433  0.00  0.00    -0.138 S 
ATOM     26  O   UNL     1     -36.210  18.927  -0.565  0.00  0.00    -0.253 OA
ATOM     27  N   UNL     1     -37.437  20.108   1.044  0.00  0.00    -0.288 N 
ATOM     28  N   UNL     1     -35.193  20.071   1.208  0.00  0.00    -0.288 N 
ATOM     29  C   UNL     1     -37.160  20.849   2.260  0.00  0.00    +0.102 C 
ATOM     30  C   UNL     1     -35.617  20.890   2.327  0.00  0.00    +0.103 C 
ATOM     31  C   UNL     1     -37.722  22.273   2.277  0.00  0.00    +0.067 C 
ATOM     32  C   UNL     1     -35.104  22.323   2.196  0.00  0.00    +0.079 C 
ATOM     33  C   UNL     1     -36.272  19.622   0.441  0.00  0.00    +0.301 C 
ATOM     34  H   UNL     1     -38.343  19.963   0.685  0.00  0.00    +0.151 HD
ATOM     35  H   UNL     1     -34.253  19.857   1.011  0.00  0.00    +0.151 HD
ENDBRANCH  24  31
ENDBRANCH  23  24
ENDBRANCH  22  23
ENDBRANCH  21  22
ENDBRANCH   3  21
TORSDOF 12
ENDMDL
MODEL 2
REMARK VINA RESULT:      -6.1      2.549      8.464
REMARK  Name = 195196
REMARK  12 active torsions:
REMARK  status: ('A' for Active; 'I' for Inactive)
REMARK    1  A    between atoms: N_2  and  N_6
REMARK    2  A    between atoms: C_3  and  C_21
REMARK    3  A    between atoms: C_7  and  C_9
REMARK    4  A    between atoms: C_9  and  C_10
REMARK    5  A    between atoms: C_10  and  C_11
REMARK    6  A    between atoms: C_11  and  C_12
REMARK    7  A    between atoms: C_12  and  C_13
REMARK    8  A    between atoms: C_13  and  N_16
REMARK    9  A    between atoms: C_21  and  C_22
REMARK   10  A    between atoms: C_22  and  C_23
REMARK   11  A    between atoms: C_23  and  C_24
REMARK   12  A    between atoms: C_24  and  C_31
REMARK                            x       y       z     vdW  Elec       q    Type
REMARK                         _______ _______ _______ _____ _____    ______ ____
ROOT
ATOM      1  O   UNL     1     -36.105  27.250   1.782  0.00  0.00    -0.274 OA
ATOM      2  N   UNL     1     -35.080  28.037   3.711  0.00  0.00    -0.234 N 
ATOM      3  C   UNL     1     -35.414  28.078   2.371  0.00  0.00    +0.238 C 
ATOM      4  H   UNL     1     -34.520  28.742   4.107  0.00  0.00    +0.173 HD
ENDROOT
BRANCH   2   6
ATOM      5  O   UNL     1     -33.560  25.801   4.322  0.00  0.00    -0.274 OA
ATOM      6  N   UNL     1     -35.543  26.998   4.480  0.00  0.00    -0.234 N 
ATOM      7  C   UNL     1     -34.711  25.925   4.732  0.00  0.00    +0.238 C 
ATOM      8  H   UNL     1     -36.456  27.018   4.849  0.00  0.00    +0.173 HD
BRANCH   7   9
ATOM      9  C   UNL     1     -35.355  24.886   5.629  0.00  0.00    +0.087 C 
BRANCH   9  10
ATOM     10  C   UNL     1     -34.600  23.558   5.582  0.00  0.00    +0.010 C 
BRANCH  10  11
ATOM     11  C   UNL     1     -35.476  22.307   5.715  0.00  0.00    +0.002 C 
BRANCH  11  12
ATOM     12  C   UNL     1     -35.408  21.379   4.497  0.00  0.00    +0.022 C 
BRANCH  12  13
ATOM     13  C   UNL     1     -35.529  22.141   3.180  0.00  0.00    +0.102 C 
BRANCH  13  16
ATOM     14  O   UNL     1     -37.840  23.994   3.510  0.00  0.00    -0.269 OA
ATOM     15  O   UNL     1     -36.706  20.070   1.386  0.00  0.00    -0.269 OA
ATOM     16  N   UNL     1     -36.852  22.059   2.622  0.00  0.00    -0.223 N 
ATOM     17  C   UNL     1     -37.854  22.976   2.837  0.00  0.00    +0.255 C 
ATOM     18  C   UNL     1     -37.297  21.053   1.797  0.00  0.00    +0.255 C 
ATOM     19  C   UNL     1     -39.025  22.506   2.082  0.00  0.00    +0.063 C 
ATOM     20  C   UNL     1     -38.695  21.368   1.467  0.00  0.00    +0.063 C 
ENDBRANCH  13  16
ENDBRANCH  12  13
ENDBRANCH  11  12
ENDBRANCH  10  11
ENDBRANCH   9  10
ENDBRANCH   7   9
ENDBRANCH   2   6
BRANCH   3  21
ATOM     21  C   UNL     1     -34.844  29.288   1.661  0.00  0.00    +0.087 C 
BRANCH  21  22
ATOM     22  C   UNL     1     -33.623  28.942   0.808  0.00  0.00    +0.010 C 
BRANCH  22  23
ATOM     23  C   UNL     1     -32.344  28.819   1.643  0.00  0.00    +0.001 C 
BRANCH  23  24
ATOM     24  C   UNL     1     -32.189  29.933   2.679  0.00  0.00    +0.013 C 
BRANCH  24  31
ATOM     25  S   UNL     1     -30.073  28.238   3.238  0.00  0.00    -0.138 S 
ATOM     26  O   UNL     1     -32.811  27.508   7.076  0.00  0.00    -0.253 OA
ATOM     27  N   UNL     1     -32.307  29.173   5.505  0.00  0.00    -0.288 N 
ATOM     28  N   UNL     1     -30.617  28.193   6.623  0.00  0.00    -0.288 N 
ATOM     29  C   UNL     1     -31.123  29.864   5.031  0.00  0.00    +0.102 C 
ATOM     30  C   UNL     1     -29.959  29.135   5.739  0.00  0.00    +0.103 C 
ATOM     31  C   UNL     1     -30.925  29.813   3.513  0.00  0.00    +0.067 C 
ATOM     32  C   UNL     1     -29.066  28.421   4.727  0.00  0.00    +0.079 C 
ATOM     33  C   UNL     1     -32.007  28.206   6.471  0.00  0.00    +0.301 C 
ATOM     34  H   UNL     1     -33.219  29.364   5.185  0.00  0.00    +0.151 HD
ATOM     35  H   UNL     1     -30.140  27.610   7.256  0.00  0.00    +0.151 HD
ENDBRANCH  24  31
ENDBRANCH  23  24
ENDBRANCH  22  23
ENDBRANCH  21  22
ENDBRANCH   3  21
TORSDOF 12
ENDMDL
MODEL 3
REMARK VINA RESULT:      -6.0      3.920      7.614
REMARK  Name = 195196
REMARK  12 active torsions:
REMARK  status: ('A' for Active; 'I' for Inactive)
REMARK    1  A    between atoms: N_2  and  N_6
REMARK    2  A    between atoms: C_3  and  C_21
REMARK    3  A    between atoms: C_7  and  C_9
REMARK    4  A    between atoms: C_9  and  C_10
REMARK    5  A    between atoms: C_10  and  C_11
REMARK    6  A    between atoms: C_11  and  C_12
REMARK    7  A    between atoms: C_12  and  C_13
REMARK    8  A    between atoms: C_13  and  N_16
REMARK    9  A    between atoms: C_21  and  C_22
REMARK   10  A    between atoms: C_22  and  C_23
REMARK   11  A    between atoms: C_23  and  C_24
REMARK   12  A    between atoms: C_24  and  C_31
REMARK                            x       y       z     vdW  Elec       q    Type
REMARK                         _______ _______ _______ _____ _____    ______ ____
ROOT
ATOM      1  O   UNL     1     -35.429  26.839   3.336  0.00  0.00    -0.274 OA
ATOM      2  N   UNL     1     -37.185  25.765   4.410  0.00  0.00    -0.234 N 
ATOM      3  C   UNL     1     -35.860  26.112   4.228  0.00  0.00    +0.238 C 
ATOM      4  H   UNL     1     -37.449  25.175   5.152  0.00  0.00    +0.173 HD
ENDROOT
BRANCH   2   6
ATOM      5  O   UNL     1     -39.252  24.234   3.377  0.00  0.00    -0.274 OA
ATOM      6  N   UNL     1     -38.127  26.258   3.541  0.00  0.00    -0.234 N 
ATOM      7  C   UNL     1     -39.121  25.418   3.079  0.00  0.00    +0.238 C 
ATOM      8  H   UNL     1     -38.095  27.198   3.251  0.00  0.00    +0.173 HD
BRANCH   7   9
ATOM      9  C   UNL     1     -40.103  26.124   2.165  0.00  0.00    +0.087 C 
BRANCH   9  10
ATOM     10  C   UNL     1     -41.550  25.811   2.545  0.00  0.00    +0.010 C 
BRANCH  10  11
ATOM     11  C   UNL     1     -42.092  26.598   3.744  0.00  0.00    +0.002 C 
BRANCH  11  12
ATOM     12  C   UNL     1     -42.327  28.082   3.446  0.00  0.00    +0.022 C 
BRANCH  12  13
ATOM     13  C   UNL     1     -43.811  28.440   3.417  0.00  0.00    +0.102 C 
BRANCH  13  16
ATOM     14  O   UNL     1     -45.619  26.552   4.848  0.00  0.00    -0.269 OA
ATOM     15  O   UNL     1     -43.493  30.590   5.459  0.00  0.00    -0.269 OA
ATOM     16  N   UNL     1     -44.374  28.538   4.736  0.00  0.00    -0.223 N 
ATOM     17  C   UNL     1     -45.204  27.603   5.308  0.00  0.00    +0.255 C 
ATOM     18  C   UNL     1     -44.161  29.581   5.606  0.00  0.00    +0.255 C 
ATOM     19  C   UNL     1     -45.537  28.101   6.652  0.00  0.00    +0.063 C 
ATOM     20  C   UNL     1     -44.921  29.271   6.827  0.00  0.00    +0.063 C 
ENDBRANCH  13  16
ENDBRANCH  12  13
ENDBRANCH  11  12
ENDBRANCH  10  11
ENDBRANCH   9  10
ENDBRANCH   7   9
ENDBRANCH   2   6
BRANCH   3  21
ATOM     21  C   UNL     1     -34.946  25.504   5.272  0.00  0.00    +0.087 C 
BRANCH  21  22
ATOM     22  C   UNL     1     -35.370  24.090   5.666  0.00  0.00    +0.010 C 
BRANCH  22  23
ATOM     23  C   UNL     1     -34.999  23.051   4.602  0.00  0.00    +0.001 C 
BRANCH  23  24
ATOM     24  C   UNL     1     -36.216  22.406   3.936  0.00  0.00    +0.013 C 
BRANCH  24  31
ATOM     25  S   UNL     1     -36.243  23.544   1.413  0.00  0.00    -0.138 S 
ATOM     26  O   UNL     1     -40.458  21.310   1.405  0.00  0.00    -0.253 OA
ATOM     27  N   UNL     1     -38.319  21.131   2.345  0.00  0.00    -0.288 N 
ATOM     28  N   UNL     1     -38.505  21.322   0.110  0.00  0.00    -0.288 N 
ATOM     29  C   UNL     1     -36.952  21.044   1.869  0.00  0.00    +0.102 C 
ATOM     30  C   UNL     1     -37.076  21.256   0.343  0.00  0.00    +0.103 C 
ATOM     31  C   UNL     1     -36.005  22.089   2.465  0.00  0.00    +0.067 C 
ATOM     32  C   UNL     1     -36.381  22.546  -0.087  0.00  0.00    +0.079 C 
ATOM     33  C   UNL     1     -39.239  21.263   1.300  0.00  0.00    +0.301 C 
ATOM     34  H   UNL     1     -38.571  21.098   3.297  0.00  0.00    +0.151 HD
ATOM     35  H   UNL     1     -38.913  21.399  -0.782  0.00  0.00    +0.151 HD
ENDBRANCH  24  31
ENDBRANCH  23  24
ENDBRANCH  22  23
ENDBRANCH  21  22
ENDBRANCH   3  21
TORSDOF 12
ENDMDL
MODEL 4
REMARK VINA RESULT:      -6.0      4.875      6.304
REMARK  Name = 195196
REMARK  12 active torsions:
REMARK  status: ('A' for Active; 'I' for Inactive)
REMARK    1  A    between atoms: N_2  and  N_6
REMARK    2  A    between atoms: C_3  and  C_21
REMARK    3  A    between atoms: C_7  and  C_9
REMARK    4  A    between atoms: C_9  and  C_10
REMARK    5  A    between atoms: C_10  and  C_11
REMARK    6  A    between atoms: C_11  and  C_12
REMARK    7  A    between atoms: C_12  and  C_13
REMARK    8  A    between atoms: C_13  and  N_16
REMARK    9  A    between atoms: C_21  and  C_22
REMARK   10  A    between atoms: C_22  and  C_23
REMARK   11  A    between atoms: C_23  and  C_24
REMARK   12  A    between atoms: C_24  and  C_31
REMARK                            x       y       z     vdW  Elec       q    Type
REMARK                         _______ _______ _______ _____ _____    ______ ____
ROOT
ATOM      1  O   UNL     1     -33.401  26.251   5.303  0.00  0.00    -0.274 OA
ATOM      2  N   UNL     1     -35.436  26.924   4.409  0.00  0.00    -0.234 N 
ATOM      3  C   UNL     1     -34.607  26.088   5.132  0.00  0.00    +0.238 C 
ATOM      4  H   UNL     1     -36.395  26.720   4.319  0.00  0.00    +0.173 HD
ENDROOT
BRANCH   2   6
ATOM      5  O   UNL     1     -36.225  27.858   1.921  0.00  0.00    -0.274 OA
ATOM      6  N   UNL     1     -34.901  28.042   3.819  0.00  0.00    -0.234 N 
ATOM      7  C   UNL     1     -35.358  28.432   2.576  0.00  0.00    +0.238 C 
ATOM      8  H   UNL     1     -34.201  28.562   4.278  0.00  0.00    +0.173 HD
BRANCH   7   9
ATOM      9  C   UNL     1     -34.700  29.706   2.085  0.00  0.00    +0.087 C 
BRANCH   9  10
ATOM     10  C   UNL     1     -35.373  30.948   2.669  0.00  0.00    +0.010 C 
BRANCH  10  11
ATOM     11  C   UNL     1     -35.931  31.932   1.634  0.00  0.00    +0.002 C 
BRANCH  11  12
ATOM     12  C   UNL     1     -37.455  31.866   1.487  0.00  0.00    +0.022 C 
BRANCH  12  13
ATOM     13  C   UNL     1     -37.987  32.897   0.495  0.00  0.00    +0.102 C 
BRANCH  13  16
ATOM     14  O   UNL     1     -40.749  33.477   1.449  0.00  0.00    -0.269 OA
ATOM     15  O   UNL     1     -36.576  35.412   1.258  0.00  0.00    -0.269 OA
ATOM     16  N   UNL     1     -38.499  34.071   1.149  0.00  0.00    -0.223 N 
ATOM     17  C   UNL     1     -39.802  34.240   1.554  0.00  0.00    +0.255 C 
ATOM     18  C   UNL     1     -37.756  35.186   1.460  0.00  0.00    +0.255 C 
ATOM     19  C   UNL     1     -39.883  35.571   2.172  0.00  0.00    +0.063 C 
ATOM     20  C   UNL     1     -38.673  36.131   2.116  0.00  0.00    +0.063 C 
ENDBRANCH  13  16
ENDBRANCH  12  13
ENDBRANCH  11  12
ENDBRANCH  10  11
ENDBRANCH   9  10
ENDBRANCH   7   9
ENDBRANCH   2   6
BRANCH   3  21
ATOM     21  C   UNL     1     -35.343  24.907   5.732  0.00  0.00    +0.087 C 
BRANCH  21  22
ATOM     22  C   UNL     1     -34.933  23.580   5.095  0.00  0.00    +0.010 C 
BRANCH  22  23
ATOM     23  C   UNL     1     -36.035  22.993   4.207  0.00  0.00    +0.001 C 
BRANCH  23  24
ATOM     24  C   UNL     1     -35.512  21.984   3.182  0.00  0.00    +0.013 C 
BRANCH  24  31
ATOM     25  S   UNL     1     -36.606  23.970   1.594  0.00  0.00    -0.138 S 
ATOM     26  O   UNL     1     -40.415  21.171   2.234  0.00  0.00    -0.253 OA
ATOM     27  N   UNL     1     -38.078  21.045   2.126  0.00  0.00    -0.288 N 
ATOM     28  N   UNL     1     -39.187  22.034   0.435  0.00  0.00    -0.288 N 
ATOM     29  C   UNL     1     -37.036  21.400   1.181  0.00  0.00    +0.102 C 
ATOM     30  C   UNL     1     -37.792  22.149   0.059  0.00  0.00    +0.103 C 
ATOM     31  C   UNL     1     -35.935  22.295   1.756  0.00  0.00    +0.067 C 
ATOM     32  C   UNL     1     -37.352  23.610  -0.012  0.00  0.00    +0.079 C 
ATOM     33  C   UNL     1     -39.353  21.393   1.667  0.00  0.00    +0.301 C 
ATOM     34  H   UNL     1     -37.907  20.608   2.992  0.00  0.00    +0.151 HD
ATOM     35  H   UNL     1     -39.932  22.368  -0.114  0.00  0.00    +0.151 HD
ENDBRANCH  24  31
ENDBRANCH  23  24
ENDBRANCH  22  23
ENDBRANCH  21  22
ENDBRANCH   3  21
TORSDOF 12
ENDMDL
MODEL 5
REMARK VINA RESULT:      -6.0      4.355      7.001
REMARK  Name = 195196
REMARK  12 active torsions:
REMARK  status: ('A' for Active; 'I' for Inactive)
REMARK    1  A    between atoms: N_2  and  N_6
REMARK    2  A    between atoms: C_3  and  C_21
REMARK    3  A    between atoms: C_7  and  C_9
REMARK    4  A    between atoms: C_9  and  C_10
REMARK    5  A    between atoms: C_10  and  C_11
REMARK    6  A    between atoms: C_11  and  C_12
REMARK    7  A    between atoms: C_12  and  C_13
REMARK    8  A    between atoms: C_13  and  N_16
REMARK    9  A    between atoms: C_21  and  C_22
REMARK   10  A    between atoms: C_22  and  C_23
REMARK   11  A    between atoms: C_23  and  C_24
REMARK   12  A    between atoms: C_24  and  C_31
REMARK                            x       y       z     vdW  Elec       q    Type
REMARK                         _______ _______ _______ _____ _____    ______ ____
ROOT
ATOM      1  O   UNL     1     -38.333  26.540   2.407  0.00  0.00    -0.274 OA
ATOM      2  N   UNL     1     -38.556  24.909   4.045  0.00  0.00    -0.234 N 
ATOM      3  C   UNL     1     -38.997  25.686   2.991  0.00  0.00    +0.238 C 
ATOM      4  H   UNL     1     -39.152  24.245   4.459  0.00  0.00    +0.173 HD
ENDROOT
BRANCH   2   6
ATOM      5  O   UNL     1     -36.691  22.859   4.143  0.00  0.00    -0.274 OA
ATOM      6  N   UNL     1     -37.273  25.077   4.504  0.00  0.00    -0.234 N 
ATOM      7  C   UNL     1     -36.413  23.997   4.514  0.00  0.00    +0.238 C 
ATOM      8  H   UNL     1     -36.968  25.959   4.820  0.00  0.00    +0.173 HD
BRANCH   7   9
ATOM      9  C   UNL     1     -35.027  24.358   5.008  0.00  0.00    +0.087 C 
BRANCH   9  10
ATOM     10  C   UNL     1     -35.023  25.701   5.739  0.00  0.00    +0.010 C 
BRANCH  10  11
ATOM     11  C   UNL     1     -33.764  26.551   5.531  0.00  0.00    +0.002 C 
BRANCH  11  12
ATOM     12  C   UNL     1     -33.569  27.011   4.082  0.00  0.00    +0.022 C 
BRANCH  12  13
ATOM     13  C   UNL     1     -32.214  27.679   3.864  0.00  0.00    +0.102 C 
BRANCH  13  16
ATOM     14  O   UNL     1     -30.368  27.563   6.199  0.00  0.00    -0.269 OA
ATOM     15  O   UNL     1     -33.324  30.432   4.145  0.00  0.00    -0.269 OA
ATOM     16  N   UNL     1     -31.933  28.680   4.855  0.00  0.00    -0.223 N 
ATOM     17  C   UNL     1     -31.055  28.526   5.902  0.00  0.00    +0.255 C 
ATOM     18  C   UNL     1     -32.504  29.931   4.894  0.00  0.00    +0.255 C 
ATOM     19  C   UNL     1     -31.075  29.787   6.659  0.00  0.00    +0.063 C 
ATOM     20  C   UNL     1     -31.932  30.617   6.063  0.00  0.00    +0.063 C 
ENDBRANCH  13  16
ENDBRANCH  12  13
ENDBRANCH  11  12
ENDBRANCH  10  11
ENDBRANCH   9  10
ENDBRANCH   7   9
ENDBRANCH   2   6
BRANCH   3  21
ATOM     21  C   UNL     1     -40.424  25.375   2.590  0.00  0.00    +0.087 C 
BRANCH  21  22
ATOM     22  C   UNL     1     -41.299  26.627   2.535  0.00  0.00    +0.010 C 
BRANCH  22  23
ATOM     23  C   UNL     1     -42.176  26.782   3.782  0.00  0.00    +0.001 C 
BRANCH  23  24
ATOM     24  C   UNL     1     -43.669  26.611   3.497  0.00  0.00    +0.013 C 
BRANCH  24  31
ATOM     25  S   UNL     1     -43.528  29.107   4.686  0.00  0.00    -0.138 S 
ATOM     26  O   UNL     1     -45.797  26.649   8.087  0.00  0.00    -0.253 OA
ATOM     27  N   UNL     1     -45.528  26.687   5.760  0.00  0.00    -0.288 N 
ATOM     28  N   UNL     1     -46.170  28.574   6.805  0.00  0.00    -0.288 N 
ATOM     29  C   UNL     1     -45.721  27.639   4.682  0.00  0.00    +0.102 C 
ATOM     30  C   UNL     1     -46.084  28.954   5.409  0.00  0.00    +0.103 C 
ATOM     31  C   UNL     1     -44.489  27.854   3.798  0.00  0.00    +0.067 C 
ATOM     32  C   UNL     1     -45.009  30.015   5.185  0.00  0.00    +0.079 C 
ATOM     33  C   UNL     1     -45.825  27.235   7.013  0.00  0.00    +0.301 C 
ATOM     34  H   UNL     1     -45.223  25.760   5.625  0.00  0.00    +0.151 HD
ATOM     35  H   UNL     1     -46.441  29.188   7.525  0.00  0.00    +0.151 HD
ENDBRANCH  24  31
ENDBRANCH  23  24
ENDBRANCH  22  23
ENDBRANCH  21  22
ENDBRANCH   3  21
TORSDOF 12
ENDMDL
MODEL 6
REMARK VINA RESULT:      -5.9      2.382      4.073
REMARK  Name = 195196
REMARK  12 active torsions:
REMARK  status: ('A' for Active; 'I' for Inactive)
REMARK    1  A    between atoms: N_2  and  N_6
REMARK    2  A    between atoms: C_3  and  C_21
REMARK    3  A    between atoms: C_7  and  C_9
REMARK    4  A    between atoms: C_9  and  C_10
REMARK    5  A    between atoms: C_10  and  C_11
REMARK    6  A    between atoms: C_11  and  C_12
REMARK    7  A    between atoms: C_12  and  C_13
REMARK    8  A    between atoms: C_13  and  N_16
REMARK    9  A    between atoms: C_21  and  C_22
REMARK   10  A    between atoms: C_22  and  C_23
REMARK   11  A    between atoms: C_23  and  C_24
REMARK   12  A    between atoms: C_24  and  C_31
REMARK                            x       y       z     vdW  Elec       q    Type
REMARK                         _______ _______ _______ _____ _____    ______ ____
ROOT
ATOM      1  O   UNL     1     -33.581  25.443   4.145  0.00  0.00    -0.274 OA
ATOM      2  N   UNL     1     -35.463  26.765   4.468  0.00  0.00    -0.234 N 
ATOM      3  C   UNL     1     -34.632  25.693   4.731  0.00  0.00    +0.238 C 
ATOM      4  H   UNL     1     -36.290  26.893   4.985  0.00  0.00    +0.173 HD
ENDROOT
BRANCH   2   6
ATOM      5  O   UNL     1     -37.035  27.240   2.234  0.00  0.00    -0.274 OA
ATOM      6  N   UNL     1     -35.115  27.647   3.475  0.00  0.00    -0.234 N 
ATOM      7  C   UNL     1     -35.964  27.819   2.399  0.00  0.00    +0.238 C 
ATOM      8  H   UNL     1     -34.272  28.153   3.530  0.00  0.00    +0.173 HD
BRANCH   7   9
ATOM      9  C   UNL     1     -35.458  28.856   1.416  0.00  0.00    +0.087 C 
BRANCH   9  10
ATOM     10  C   UNL     1     -36.168  30.197   1.599  0.00  0.00    +0.010 C 
BRANCH  10  11
ATOM     11  C   UNL     1     -35.247  31.383   1.910  0.00  0.00    +0.002 C 
BRANCH  11  12
ATOM     12  C   UNL     1     -34.377  31.171   3.154  0.00  0.00    +0.022 C 
BRANCH  12  13
ATOM     13  C   UNL     1     -32.970  30.697   2.804  0.00  0.00    +0.102 C 
BRANCH  13  16
ATOM     14  O   UNL     1     -30.871  32.608   3.710  0.00  0.00    -0.269 OA
ATOM     15  O   UNL     1     -32.806  28.614   4.931  0.00  0.00    -0.269 OA
ATOM     16  N   UNL     1     -32.113  30.633   3.956  0.00  0.00    -0.223 N 
ATOM     17  C   UNL     1     -31.169  31.576   4.288  0.00  0.00    +0.255 C 
ATOM     18  C   UNL     1     -32.119  29.619   4.885  0.00  0.00    +0.255 C 
ATOM     19  C   UNL     1     -30.531  31.116   5.531  0.00  0.00    +0.063 C 
ATOM     20  C   UNL     1     -31.093  29.958   5.884  0.00  0.00    +0.063 C 
ENDBRANCH  13  16
ENDBRANCH  12  13
ENDBRANCH  11  12
ENDBRANCH  10  11
ENDBRANCH   9  10
ENDBRANCH   7   9
ENDBRANCH   2   6
BRANCH   3  21
ATOM     21  C   UNL     1     -35.141  24.819   5.859  0.00  0.00    +0.087 C 
BRANCH  21  22
ATOM     22  C   UNL     1     -35.035  23.329   5.535  0.00  0.00    +0.010 C 
BRANCH  22  23
ATOM     23  C   UNL     1     -36.061  22.885   4.488  0.00  0.00    +0.001 C 
BRANCH  23  24
ATOM     24  C   UNL     1     -35.553  21.761   3.583  0.00  0.00    +0.013 C 
BRANCH  24  31
ATOM     25  S   UNL     1     -36.286  23.739   1.791  0.00  0.00    -0.138 S 
ATOM     26  O   UNL     1     -40.336  21.229   2.020  0.00  0.00    -0.253 OA
ATOM     27  N   UNL     1     -38.019  20.945   2.229  0.00  0.00    -0.288 N 
ATOM     28  N   UNL     1     -38.826  21.926   0.371  0.00  0.00    -0.288 N 
ATOM     29  C   UNL     1     -36.841  21.187   1.419  0.00  0.00    +0.102 C 
ATOM     30  C   UNL     1     -37.388  21.932   0.180  0.00  0.00    +0.103 C 
ATOM     31  C   UNL     1     -35.764  22.033   2.103  0.00  0.00    +0.067 C 
ATOM     32  C   UNL     1     -36.840  23.356   0.114  0.00  0.00    +0.079 C 
ATOM     33  C   UNL     1     -39.196  21.354   1.592  0.00  0.00    +0.301 C 
ATOM     34  H   UNL     1     -37.994  20.537   3.126  0.00  0.00    +0.151 HD
ATOM     35  H   UNL     1     -39.467  22.283  -0.284  0.00  0.00    +0.151 HD
ENDBRANCH  24  31
ENDBRANCH  23  24
ENDBRANCH  22  23
ENDBRANCH  21  22
ENDBRANCH   3  21
TORSDOF 12
ENDMDL
MODEL 7
REMARK VINA RESULT:      -5.8      3.077      9.151
REMARK  Name = 195196
REMARK  12 active torsions:
REMARK  status: ('A' for Active; 'I' for Inactive)
REMARK    1  A    between atoms: N_2  and  N_6
REMARK    2  A    between atoms: C_3  and  C_21
REMARK    3  A    between atoms: C_7  and  C_9
REMARK    4  A    between atoms: C_9  and  C_10
REMARK    5  A    between atoms: C_10  and  C_11
REMARK    6  A    between atoms: C_11  and  C_12
REMARK    7  A    between atoms: C_12  and  C_13
REMARK    8  A    between atoms: C_13  and  N_16
REMARK    9  A    between atoms: C_21  and  C_22
REMARK   10  A    between atoms: C_22  and  C_23
REMARK   11  A    between atoms: C_23  and  C_24
REMARK   12  A    between atoms: C_24  and  C_31
REMARK                            x       y       z     vdW  Elec       q    Type
REMARK                         _______ _______ _______ _____ _____    ______ ____
ROOT
ATOM      1  O   UNL     1     -34.808  27.406   1.564  0.00  0.00    -0.274 OA
ATOM      2  N   UNL     1     -35.024  28.120   3.762  0.00  0.00    -0.234 N 
ATOM      3  C   UNL     1     -34.691  28.269   2.430  0.00  0.00    +0.238 C 
ATOM      4  H   UNL     1     -34.898  28.864   4.394  0.00  0.00    +0.173 HD
ENDROOT
BRANCH   2   6
ATOM      5  O   UNL     1     -33.956  26.679   5.876  0.00  0.00    -0.274 OA
ATOM      6  N   UNL     1     -35.533  26.919   4.190  0.00  0.00    -0.234 N 
ATOM      7  C   UNL     1     -34.934  26.273   5.253  0.00  0.00    +0.238 C 
ATOM      8  H   UNL     1     -36.318  26.523   3.745  0.00  0.00    +0.173 HD
BRANCH   7   9
ATOM      9  C   UNL     1     -35.640  24.985   5.627  0.00  0.00    +0.087 C 
BRANCH   9  10
ATOM     10  C   UNL     1     -34.739  23.769   5.418  0.00  0.00    +0.010 C 
BRANCH  10  11
ATOM     11  C   UNL     1     -35.411  22.413   5.661  0.00  0.00    +0.002 C 
BRANCH  11  12
ATOM     12  C   UNL     1     -35.406  21.497   4.432  0.00  0.00    +0.022 C 
BRANCH  12  13
ATOM     13  C   UNL     1     -35.596  22.272   3.131  0.00  0.00    +0.102 C 
BRANCH  13  16
ATOM     14  O   UNL     1     -36.642  20.113   1.364  0.00  0.00    -0.269 OA
ATOM     15  O   UNL     1     -38.020  23.982   3.444  0.00  0.00    -0.269 OA
ATOM     16  N   UNL     1     -36.913  22.100   2.581  0.00  0.00    -0.223 N 
ATOM     17  C   UNL     1     -37.297  21.058   1.770  0.00  0.00    +0.255 C 
ATOM     18  C   UNL     1     -37.971  22.954   2.790  0.00  0.00    +0.255 C 
ATOM     19  C   UNL     1     -38.715  21.276   1.445  0.00  0.00    +0.063 C 
ATOM     20  C   UNL     1     -39.113  22.398   2.049  0.00  0.00    +0.063 C 
ENDBRANCH  13  16
ENDBRANCH  12  13
ENDBRANCH  11  12
ENDBRANCH  10  11
ENDBRANCH   9  10
ENDBRANCH   7   9
ENDBRANCH   2   6
BRANCH   3  21
ATOM     21  C   UNL     1     -34.156  29.650   2.110  0.00  0.00    +0.087 C 
BRANCH  21  22
ATOM     22  C   UNL     1     -32.688  29.812   2.501  0.00  0.00    +0.010 C 
BRANCH  22  23
ATOM     23  C   UNL     1     -32.512  30.620   3.790  0.00  0.00    +0.001 C 
BRANCH  23  24
ATOM     24  C   UNL     1     -31.939  29.798   4.946  0.00  0.00    +0.013 C 
BRANCH  24  31
ATOM     25  S   UNL     1     -29.530  31.038   4.377  0.00  0.00    -0.138 S 
ATOM     26  O   UNL     1     -28.007  26.671   5.546  0.00  0.00    -0.253 OA
ATOM     27  N   UNL     1     -29.756  28.159   6.010  0.00  0.00    -0.288 N 
ATOM     28  N   UNL     1     -27.636  28.876   6.246  0.00  0.00    -0.288 N 
ATOM     29  C   UNL     1     -29.896  29.516   6.501  0.00  0.00    +0.102 C 
ATOM     30  C   UNL     1     -28.442  30.032   6.586  0.00  0.00    +0.103 C 
ATOM     31  C   UNL     1     -30.724  30.436   5.599  0.00  0.00    +0.067 C 
ATOM     32  C   UNL     1     -28.212  31.180   5.604  0.00  0.00    +0.079 C 
ATOM     33  C   UNL     1     -28.417  27.772   5.890  0.00  0.00    +0.301 C 
ATOM     34  H   UNL     1     -30.518  27.575   5.787  0.00  0.00    +0.151 HD
ATOM     35  H   UNL     1     -26.652  28.869   6.263  0.00  0.00    +0.151 HD
ENDBRANCH  24  31
ENDBRANCH  23  24
ENDBRANCH  22  23
ENDBRANCH  21  22
ENDBRANCH   3  21
TORSDOF 12
ENDMDL
MODEL 8
REMARK VINA RESULT:      -5.8      5.253      9.750
REMARK  Name = 195196
REMARK  12 active torsions:
REMARK  status: ('A' for Active; 'I' for Inactive)
REMARK    1  A    between atoms: N_2  and  N_6
REMARK    2  A    between atoms: C_3  and  C_21
REMARK    3  A    between atoms: C_7  and  C_9
REMARK    4  A    between atoms: C_9  and  C_10
REMARK    5  A    between atoms: C_10  and  C_11
REMARK    6  A    between atoms: C_11  and  C_12
REMARK    7  A    between atoms: C_12  and  C_13
REMARK    8  A    between atoms: C_13  and  N_16
REMARK    9  A    between atoms: C_21  and  C_22
REMARK   10  A    between atoms: C_22  and  C_23
REMARK   11  A    between atoms: C_23  and  C_24
REMARK   12  A    between atoms: C_24  and  C_31
REMARK                            x       y       z     vdW  Elec       q    Type
REMARK                         _______ _______ _______ _____ _____    ______ ____
ROOT
ATOM      1  O   UNL     1     -36.203  26.779   1.794  0.00  0.00    -0.274 OA
ATOM      2  N   UNL     1     -35.417  28.007   3.601  0.00  0.00    -0.234 N 
ATOM      3  C   UNL     1     -35.856  27.843   2.302  0.00  0.00    +0.238 C 
ATOM      4  H   UNL     1     -35.156  28.897   3.931  0.00  0.00    +0.173 HD
ENDROOT
BRANCH   2   6
ATOM      5  O   UNL     1     -33.031  26.810   4.350  0.00  0.00    -0.274 OA
ATOM      6  N   UNL     1     -35.349  26.910   4.423  0.00  0.00    -0.234 N 
ATOM      7  C   UNL     1     -34.113  26.382   4.742  0.00  0.00    +0.238 C 
ATOM      8  H   UNL     1     -36.171  26.505   4.783  0.00  0.00    +0.173 HD
BRANCH   7   9
ATOM      9  C   UNL     1     -34.209  25.204   5.691  0.00  0.00    +0.087 C 
BRANCH   9  10
ATOM     10  C   UNL     1     -35.497  24.410   5.473  0.00  0.00    +0.010 C 
BRANCH  10  11
ATOM     11  C   UNL     1     -35.416  22.925   5.844  0.00  0.00    +0.002 C 
BRANCH  11  12
ATOM     12  C   UNL     1     -35.464  21.988   4.632  0.00  0.00    +0.022 C 
BRANCH  12  13
ATOM     13  C   UNL     1     -35.696  22.742   3.325  0.00  0.00    +0.102 C 
BRANCH  13  16
ATOM     14  O   UNL     1     -36.569  20.424   1.669  0.00  0.00    -0.269 OA
ATOM     15  O   UNL     1     -38.219  24.325   3.473  0.00  0.00    -0.269 OA
ATOM     16  N   UNL     1     -36.985  22.462   2.755  0.00  0.00    -0.223 N 
ATOM     17  C   UNL     1     -37.288  21.352   2.000  0.00  0.00    +0.255 C 
ATOM     18  C   UNL     1     -38.094  23.265   2.885  0.00  0.00    +0.255 C 
ATOM     19  C   UNL     1     -38.706  21.469   1.628  0.00  0.00    +0.063 C 
ATOM     20  C   UNL     1     -39.182  22.600   2.151  0.00  0.00    +0.063 C 
ENDBRANCH  13  16
ENDBRANCH  12  13
ENDBRANCH  11  12
ENDBRANCH  10  11
ENDBRANCH   9  10
ENDBRANCH   7   9
ENDBRANCH   2   6
BRANCH   3  21
ATOM     21  C   UNL     1     -35.889  29.144   1.525  0.00  0.00    +0.087 C 
BRANCH  21  22
ATOM     22  C   UNL     1     -35.144  30.269   2.242  0.00  0.00    +0.010 C 
BRANCH  22  23
ATOM     23  C   UNL     1     -35.999  31.531   2.396  0.00  0.00    +0.001 C 
BRANCH  23  24
ATOM     24  C   UNL     1     -37.094  31.652   1.334  0.00  0.00    +0.013 C 
BRANCH  24  31
ATOM     25  S   UNL     1     -35.585  33.947   0.992  0.00  0.00    -0.138 S 
ATOM     26  O   UNL     1     -39.332  35.714   3.358  0.00  0.00    -0.253 OA
ATOM     27  N   UNL     1     -38.782  33.984   1.876  0.00  0.00    -0.288 N 
ATOM     28  N   UNL     1     -38.235  36.096   1.323  0.00  0.00    -0.288 N 
ATOM     29  C   UNL     1     -38.186  33.861   0.559  0.00  0.00    +0.102 C 
ATOM     30  C   UNL     1     -37.739  35.300   0.217  0.00  0.00    +0.103 C 
ATOM     31  C   UNL     1     -36.985  32.913   0.493  0.00  0.00    +0.067 C 
ATOM     32  C   UNL     1     -36.219  35.388   0.105  0.00  0.00    +0.079 C 
ATOM     33  C   UNL     1     -38.839  35.313   2.312  0.00  0.00    +0.301 C 
ATOM     34  H   UNL     1     -39.111  33.220   2.403  0.00  0.00    +0.151 HD
ATOM     35  H   UNL     1     -38.156  37.076   1.372  0.00  0.00    +0.151 HD
ENDBRANCH  24  31
ENDBRANCH  23  24
ENDBRANCH  22  23
ENDBRANCH  21  22
ENDBRANCH   3  21
TORSDOF 12
ENDMDL
MODEL 9
REMARK VINA RESULT:      -5.8      4.793      6.750
REMARK  Name = 195196
REMARK  12 active torsions:
REMARK  status: ('A' for Active; 'I' for Inactive)
REMARK    1  A    between atoms: N_2  and  N_6
REMARK    2  A    between atoms: C_3  and  C_21
REMARK    3  A    between atoms: C_7  and  C_9
REMARK    4  A    between atoms: C_9  and  C_10
REMARK    5  A    between atoms: C_10  and  C_11
REMARK    6  A    between atoms: C_11  and  C_12
REMARK    7  A    between atoms: C_12  and  C_13
REMARK    8  A    between atoms: C_13  and  N_16
REMARK    9  A    between atoms: C_21  and  C_22
REMARK   10  A    between atoms: C_22  and  C_23
REMARK   11  A    between atoms: C_23  and  C_24
REMARK   12  A    between atoms: C_24  and  C_31
REMARK                            x       y       z     vdW  Elec       q    Type
REMARK                         _______ _______ _______ _____ _____    ______ ____
ROOT
ATOM      1  O   UNL     1     -32.964  26.743   4.292  0.00  0.00    -0.274 OA
ATOM      2  N   UNL     1     -35.248  27.157   4.339  0.00  0.00    -0.234 N 
ATOM      3  C   UNL     1     -34.099  26.469   4.677  0.00  0.00    +0.238 C 
ATOM      4  H   UNL     1     -36.122  26.872   4.691  0.00  0.00    +0.173 HD
ENDROOT
BRANCH   2   6
ATOM      5  O   UNL     1     -35.834  27.054   1.631  0.00  0.00    -0.274 OA
ATOM      6  N   UNL     1     -35.152  28.243   3.504  0.00  0.00    -0.234 N 
ATOM      7  C   UNL     1     -35.466  28.096   2.167  0.00  0.00    +0.238 C 
ATOM      8  H   UNL     1     -34.864  29.117   3.855  0.00  0.00    +0.173 HD
BRANCH   7   9
ATOM      9  C   UNL     1     -35.350  29.394   1.394  0.00  0.00    +0.087 C 
BRANCH   9  10
ATOM     10  C   UNL     1     -35.604  30.606   2.291  0.00  0.00    +0.010 C 
BRANCH  10  11
ATOM     11  C   UNL     1     -36.716  31.547   1.811  0.00  0.00    +0.002 C 
BRANCH  11  12
ATOM     12  C   UNL     1     -36.218  32.660   0.883  0.00  0.00    +0.022 C 
BRANCH  12  13
ATOM     13  C   UNL     1     -37.354  33.315   0.101  0.00  0.00    +0.102 C 
BRANCH  13  16
ATOM     14  O   UNL     1     -40.035  33.007   1.364  0.00  0.00    -0.269 OA
ATOM     15  O   UNL     1     -36.639  36.086   0.940  0.00  0.00    -0.269 OA
ATOM     16  N   UNL     1     -38.099  34.249   0.901  0.00  0.00    -0.223 N 
ATOM     17  C   UNL     1     -39.339  34.006   1.443  0.00  0.00    +0.255 C 
ATOM     18  C   UNL     1     -37.674  35.513   1.234  0.00  0.00    +0.255 C 
ATOM     19  C   UNL     1     -39.723  35.220   2.179  0.00  0.00    +0.063 C 
ATOM     20  C   UNL     1     -38.738  36.111   2.055  0.00  0.00    +0.063 C 
ENDBRANCH  13  16
ENDBRANCH  12  13
ENDBRANCH  11  12
ENDBRANCH  10  11
ENDBRANCH   9  10
ENDBRANCH   7   9
ENDBRANCH   2   6
BRANCH   3  21
ATOM     21  C   UNL     1     -34.364  25.308   5.612  0.00  0.00    +0.087 C 
BRANCH  21  22
ATOM     22  C   UNL     1     -35.763  24.721   5.431  0.00  0.00    +0.010 C 
BRANCH  22  23
ATOM     23  C   UNL     1     -35.754  23.439   4.591  0.00  0.00    +0.001 C 
BRANCH  23  24
ATOM     24  C   UNL     1     -36.205  23.659   3.146  0.00  0.00    +0.013 C 
BRANCH  24  31
ATOM     25  S   UNL     1     -37.886  22.676   1.179  0.00  0.00    -0.138 S 
ATOM     26  O   UNL     1     -39.153  27.275   1.189  0.00  0.00    -0.253 OA
ATOM     27  N   UNL     1     -38.309  25.630   2.628  0.00  0.00    -0.288 N 
ATOM     28  N   UNL     1     -40.193  25.195   1.475  0.00  0.00    -0.288 N 
ATOM     29  C   UNL     1     -38.704  24.310   3.082  0.00  0.00    +0.102 C 
ATOM     30  C   UNL     1     -39.951  23.982   2.231  0.00  0.00    +0.103 C 
ATOM     31  C   UNL     1     -37.639  23.228   2.887  0.00  0.00    +0.067 C 
ATOM     32  C   UNL     1     -39.685  22.794   1.308  0.00  0.00    +0.079 C 
ATOM     33  C   UNL     1     -39.210  26.165   1.701  0.00  0.00    +0.301 C 
ATOM     34  H   UNL     1     -37.500  26.098   2.939  0.00  0.00    +0.151 HD
ATOM     35  H   UNL     1     -40.960  25.323   0.873  0.00  0.00    +0.151 HD
ENDBRANCH  24  31
ENDBRANCH  23  24
ENDBRANCH  22  23
ENDBRANCH  21  22
ENDBRANCH   3  21
TORSDOF 12
ENDMDL
