MODEL 1
REMARK VINA RESULT:      -4.8      0.000      0.000
REMARK  Name = 193709
REMARK  7 active torsions:
REMARK  status: ('A' for Active; 'I' for Inactive)
REMARK    1  A    between atoms: C_1  and  C_2
REMARK    2  A    between atoms: C_1  and  C_13
REMARK    3  A    between atoms: C_2  and  C_5
REMARK    4  A    between atoms: C_2  and  N_9
REMARK    5  A    between atoms: C_13  and  C_14
REMARK    6  A    between atoms: C_14  and  N_15
REMARK    7  A    between atoms: N_15  and  C_18
REMARK                            x       y       z     vdW  Elec       q    Type
REMARK                         _______ _______ _______ _____ _____    ______ ____
ROOT
ATOM      1  C   UNL     1     -34.953  23.115   1.886  0.00  0.00    +0.031 C 
ENDROOT
BRANCH   1   2
ATOM      2  C   UNL     1     -36.136  22.472   2.621  0.00  0.00    +0.149 C 
BRANCH   2   5
ATOM      3  O   UNL     1     -35.217  20.625   3.895  0.00  0.00    -0.273 OA
ATOM      4  N   UNL     1     -35.945  22.513   5.032  0.00  0.00    -0.301 N 
ATOM      5  C   UNL     1     -35.720  21.747   3.897  0.00  0.00    +0.240 C 
ATOM      6  C   UNL     1     -35.606  22.062   6.362  0.00  0.00    +0.111 C 
ATOM      7  H   UNL     1     -36.354  23.402   4.926  0.00  0.00    +0.150 HD
ENDBRANCH   2   5
BRANCH   2   9
ATOM      8  O   UNL     1     -38.964  22.327   1.982  0.00  0.00    -0.275 OA
ATOM      9  N   UNL     1     -37.156  23.436   2.944  0.00  0.00    -0.298 N 
ATOM     10  C   UNL     1     -38.489  23.280   2.596  0.00  0.00    +0.223 C 
ATOM     11  C   UNL     1     -39.346  24.419   3.078  0.00  0.00    +0.095 C 
ATOM     12  H   UNL     1     -36.894  24.246   3.438  0.00  0.00    +0.150 HD
ENDBRANCH   2   9
ENDBRANCH   1   2
BRANCH   1  13
ATOM     13  C   UNL     1     -34.916  24.648   1.981  0.00  0.00    +0.029 C 
BRANCH  13  14
ATOM     14  C   UNL     1     -33.982  25.138   3.084  0.00  0.00    +0.129 C 
BRANCH  14  15
ATOM     15  N   UNL     1     -34.713  25.245   4.348  0.00  0.00    -0.240 NA
BRANCH  15  18
ATOM     16  N   UNL     1     -35.233  27.573   4.063  0.00  0.00    -0.370 N 
ATOM     17  N   UNL     1     -36.669  26.184   5.160  0.00  0.00    -0.370 N 
ATOM     18  C   UNL     1     -35.469  26.287   4.498  0.00  0.00    +0.189 C 
ATOM     19  H   UNL     1     -34.405  27.782   3.573  0.00  0.00    +0.159 HD
ATOM     20  H   UNL     1     -35.892  28.282   4.241  0.00  0.00    +0.159 HD
ATOM     21  H   UNL     1     -36.959  25.316   5.523  0.00  0.00    +0.159 HD
ATOM     22  H   UNL     1     -37.240  26.978   5.271  0.00  0.00    +0.159 HD
ENDBRANCH  15  18
ENDBRANCH  14  15
ENDBRANCH  13  14
ENDBRANCH   1  13
TORSDOF 7
ENDMDL
MODEL 2
REMARK VINA RESULT:      -4.7      1.589      3.442
REMARK  Name = 193709
REMARK  7 active torsions:
REMARK  status: ('A' for Active; 'I' for Inactive)
REMARK    1  A    between atoms: C_1  and  C_2
REMARK    2  A    between atoms: C_1  and  C_13
REMARK    3  A    between atoms: C_2  and  C_5
REMARK    4  A    between atoms: C_2  and  N_9
REMARK    5  A    between atoms: C_13  and  C_14
REMARK    6  A    between atoms: C_14  and  N_15
REMARK    7  A    between atoms: N_15  and  C_18
REMARK                            x       y       z     vdW  Elec       q    Type
REMARK                         _______ _______ _______ _____ _____    ______ ____
ROOT
ATOM      1  C   UNL     1     -35.706  23.461   2.227  0.00  0.00    +0.031 C 
ENDROOT
BRANCH   1   2
ATOM      2  C   UNL     1     -36.700  23.488   3.395  0.00  0.00    +0.149 C 
BRANCH   2   5
ATOM      3  O   UNL     1     -39.042  24.037   3.091  0.00  0.00    -0.273 OA
ATOM      4  N   UNL     1     -38.279  21.965   2.376  0.00  0.00    -0.301 N 
ATOM      5  C   UNL     1     -38.136  23.216   2.959  0.00  0.00    +0.240 C 
ATOM      6  C   UNL     1     -39.537  21.483   1.853  0.00  0.00    +0.111 C 
ATOM      7  H   UNL     1     -37.490  21.381   2.317  0.00  0.00    +0.150 HD
ENDBRANCH   2   5
BRANCH   2   9
ATOM      8  O   UNL     1     -34.912  23.933   5.638  0.00  0.00    -0.275 OA
ATOM      9  N   UNL     1     -36.342  22.550   4.427  0.00  0.00    -0.298 N 
ATOM     10  C   UNL     1     -35.474  22.855   5.465  0.00  0.00    +0.223 C 
ATOM     11  C   UNL     1     -35.292  21.704   6.419  0.00  0.00    +0.095 C 
ATOM     12  H   UNL     1     -36.732  21.646   4.394  0.00  0.00    +0.150 HD
ENDBRANCH   2   9
ENDBRANCH   1   2
BRANCH   1  13
ATOM     13  C   UNL     1     -34.905  24.761   2.057  0.00  0.00    +0.029 C 
BRANCH  13  14
ATOM     14  C   UNL     1     -35.760  26.003   2.287  0.00  0.00    +0.129 C 
BRANCH  14  15
ATOM     15  N   UNL     1     -35.022  26.977   3.093  0.00  0.00    -0.240 NA
BRANCH  15  18
ATOM     16  N   UNL     1     -34.018  26.832   5.271  0.00  0.00    -0.370 N 
ATOM     17  N   UNL     1     -36.273  26.625   5.011  0.00  0.00    -0.370 N 
ATOM     18  C   UNL     1     -35.068  26.824   4.379  0.00  0.00    +0.189 C 
ATOM     19  H   UNL     1     -33.098  26.966   4.947  0.00  0.00    +0.159 HD
ATOM     20  H   UNL     1     -34.187  26.705   6.232  0.00  0.00    +0.159 HD
ATOM     21  H   UNL     1     -37.106  26.598   4.486  0.00  0.00    +0.159 HD
ATOM     22  H   UNL     1     -36.304  26.511   5.988  0.00  0.00    +0.159 HD
ENDBRANCH  15  18
ENDBRANCH  14  15
ENDBRANCH  13  14
ENDBRANCH   1  13
TORSDOF 7
ENDMDL
MODEL 3
REMARK VINA RESULT:      -4.7      2.322      4.989
REMARK  Name = 193709
REMARK  7 active torsions:
REMARK  status: ('A' for Active; 'I' for Inactive)
REMARK    1  A    between atoms: C_1  and  C_2
REMARK    2  A    between atoms: C_1  and  C_13
REMARK    3  A    between atoms: C_2  and  C_5
REMARK    4  A    between atoms: C_2  and  N_9
REMARK    5  A    between atoms: C_13  and  C_14
REMARK    6  A    between atoms: C_14  and  N_15
REMARK    7  A    between atoms: N_15  and  C_18
REMARK                            x       y       z     vdW  Elec       q    Type
REMARK                         _______ _______ _______ _____ _____    ______ ____
ROOT
ATOM      1  C   UNL     1     -35.834  24.769   2.500  0.00  0.00    +0.031 C 
ENDROOT
BRANCH   1   2
ATOM      2  C   UNL     1     -36.778  24.633   3.702  0.00  0.00    +0.149 C 
BRANCH   2   5
ATOM      3  O   UNL     1     -38.794  23.478   3.008  0.00  0.00    -0.273 OA
ATOM      4  N   UNL     1     -38.877  25.775   3.328  0.00  0.00    -0.301 N 
ATOM      5  C   UNL     1     -38.246  24.540   3.297  0.00  0.00    +0.240 C 
ATOM      6  C   UNL     1     -40.277  25.948   3.016  0.00  0.00    +0.111 C 
ATOM      7  H   UNL     1     -38.348  26.568   3.573  0.00  0.00    +0.150 HD
ENDBRANCH   2   5
BRANCH   2   9
ATOM      8  O   UNL     1     -34.868  24.522   5.885  0.00  0.00    -0.275 OA
ATOM      9  N   UNL     1     -36.447  23.493   4.518  0.00  0.00    -0.298 N 
ATOM     10  C   UNL     1     -35.516  23.535   5.545  0.00  0.00    +0.223 C 
ATOM     11  C   UNL     1     -35.381  22.214   6.253  0.00  0.00    +0.095 C 
ATOM     12  H   UNL     1     -36.906  22.640   4.337  0.00  0.00    +0.150 HD
ENDBRANCH   2   9
ENDBRANCH   1   2
BRANCH   1  13
ATOM     13  C   UNL     1     -34.900  23.566   2.298  0.00  0.00    +0.029 C 
BRANCH  13  14
ATOM     14  C   UNL     1     -35.556  22.455   1.483  0.00  0.00    +0.129 C 
BRANCH  14  15
ATOM     15  N   UNL     1     -35.793  21.286   2.333  0.00  0.00    -0.240 NA
BRANCH  15  18
ATOM     16  N   UNL     1     -36.659  19.253   1.390  0.00  0.00    -0.370 N 
ATOM     17  N   UNL     1     -38.066  20.860   2.184  0.00  0.00    -0.370 N 
ATOM     18  C   UNL     1     -36.756  20.494   1.980  0.00  0.00    +0.189 C 
ATOM     19  H   UNL     1     -35.773  18.872   1.189  0.00  0.00    +0.159 HD
ATOM     20  H   UNL     1     -37.473  18.746   1.169  0.00  0.00    +0.159 HD
ATOM     21  H   UNL     1     -38.275  21.727   2.601  0.00  0.00    +0.159 HD
ATOM     22  H   UNL     1     -38.794  20.255   1.915  0.00  0.00    +0.159 HD
ENDBRANCH  15  18
ENDBRANCH  14  15
ENDBRANCH  13  14
ENDBRANCH   1  13
TORSDOF 7
ENDMDL
MODEL 4
REMARK VINA RESULT:      -4.7      2.551      3.199
REMARK  Name = 193709
REMARK  7 active torsions:
REMARK  status: ('A' for Active; 'I' for Inactive)
REMARK    1  A    between atoms: C_1  and  C_2
REMARK    2  A    between atoms: C_1  and  C_13
REMARK    3  A    between atoms: C_2  and  C_5
REMARK    4  A    between atoms: C_2  and  N_9
REMARK    5  A    between atoms: C_13  and  C_14
REMARK    6  A    between atoms: C_14  and  N_15
REMARK    7  A    between atoms: N_15  and  C_18
REMARK                            x       y       z     vdW  Elec       q    Type
REMARK                         _______ _______ _______ _____ _____    ______ ____
ROOT
ATOM      1  C   UNL     1     -35.947  25.893   5.563  0.00  0.00    +0.031 C 
ENDROOT
BRANCH   1   2
ATOM      2  C   UNL     1     -36.313  24.973   4.392  0.00  0.00    +0.149 C 
BRANCH   2   5
ATOM      3  O   UNL     1     -35.159  22.995   3.595  0.00  0.00    -0.273 OA
ATOM      4  N   UNL     1     -35.851  23.068   5.809  0.00  0.00    -0.301 N 
ATOM      5  C   UNL     1     -35.716  23.575   4.525  0.00  0.00    +0.240 C 
ATOM      6  C   UNL     1     -35.339  21.774   6.198  0.00  0.00    +0.111 C 
ATOM      7  H   UNL     1     -36.315  23.613   6.484  0.00  0.00    +0.150 HD
ENDBRANCH   2   5
BRANCH   2   9
ATOM      8  O   UNL     1     -37.952  26.185   2.325  0.00  0.00    -0.275 OA
ATOM      9  N   UNL     1     -37.739  24.856   4.226  0.00  0.00    -0.298 N 
ATOM     10  C   UNL     1     -38.439  25.476   3.201  0.00  0.00    +0.223 C 
ATOM     11  C   UNL     1     -39.912  25.168   3.245  0.00  0.00    +0.095 C 
ATOM     12  H   UNL     1     -38.242  24.309   4.872  0.00  0.00    +0.150 HD
ENDBRANCH   2   9
ENDBRANCH   1   2
BRANCH   1  13
ATOM     13  C   UNL     1     -34.435  26.058   5.782  0.00  0.00    +0.029 C 
BRANCH  13  14
ATOM     14  C   UNL     1     -33.782  26.903   4.692  0.00  0.00    +0.129 C 
BRANCH  14  15
ATOM     15  N   UNL     1     -32.390  27.189   5.048  0.00  0.00    -0.240 NA
BRANCH  15  18
ATOM     16  N   UNL     1     -32.520  29.573   5.312  0.00  0.00    -0.370 N 
ATOM     17  N   UNL     1     -31.500  28.280   6.887  0.00  0.00    -0.370 N 
ATOM     18  C   UNL     1     -32.166  28.295   5.685  0.00  0.00    +0.189 C 
ATOM     19  H   UNL     1     -33.004  29.722   4.467  0.00  0.00    +0.159 HD
ATOM     20  H   UNL     1     -32.291  30.336   5.889  0.00  0.00    +0.159 HD
ATOM     21  H   UNL     1     -31.191  27.427   7.269  0.00  0.00    +0.159 HD
ATOM     22  H   UNL     1     -31.333  29.122   7.368  0.00  0.00    +0.159 HD
ENDBRANCH  15  18
ENDBRANCH  14  15
ENDBRANCH  13  14
ENDBRANCH   1  13
TORSDOF 7
ENDMDL
MODEL 5
REMARK VINA RESULT:      -4.6      2.205      2.893
REMARK  Name = 193709
REMARK  7 active torsions:
REMARK  status: ('A' for Active; 'I' for Inactive)
REMARK    1  A    between atoms: C_1  and  C_2
REMARK    2  A    between atoms: C_1  and  C_13
REMARK    3  A    between atoms: C_2  and  C_5
REMARK    4  A    between atoms: C_2  and  N_9
REMARK    5  A    between atoms: C_13  and  C_14
REMARK    6  A    between atoms: C_14  and  N_15
REMARK    7  A    between atoms: N_15  and  C_18
REMARK                            x       y       z     vdW  Elec       q    Type
REMARK                         _______ _______ _______ _____ _____    ______ ____
ROOT
ATOM      1  C   UNL     1     -35.939  25.631   5.618  0.00  0.00    +0.031 C 
ENDROOT
BRANCH   1   2
ATOM      2  C   UNL     1     -36.412  24.816   4.408  0.00  0.00    +0.149 C 
BRANCH   2   5
ATOM      3  O   UNL     1     -36.153  22.730   5.617  0.00  0.00    -0.273 OA
ATOM      4  N   UNL     1     -35.829  22.737   3.319  0.00  0.00    -0.301 N 
ATOM      5  C   UNL     1     -36.113  23.326   4.542  0.00  0.00    +0.240 C 
ATOM      6  C   UNL     1     -35.542  21.328   3.174  0.00  0.00    +0.111 C 
ATOM      7  H   UNL     1     -35.821  23.303   2.514  0.00  0.00    +0.150 HD
ENDBRANCH   2   5
BRANCH   2   9
ATOM      8  O   UNL     1     -37.655  26.341   2.274  0.00  0.00    -0.275 OA
ATOM      9  N   UNL     1     -37.821  24.987   4.162  0.00  0.00    -0.298 N 
ATOM     10  C   UNL     1     -38.324  25.739   3.110  0.00  0.00    +0.223 C 
ATOM     11  C   UNL     1     -39.829  25.731   3.068  0.00  0.00    +0.095 C 
ATOM     12  H   UNL     1     -38.458  24.549   4.770  0.00  0.00    +0.150 HD
ENDBRANCH   2   9
ENDBRANCH   1   2
BRANCH   1  13
ATOM     13  C   UNL     1     -34.416  25.813   5.694  0.00  0.00    +0.029 C 
BRANCH  13  14
ATOM     14  C   UNL     1     -33.818  26.254   4.361  0.00  0.00    +0.129 C 
BRANCH  14  15
ATOM     15  N   UNL     1     -33.987  27.698   4.190  0.00  0.00    -0.240 NA
BRANCH  15  18
ATOM     16  N   UNL     1     -35.300  29.305   2.980  0.00  0.00    -0.370 N 
ATOM     17  N   UNL     1     -34.885  27.243   2.104  0.00  0.00    -0.370 N 
ATOM     18  C   UNL     1     -34.685  28.087   3.170  0.00  0.00    +0.189 C 
ATOM     19  H   UNL     1     -35.233  30.003   3.672  0.00  0.00    +0.159 HD
ATOM     20  H   UNL     1     -35.805  29.479   2.154  0.00  0.00    +0.159 HD
ATOM     21  H   UNL     1     -34.497  26.338   2.113  0.00  0.00    +0.159 HD
ATOM     22  H   UNL     1     -35.416  27.542   1.331  0.00  0.00    +0.159 HD
ENDBRANCH  15  18
ENDBRANCH  14  15
ENDBRANCH  13  14
ENDBRANCH   1  13
TORSDOF 7
ENDMDL
MODEL 6
REMARK VINA RESULT:      -4.6      2.477      5.004
REMARK  Name = 193709
REMARK  7 active torsions:
REMARK  status: ('A' for Active; 'I' for Inactive)
REMARK    1  A    between atoms: C_1  and  C_2
REMARK    2  A    between atoms: C_1  and  C_13
REMARK    3  A    between atoms: C_2  and  C_5
REMARK    4  A    between atoms: C_2  and  N_9
REMARK    5  A    between atoms: C_13  and  C_14
REMARK    6  A    between atoms: C_14  and  N_15
REMARK    7  A    between atoms: N_15  and  C_18
REMARK                            x       y       z     vdW  Elec       q    Type
REMARK                         _______ _______ _______ _____ _____    ______ ____
ROOT
ATOM      1  C   UNL     1     -37.386  25.338   4.048  0.00  0.00    +0.031 C 
ENDROOT
BRANCH   1   2
ATOM      2  C   UNL     1     -35.932  24.936   4.325  0.00  0.00    +0.149 C 
BRANCH   2   5
ATOM      3  O   UNL     1     -35.139  27.224   4.191  0.00  0.00    -0.273 OA
ATOM      4  N   UNL     1     -34.192  25.804   5.764  0.00  0.00    -0.301 N 
ATOM      5  C   UNL     1     -35.054  26.119   4.724  0.00  0.00    +0.240 C 
ATOM      6  C   UNL     1     -33.280  26.763   6.344  0.00  0.00    +0.111 C 
ATOM      7  H   UNL     1     -34.202  24.888   6.122  0.00  0.00    +0.150 HD
ENDBRANCH   2   5
BRANCH   2   9
ATOM      8  O   UNL     1     -35.486  22.092   3.950  0.00  0.00    -0.275 OA
ATOM      9  N   UNL     1     -35.840  23.923   5.345  0.00  0.00    -0.298 N 
ATOM     10  C   UNL     1     -35.624  22.582   5.068  0.00  0.00    +0.223 C 
ATOM     11  C   UNL     1     -35.544  21.743   6.316  0.00  0.00    +0.095 C 
ATOM     12  H   UNL     1     -35.935  24.197   6.286  0.00  0.00    +0.150 HD
ENDBRANCH   2   9
ENDBRANCH   1   2
BRANCH   1  13
ATOM     13  C   UNL     1     -37.827  25.129   2.591  0.00  0.00    +0.029 C 
BRANCH  13  14
ATOM     14  C   UNL     1     -38.807  23.969   2.443  0.00  0.00    +0.129 C 
BRANCH  14  15
ATOM     15  N   UNL     1     -38.163  22.856   1.742  0.00  0.00    -0.240 NA
BRANCH  15  18
ATOM     16  N   UNL     1     -39.819  21.204   2.287  0.00  0.00    -0.370 N 
ATOM     17  N   UNL     1     -37.603  20.670   2.264  0.00  0.00    -0.370 N 
ATOM     18  C   UNL     1     -38.536  21.662   2.076  0.00  0.00    +0.189 C 
ATOM     19  H   UNL     1     -40.583  21.816   2.184  0.00  0.00    +0.159 HD
ATOM     20  H   UNL     1     -39.972  20.265   2.539  0.00  0.00    +0.159 HD
ATOM     21  H   UNL     1     -36.646  20.865   2.144  0.00  0.00    +0.159 HD
ATOM     22  H   UNL     1     -37.892  19.763   2.517  0.00  0.00    +0.159 HD
ENDBRANCH  15  18
ENDBRANCH  14  15
ENDBRANCH  13  14
ENDBRANCH   1  13
TORSDOF 7
ENDMDL
MODEL 7
REMARK VINA RESULT:      -4.5      1.903      2.797
REMARK  Name = 193709
REMARK  7 active torsions:
REMARK  status: ('A' for Active; 'I' for Inactive)
REMARK    1  A    between atoms: C_1  and  C_2
REMARK    2  A    between atoms: C_1  and  C_13
REMARK    3  A    between atoms: C_2  and  C_5
REMARK    4  A    between atoms: C_2  and  N_9
REMARK    5  A    between atoms: C_13  and  C_14
REMARK    6  A    between atoms: C_14  and  N_15
REMARK    7  A    between atoms: N_15  and  C_18
REMARK                            x       y       z     vdW  Elec       q    Type
REMARK                         _______ _______ _______ _____ _____    ______ ____
ROOT
ATOM      1  C   UNL     1     -35.517  21.577   4.830  0.00  0.00    +0.031 C 
ENDROOT
BRANCH   1   2
ATOM      2  C   UNL     1     -35.845  22.316   3.527  0.00  0.00    +0.149 C 
BRANCH   2   5
ATOM      3  O   UNL     1     -34.685  21.631   1.511  0.00  0.00    -0.273 OA
ATOM      4  N   UNL     1     -36.582  20.462   2.160  0.00  0.00    -0.301 N 
ATOM      5  C   UNL     1     -35.626  21.459   2.285  0.00  0.00    +0.240 C 
ATOM      6  C   UNL     1     -36.575  19.498   1.084  0.00  0.00    +0.111 C 
ATOM      7  H   UNL     1     -37.296  20.408   2.835  0.00  0.00    +0.150 HD
ENDBRANCH   2   5
BRANCH   2   9
ATOM      8  O   UNL     1     -36.807  24.793   2.356  0.00  0.00    -0.275 OA
ATOM      9  N   UNL     1     -37.198  22.812   3.517  0.00  0.00    -0.298 N 
ATOM     10  C   UNL     1     -37.564  24.014   2.929  0.00  0.00    +0.223 C 
ATOM     11  C   UNL     1     -39.042  24.279   3.039  0.00  0.00    +0.095 C 
ATOM     12  H   UNL     1     -37.898  22.270   3.949  0.00  0.00    +0.150 HD
ENDBRANCH   2   9
ENDBRANCH   1   2
BRANCH   1  13
ATOM     13  C   UNL     1     -35.288  22.502   6.035  0.00  0.00    +0.029 C 
BRANCH  13  14
ATOM     14  C   UNL     1     -34.644  23.826   5.634  0.00  0.00    +0.129 C 
BRANCH  14  15
ATOM     15  N   UNL     1     -35.628  24.907   5.717  0.00  0.00    -0.240 NA
BRANCH  15  18
ATOM     16  N   UNL     1     -35.915  26.931   4.455  0.00  0.00    -0.370 N 
ATOM     17  N   UNL     1     -34.046  26.599   5.716  0.00  0.00    -0.370 N 
ATOM     18  C   UNL     1     -35.248  26.075   5.304  0.00  0.00    +0.189 C 
ATOM     19  H   UNL     1     -36.792  26.674   4.087  0.00  0.00    +0.159 HD
ATOM     20  H   UNL     1     -35.517  27.798   4.217  0.00  0.00    +0.159 HD
ATOM     21  H   UNL     1     -33.469  26.086   6.328  0.00  0.00    +0.159 HD
ATOM     22  H   UNL     1     -33.762  27.487   5.401  0.00  0.00    +0.159 HD
ENDBRANCH  15  18
ENDBRANCH  14  15
ENDBRANCH  13  14
ENDBRANCH   1  13
TORSDOF 7
ENDMDL
MODEL 8
REMARK VINA RESULT:      -4.5      3.710      6.417
REMARK  Name = 193709
REMARK  7 active torsions:
REMARK  status: ('A' for Active; 'I' for Inactive)
REMARK    1  A    between atoms: C_1  and  C_2
REMARK    2  A    between atoms: C_1  and  C_13
REMARK    3  A    between atoms: C_2  and  C_5
REMARK    4  A    between atoms: C_2  and  N_9
REMARK    5  A    between atoms: C_13  and  C_14
REMARK    6  A    between atoms: C_14  and  N_15
REMARK    7  A    between atoms: N_15  and  C_18
REMARK                            x       y       z     vdW  Elec       q    Type
REMARK                         _______ _______ _______ _____ _____    ______ ____
ROOT
ATOM      1  C   UNL     1     -33.784  25.889   4.331  0.00  0.00    +0.031 C 
ENDROOT
BRANCH   1   2
ATOM      2  C   UNL     1     -33.391  27.317   3.932  0.00  0.00    +0.149 C 
BRANCH   2   5
ATOM      3  O   UNL     1     -35.302  27.421   2.443  0.00  0.00    -0.273 OA
ATOM      4  N   UNL     1     -34.415  29.403   3.262  0.00  0.00    -0.301 N 
ATOM      5  C   UNL     1     -34.470  28.025   3.118  0.00  0.00    +0.240 C 
ATOM      6  C   UNL     1     -35.349  30.297   2.617  0.00  0.00    +0.111 C 
ATOM      7  H   UNL     1     -33.707  29.789   3.827  0.00  0.00    +0.150 HD
ENDBRANCH   2   5
BRANCH   2   9
ATOM      8  O   UNL     1     -30.754  27.865   5.015  0.00  0.00    -0.275 OA
ATOM      9  N   UNL     1     -33.067  28.126   5.079  0.00  0.00    -0.298 N 
ATOM     10  C   UNL     1     -31.770  28.331   5.524  0.00  0.00    +0.223 C 
ATOM     11  C   UNL     1     -31.711  29.237   6.725  0.00  0.00    +0.095 C 
ATOM     12  H   UNL     1     -33.804  28.554   5.572  0.00  0.00    +0.150 HD
ENDBRANCH   2   9
ENDBRANCH   1   2
BRANCH   1  13
ATOM     13  C   UNL     1     -34.462  25.787   5.706  0.00  0.00    +0.029 C 
BRANCH  13  14
ATOM     14  C   UNL     1     -35.984  25.860   5.607  0.00  0.00    +0.129 C 
BRANCH  14  15
ATOM     15  N   UNL     1     -36.499  24.659   4.946  0.00  0.00    -0.240 NA
BRANCH  15  18
ATOM     16  N   UNL     1     -38.043  23.883   3.277  0.00  0.00    -0.370 N 
ATOM     17  N   UNL     1     -37.752  26.113   3.647  0.00  0.00    -0.370 N 
ATOM     18  C   UNL     1     -37.379  24.841   4.011  0.00  0.00    +0.189 C 
ATOM     19  H   UNL     1     -37.867  22.928   3.440  0.00  0.00    +0.159 HD
ATOM     20  H   UNL     1     -38.694  24.152   2.590  0.00  0.00    +0.159 HD
ATOM     21  H   UNL     1     -37.350  26.891   4.097  0.00  0.00    +0.159 HD
ATOM     22  H   UNL     1     -38.420  26.246   2.938  0.00  0.00    +0.159 HD
ENDBRANCH  15  18
ENDBRANCH  14  15
ENDBRANCH  13  14
ENDBRANCH   1  13
TORSDOF 7
ENDMDL
MODEL 9
REMARK VINA RESULT:      -4.5      3.629      6.480
REMARK  Name = 193709
REMARK  7 active torsions:
REMARK  status: ('A' for Active; 'I' for Inactive)
REMARK    1  A    between atoms: C_1  and  C_2
REMARK    2  A    between atoms: C_1  and  C_13
REMARK    3  A    between atoms: C_2  and  C_5
REMARK    4  A    between atoms: C_2  and  N_9
REMARK    5  A    between atoms: C_13  and  C_14
REMARK    6  A    between atoms: C_14  and  N_15
REMARK    7  A    between atoms: N_15  and  C_18
REMARK                            x       y       z     vdW  Elec       q    Type
REMARK                         _______ _______ _______ _____ _____    ______ ____
ROOT
ATOM      1  C   UNL     1     -34.302  25.932   5.849  0.00  0.00    +0.031 C 
ENDROOT
BRANCH   1   2
ATOM      2  C   UNL     1     -33.321  26.785   5.035  0.00  0.00    +0.149 C 
BRANCH   2   5
ATOM      3  O   UNL     1     -33.851  26.397   2.701  0.00  0.00    -0.273 OA
ATOM      4  N   UNL     1     -34.386  28.450   3.641  0.00  0.00    -0.301 N 
ATOM      5  C   UNL     1     -33.862  27.166   3.661  0.00  0.00    +0.240 C 
ATOM      6  C   UNL     1     -34.987  29.034   2.464  0.00  0.00    +0.111 C 
ATOM      7  H   UNL     1     -34.345  28.987   4.465  0.00  0.00    +0.150 HD
ENDBRANCH   2   5
BRANCH   2   9
ATOM      8  O   UNL     1     -30.636  27.787   5.501  0.00  0.00    -0.275 OA
ATOM      9  N   UNL     1     -32.944  27.986   5.736  0.00  0.00    -0.298 N 
ATOM     10  C   UNL     1     -31.627  28.386   5.909  0.00  0.00    +0.223 C 
ATOM     11  C   UNL     1     -31.516  29.689   6.655  0.00  0.00    +0.095 C 
ATOM     12  H   UNL     1     -33.658  28.552   6.111  0.00  0.00    +0.150 HD
ENDBRANCH   2   9
ENDBRANCH   1   2
BRANCH   1  13
ATOM     13  C   UNL     1     -35.756  26.012   5.360  0.00  0.00    +0.029 C 
BRANCH  13  14
ATOM     14  C   UNL     1     -36.271  24.668   4.853  0.00  0.00    +0.129 C 
BRANCH  14  15
ATOM     15  N   UNL     1     -35.208  23.663   4.930  0.00  0.00    -0.240 NA
BRANCH  15  18
ATOM     16  N   UNL     1     -35.680  21.446   4.133  0.00  0.00    -0.370 N 
ATOM     17  N   UNL     1     -35.934  21.971   6.336  0.00  0.00    -0.370 N 
ATOM     18  C   UNL     1     -35.580  22.432   5.090  0.00  0.00    +0.189 C 
ATOM     19  H   UNL     1     -35.454  21.646   3.196  0.00  0.00    +0.159 HD
ATOM     20  H   UNL     1     -35.976  20.543   4.385  0.00  0.00    +0.159 HD
ATOM     21  H   UNL     1     -35.906  22.577   7.112  0.00  0.00    +0.159 HD
ATOM     22  H   UNL     1     -36.215  21.035   6.454  0.00  0.00    +0.159 HD
ENDBRANCH  15  18
ENDBRANCH  14  15
ENDBRANCH  13  14
ENDBRANCH   1  13
TORSDOF 7
ENDMDL
