MODEL 1
REMARK VINA RESULT:      -7.5      0.000      0.000
REMARK  Name = 54693559
REMARK  5 active torsions:
REMARK  status: ('A' for Active; 'I' for Inactive)
REMARK    1  A    between atoms: C_1  and  C_19
REMARK    2  A    between atoms: C_2  and  C_7
REMARK    3  A    between atoms: C_8  and  C_17
REMARK    4  A    between atoms: C_19  and  N_21
REMARK    5  A    between atoms: C_27  and  O_33
REMARK                            x       y       z     vdW  Elec       q    Type
REMARK                         _______ _______ _______ _____ _____    ______ ____
ROOT
ATOM      1  C   UNL     1     -35.662  26.273   4.276  0.00  0.00    -0.002 C 
ATOM      2  C   UNL     1     -33.227  27.587   4.638  0.00  0.00    +0.001 C 
ATOM      3  C   UNL     1     -35.242  27.231   3.352  0.00  0.00    -0.003 C 
ATOM      4  C   UNL     1     -34.864  25.973   5.380  0.00  0.00    -0.003 C 
ATOM      5  C   UNL     1     -34.025  27.888   3.533  0.00  0.00    -0.000 C 
ATOM      6  C   UNL     1     -33.648  26.629   5.561  0.00  0.00    -0.000 C 
ENDROOT
BRANCH   2   7
ATOM      7  C   UNL     1     -31.965  28.268   4.825  0.00  0.00    +0.009 C 
ATOM      8  C   UNL     1     -30.933  28.171   3.891  0.00  0.00    +0.065 C 
ATOM      9  C   UNL     1     -31.793  29.038   5.976  0.00  0.00    +0.001 C 
ATOM     10  C   UNL     1     -29.730  28.843   4.108  0.00  0.00    +0.010 C 
ATOM     11  C   UNL     1     -30.589  29.709   6.193  0.00  0.00    +0.000 C 
ATOM     12  C   UNL     1     -29.559  29.611   5.259  0.00  0.00    +0.001 C 
BRANCH   8  17
ATOM     13  N   UNL     1     -30.941  26.057   2.660  0.00  0.00    -0.110 NA
ATOM     14  N   UNL     1     -31.350  27.946   1.480  0.00  0.00    -0.087 NA
ATOM     15  N   UNL     1     -31.158  25.848   1.354  0.00  0.00    -0.140 N 
ATOM     16  N   UNL     1     -31.404  26.939   0.616  0.00  0.00    -0.022 NA
ATOM     17  C   UNL     1     -31.072  27.386   2.691  0.00  0.00    +0.073 C 
ATOM     18  H   UNL     1     -31.137  24.947   0.960  0.00  0.00    +0.197 HD
ENDBRANCH   8  17
ENDBRANCH   2   7
BRANCH   1  19
ATOM     19  C   UNL     1     -36.972  25.567   4.081  0.00  0.00    +0.127 C 
BRANCH  19  21
ATOM     20  O   UNL     1     -37.833  26.037   1.407  0.00  0.00    -0.269 OA
ATOM     21  N   UNL     1     -36.913  24.597   2.992  0.00  0.00    -0.228 N 
ATOM     22  N   UNL     1     -35.955  23.038   4.557  0.00  0.00    -0.332 NA
ATOM     23  N   UNL     1     -35.348  20.815   3.878  0.00  0.00    -0.351 NA
ATOM     24  C   UNL     1     -36.377  23.305   3.296  0.00  0.00    +0.192 C 
ATOM     25  C   UNL     1     -36.308  22.357   2.280  0.00  0.00    +0.173 C 
ATOM     26  C   UNL     1     -37.365  24.940   1.719  0.00  0.00    +0.257 C 
ATOM     27  C   UNL     1     -36.771  22.681   0.936  0.00  0.00    +0.130 C 
ATOM     28  C   UNL     1     -35.779  21.123   2.638  0.00  0.00    +0.114 C 
ATOM     29  C   UNL     1     -37.268  23.893   0.669  0.00  0.00    +0.091 C 
ATOM     30  C   UNL     1     -35.464  21.805   4.776  0.00  0.00    +0.115 C 
ATOM     31  C   UNL     1     -35.631  19.990   1.675  0.00  0.00    +0.063 C 
ATOM     32  C   UNL     1     -34.997  21.510   6.161  0.00  0.00    +0.143 C 
BRANCH  27  33
ATOM     33  O   UNL     1     -36.682  21.711  -0.039  0.00  0.00    -0.509 OA
ATOM     34  H   UNL     1     -36.303  20.878   0.162  0.00  0.00    +0.292 HD
ENDBRANCH  27  33
ENDBRANCH  19  21
ENDBRANCH   1  19
TORSDOF 5
ENDMDL
MODEL 2
REMARK VINA RESULT:      -7.5      3.194      8.387
REMARK  Name = 54693559
REMARK  5 active torsions:
REMARK  status: ('A' for Active; 'I' for Inactive)
REMARK    1  A    between atoms: C_1  and  C_19
REMARK    2  A    between atoms: C_2  and  C_7
REMARK    3  A    between atoms: C_8  and  C_17
REMARK    4  A    between atoms: C_19  and  N_21
REMARK    5  A    between atoms: C_27  and  O_33
REMARK                            x       y       z     vdW  Elec       q    Type
REMARK                         _______ _______ _______ _____ _____    ______ ____
ROOT
ATOM      1  C   UNL     1     -35.941  22.847   2.302  0.00  0.00    -0.002 C 
ATOM      2  C   UNL     1     -34.813  20.459   1.405  0.00  0.00    +0.001 C 
ATOM      3  C   UNL     1     -35.032  22.860   1.244  0.00  0.00    -0.003 C 
ATOM      4  C   UNL     1     -36.286  21.641   2.911  0.00  0.00    -0.003 C 
ATOM      5  C   UNL     1     -34.467  21.666   0.796  0.00  0.00    -0.000 C 
ATOM      6  C   UNL     1     -35.722  20.447   2.463  0.00  0.00    -0.000 C 
ENDROOT
BRANCH   2   7
ATOM      7  C   UNL     1     -34.228  19.220   0.940  0.00  0.00    +0.009 C 
ATOM      8  C   UNL     1     -34.884  18.398   0.023  0.00  0.00    +0.065 C 
ATOM      9  C   UNL     1     -32.974  18.855   1.431  0.00  0.00    +0.001 C 
ATOM     10  C   UNL     1     -34.286  17.211  -0.402  0.00  0.00    +0.010 C 
ATOM     11  C   UNL     1     -32.377  17.667   1.006  0.00  0.00    +0.000 C 
ATOM     12  C   UNL     1     -33.034  16.846   0.091  0.00  0.00    +0.001 C 
BRANCH   8  17
ATOM     13  N   UNL     1     -36.356  19.554  -1.552  0.00  0.00    -0.110 NA
ATOM     14  N   UNL     1     -37.337  18.254   0.022  0.00  0.00    -0.087 NA
ATOM     15  N   UNL     1     -37.694  19.530  -1.620  0.00  0.00    -0.140 N 
ATOM     16  N   UNL     1     -38.318  18.773  -0.707  0.00  0.00    -0.022 NA
ATOM     17  C   UNL     1     -36.178  18.740  -0.507  0.00  0.00    +0.073 C 
ATOM     18  H   UNL     1     -38.191  20.039  -2.300  0.00  0.00    +0.197 HD
ENDBRANCH   8  17
ENDBRANCH   2   7
BRANCH   1  19
ATOM     19  C   UNL     1     -36.548  24.133   2.784  0.00  0.00    +0.127 C 
BRANCH  19  21
ATOM     20  O   UNL     1     -36.209  23.499   5.540  0.00  0.00    -0.269 OA
ATOM     21  N   UNL     1     -35.668  24.839   3.710  0.00  0.00    -0.228 N 
ATOM     22  N   UNL     1     -35.047  26.274   1.881  0.00  0.00    -0.332 NA
ATOM     23  N   UNL     1     -33.466  28.057   2.186  0.00  0.00    -0.351 NA
ATOM     24  C   UNL     1     -34.916  25.938   3.188  0.00  0.00    +0.192 C 
ATOM     25  C   UNL     1     -34.068  26.632   4.046  0.00  0.00    +0.173 C 
ATOM     26  C   UNL     1     -35.583  24.437   5.043  0.00  0.00    +0.257 C 
ATOM     27  C   UNL     1     -33.953  26.240   5.445  0.00  0.00    +0.130 C 
ATOM     28  C   UNL     1     -33.365  27.688   3.479  0.00  0.00    +0.114 C 
ATOM     29  C   UNL     1     -34.663  25.211   5.917  0.00  0.00    +0.091 C 
ATOM     30  C   UNL     1     -34.312  27.317   1.454  0.00  0.00    +0.115 C 
ATOM     31  C   UNL     1     -32.413  28.541   4.252  0.00  0.00    +0.063 C 
ATOM     32  C   UNL     1     -34.453  27.688   0.017  0.00  0.00    +0.143 C 
BRANCH  27  33
ATOM     33  O   UNL     1     -33.100  26.956   6.258  0.00  0.00    -0.509 OA
ATOM     34  H   UNL     1     -32.724  27.758   5.951  0.00  0.00    +0.292 HD
ENDBRANCH  27  33
ENDBRANCH  19  21
ENDBRANCH   1  19
TORSDOF 5
ENDMDL
MODEL 3
REMARK VINA RESULT:      -7.4      3.973      7.661
REMARK  Name = 54693559
REMARK  5 active torsions:
REMARK  status: ('A' for Active; 'I' for Inactive)
REMARK    1  A    between atoms: C_1  and  C_19
REMARK    2  A    between atoms: C_2  and  C_7
REMARK    3  A    between atoms: C_8  and  C_17
REMARK    4  A    between atoms: C_19  and  N_21
REMARK    5  A    between atoms: C_27  and  O_33
REMARK                            x       y       z     vdW  Elec       q    Type
REMARK                         _______ _______ _______ _____ _____    ______ ____
ROOT
ATOM      1  C   UNL     1     -35.669  20.727   1.184  0.00  0.00    -0.002 C 
ATOM      2  C   UNL     1     -33.148  20.021   0.218  0.00  0.00    +0.001 C 
ATOM      3  C   UNL     1     -35.237  21.206  -0.054  0.00  0.00    -0.003 C 
ATOM      4  C   UNL     1     -34.840  19.896   1.937  0.00  0.00    -0.003 C 
ATOM      5  C   UNL     1     -33.977  20.854  -0.537  0.00  0.00    -0.000 C 
ATOM      6  C   UNL     1     -33.581  19.543   1.454  0.00  0.00    -0.000 C 
ENDROOT
BRANCH   2   7
ATOM      7  C   UNL     1     -31.842  19.656  -0.283  0.00  0.00    +0.009 C 
ATOM      8  C   UNL     1     -31.538  18.345  -0.653  0.00  0.00    +0.065 C 
ATOM      9  C   UNL     1     -30.872  20.653  -0.393  0.00  0.00    +0.001 C 
ATOM     10  C   UNL     1     -30.266  18.032  -1.132  0.00  0.00    +0.010 C 
ATOM     11  C   UNL     1     -29.600  20.339  -0.872  0.00  0.00    +0.000 C 
ATOM     12  C   UNL     1     -29.297  19.029  -1.241  0.00  0.00    +0.001 C 
BRANCH   8  17
ATOM     13  N   UNL     1     -32.459  16.321   0.366  0.00  0.00    -0.110 NA
ATOM     14  N   UNL     1     -33.574  17.191  -1.403  0.00  0.00    -0.087 NA
ATOM     15  N   UNL     1     -33.557  15.633   0.020  0.00  0.00    -0.140 N 
ATOM     16  N   UNL     1     -34.248  16.112  -1.023  0.00  0.00    -0.022 NA
ATOM     17  C   UNL     1     -32.512  17.288  -0.555  0.00  0.00    +0.073 C 
ATOM     18  H   UNL     1     -33.838  14.823   0.504  0.00  0.00    +0.197 HD
ENDBRANCH   8  17
ENDBRANCH   2   7
BRANCH   1  19
ATOM     19  C   UNL     1     -37.025  21.107   1.703  0.00  0.00    +0.127 C 
BRANCH  19  21
ATOM     20  O   UNL     1     -38.196  23.061  -0.005  0.00  0.00    -0.269 OA
ATOM     21  N   UNL     1     -37.119  22.533   1.994  0.00  0.00    -0.228 N 
ATOM     22  N   UNL     1     -36.012  22.087   4.083  0.00  0.00    -0.332 NA
ATOM     23  N   UNL     1     -35.538  23.856   5.638  0.00  0.00    -0.351 NA
ATOM     24  C   UNL     1     -36.579  22.984   3.240  0.00  0.00    +0.192 C 
ATOM     25  C   UNL     1     -36.653  24.339   3.547  0.00  0.00    +0.173 C 
ATOM     26  C   UNL     1     -37.716  23.399   1.078  0.00  0.00    +0.257 C 
ATOM     27  C   UNL     1     -37.271  25.274   2.614  0.00  0.00    +0.130 C 
ATOM     28  C   UNL     1     -36.111  24.713   4.770  0.00  0.00    +0.114 C 
ATOM     29  C   UNL     1     -37.771  24.837   1.454  0.00  0.00    +0.091 C 
ATOM     30  C   UNL     1     -35.522  22.576   5.237  0.00  0.00    +0.115 C 
ATOM     31  C   UNL     1     -36.103  26.125   5.260  0.00  0.00    +0.063 C 
ATOM     32  C   UNL     1     -34.900  21.591   6.168  0.00  0.00    +0.143 C 
BRANCH  27  33
ATOM     33  O   UNL     1     -37.323  26.607   2.960  0.00  0.00    -0.509 OA
ATOM     34  H   UNL     1     -38.005  27.153   2.622  0.00  0.00    +0.292 HD
ENDBRANCH  27  33
ENDBRANCH  19  21
ENDBRANCH   1  19
TORSDOF 5
ENDMDL
MODEL 4
REMARK VINA RESULT:      -7.4     10.061     13.128
REMARK  Name = 54693559
REMARK  5 active torsions:
REMARK  status: ('A' for Active; 'I' for Inactive)
REMARK    1  A    between atoms: C_1  and  C_19
REMARK    2  A    between atoms: C_2  and  C_7
REMARK    3  A    between atoms: C_8  and  C_17
REMARK    4  A    between atoms: C_19  and  N_21
REMARK    5  A    between atoms: C_27  and  O_33
REMARK                            x       y       z     vdW  Elec       q    Type
REMARK                         _______ _______ _______ _____ _____    ______ ____
ROOT
ATOM      1  C   UNL     1     -43.981  33.791   1.999  0.00  0.00    -0.002 C 
ATOM      2  C   UNL     1     -45.413  33.366   4.355  0.00  0.00    +0.001 C 
ATOM      3  C   UNL     1     -45.279  33.283   1.944  0.00  0.00    -0.003 C 
ATOM      4  C   UNL     1     -43.399  34.085   3.232  0.00  0.00    -0.003 C 
ATOM      5  C   UNL     1     -45.995  33.070   3.122  0.00  0.00    -0.000 C 
ATOM      6  C   UNL     1     -44.115  33.874   4.409  0.00  0.00    -0.000 C 
ENDROOT
BRANCH   2   7
ATOM      7  C   UNL     1     -46.155  33.146   5.577  0.00  0.00    +0.009 C 
ATOM      8  C   UNL     1     -45.950  32.013   6.366  0.00  0.00    +0.065 C 
ATOM      9  C   UNL     1     -47.097  34.101   5.960  0.00  0.00    +0.001 C 
ATOM     10  C   UNL     1     -46.686  31.837   7.538  0.00  0.00    +0.010 C 
ATOM     11  C   UNL     1     -47.833  33.924   7.132  0.00  0.00    +0.000 C 
ATOM     12  C   UNL     1     -47.628  32.792   7.920  0.00  0.00    +0.001 C 
BRANCH   8  17
ATOM     13  N   UNL     1     -45.272  29.963   5.218  0.00  0.00    -0.110 NA
ATOM     14  N   UNL     1     -43.697  31.036   6.442  0.00  0.00    -0.087 NA
ATOM     15  N   UNL     1     -44.072  29.366   5.208  0.00  0.00    -0.140 N 
ATOM     16  N   UNL     1     -43.109  29.966   5.920  0.00  0.00    -0.022 NA
ATOM     17  C   UNL     1     -44.988  31.005   6.005  0.00  0.00    +0.073 C 
ATOM     18  H   UNL     1     -43.908  28.534   4.708  0.00  0.00    +0.197 HD
ENDBRANCH   8  17
ENDBRANCH   2   7
BRANCH   1  19
ATOM     19  C   UNL     1     -43.211  34.019   0.731  0.00  0.00    +0.127 C 
BRANCH  19  21
ATOM     20  O   UNL     1     -43.724  31.489  -0.471  0.00  0.00    -0.269 OA
ATOM     21  N   UNL     1     -42.216  32.977   0.500  0.00  0.00    -0.228 N 
ATOM     22  N   UNL     1     -40.585  34.445   1.489  0.00  0.00    -0.332 NA
ATOM     23  N   UNL     1     -38.287  33.778   1.706  0.00  0.00    -0.351 NA
ATOM     24  C   UNL     1     -40.874  33.252   0.912  0.00  0.00    +0.192 C 
ATOM     25  C   UNL     1     -39.901  32.279   0.707  0.00  0.00    +0.173 C 
ATOM     26  C   UNL     1     -42.585  31.773  -0.099  0.00  0.00    +0.257 C 
ATOM     27  C   UNL     1     -40.250  31.008   0.082  0.00  0.00    +0.130 C 
ATOM     28  C   UNL     1     -38.618  32.605   1.128  0.00  0.00    +0.114 C 
ATOM     29  C   UNL     1     -41.508  30.767  -0.297  0.00  0.00    +0.091 C 
ATOM     30  C   UNL     1     -39.304  34.639   1.854  0.00  0.00    +0.115 C 
ATOM     31  C   UNL     1     -37.453  31.681   0.986  0.00  0.00    +0.063 C 
ATOM     32  C   UNL     1     -38.984  35.951   2.487  0.00  0.00    +0.143 C 
BRANCH  27  33
ATOM     33  O   UNL     1     -39.253  30.073  -0.102  0.00  0.00    -0.509 OA
ATOM     34  H   UNL     1     -38.611  30.200  -0.772  0.00  0.00    +0.292 HD
ENDBRANCH  27  33
ENDBRANCH  19  21
ENDBRANCH   1  19
TORSDOF 5
ENDMDL
MODEL 5
REMARK VINA RESULT:      -7.4      3.101      7.937
REMARK  Name = 54693559
REMARK  5 active torsions:
REMARK  status: ('A' for Active; 'I' for Inactive)
REMARK    1  A    between atoms: C_1  and  C_19
REMARK    2  A    between atoms: C_2  and  C_7
REMARK    3  A    between atoms: C_8  and  C_17
REMARK    4  A    between atoms: C_19  and  N_21
REMARK    5  A    between atoms: C_27  and  O_33
REMARK                            x       y       z     vdW  Elec       q    Type
REMARK                         _______ _______ _______ _____ _____    ______ ____
ROOT
ATOM      1  C   UNL     1     -36.702  22.538   1.683  0.00  0.00    -0.002 C 
ATOM      2  C   UNL     1     -35.176  20.278   1.092  0.00  0.00    +0.001 C 
ATOM      3  C   UNL     1     -35.724  22.597   0.690  0.00  0.00    -0.003 C 
ATOM      4  C   UNL     1     -36.917  21.349   2.380  0.00  0.00    -0.003 C 
ATOM      5  C   UNL     1     -34.960  21.468   0.395  0.00  0.00    -0.000 C 
ATOM      6  C   UNL     1     -36.155  20.219   2.084  0.00  0.00    -0.000 C 
ENDROOT
BRANCH   2   7
ATOM      7  C   UNL     1     -34.385  19.106   0.786  0.00  0.00    +0.009 C 
ATOM      8  C   UNL     1     -34.862  18.098  -0.054  0.00  0.00    +0.065 C 
ATOM      9  C   UNL     1     -33.115  18.999   1.352  0.00  0.00    +0.001 C 
ATOM     10  C   UNL     1     -34.068  16.983  -0.325  0.00  0.00    +0.010 C 
ATOM     11  C   UNL     1     -32.322  17.883   1.081  0.00  0.00    +0.000 C 
ATOM     12  C   UNL     1     -32.799  16.876   0.242  0.00  0.00    +0.001 C 
BRANCH   8  17
ATOM     13  N   UNL     1     -37.260  17.622  -0.122  0.00  0.00    -0.110 NA
ATOM     14  N   UNL     1     -36.391  18.819  -1.837  0.00  0.00    -0.087 NA
ATOM     15  N   UNL     1     -38.158  17.975  -1.052  0.00  0.00    -0.140 N 
ATOM     16  N   UNL     1     -37.688  18.685  -2.087  0.00  0.00    -0.022 NA
ATOM     17  C   UNL     1     -36.167  18.173  -0.658  0.00  0.00    +0.073 C 
ATOM     18  H   UNL     1     -39.108  17.727  -0.980  0.00  0.00    +0.197 HD
ENDBRANCH   8  17
ENDBRANCH   2   7
BRANCH   1  19
ATOM     19  C   UNL     1     -37.523  23.754   2.001  0.00  0.00    +0.127 C 
BRANCH  19  21
ATOM     20  O   UNL     1     -37.177  26.225   0.629  0.00  0.00    -0.269 OA
ATOM     21  N   UNL     1     -36.697  24.865   2.461  0.00  0.00    -0.228 N 
ATOM     22  N   UNL     1     -36.144  23.536   4.389  0.00  0.00    -0.332 NA
ATOM     23  N   UNL     1     -34.675  24.376   6.095  0.00  0.00    -0.351 NA
ATOM     24  C   UNL     1     -36.007  24.698   3.703  0.00  0.00    +0.192 C 
ATOM     25  C   UNL     1     -35.211  25.739   4.169  0.00  0.00    +0.173 C 
ATOM     26  C   UNL     1     -36.603  26.031   1.702  0.00  0.00    +0.257 C 
ATOM     27  C   UNL     1     -35.090  26.974   3.403  0.00  0.00    +0.130 C 
ATOM     28  C   UNL     1     -34.568  25.515   5.379  0.00  0.00    +0.114 C 
ATOM     29  C   UNL     1     -35.741  27.115   2.244  0.00  0.00    +0.091 C 
ATOM     30  C   UNL     1     -35.467  23.442   5.549  0.00  0.00    +0.115 C 
ATOM     31  C   UNL     1     -33.675  26.523   6.027  0.00  0.00    +0.063 C 
ATOM     32  C   UNL     1     -35.617  22.167   6.306  0.00  0.00    +0.143 C 
BRANCH  27  33
ATOM     33  O   UNL     1     -34.291  27.979   3.904  0.00  0.00    -0.509 OA
ATOM     34  H   UNL     1     -34.542  28.432   4.685  0.00  0.00    +0.292 HD
ENDBRANCH  27  33
ENDBRANCH  19  21
ENDBRANCH   1  19
TORSDOF 5
ENDMDL
MODEL 6
REMARK VINA RESULT:      -7.3      9.806     12.949
REMARK  Name = 54693559
REMARK  5 active torsions:
REMARK  status: ('A' for Active; 'I' for Inactive)
REMARK    1  A    between atoms: C_1  and  C_19
REMARK    2  A    between atoms: C_2  and  C_7
REMARK    3  A    between atoms: C_8  and  C_17
REMARK    4  A    between atoms: C_19  and  N_21
REMARK    5  A    between atoms: C_27  and  O_33
REMARK                            x       y       z     vdW  Elec       q    Type
REMARK                         _______ _______ _______ _____ _____    ______ ____
ROOT
ATOM      1  C   UNL     1     -43.643  33.911   2.087  0.00  0.00    -0.002 C 
ATOM      2  C   UNL     1     -45.033  33.092   4.364  0.00  0.00    +0.001 C 
ATOM      3  C   UNL     1     -43.167  34.248   3.354  0.00  0.00    -0.003 C 
ATOM      4  C   UNL     1     -44.815  33.164   1.959  0.00  0.00    -0.003 C 
ATOM      5  C   UNL     1     -43.861  33.839   4.492  0.00  0.00    -0.000 C 
ATOM      6  C   UNL     1     -45.509  32.755   3.097  0.00  0.00    -0.000 C 
ENDROOT
BRANCH   2   7
ATOM      7  C   UNL     1     -45.753  32.668   5.544  0.00  0.00    +0.009 C 
ATOM      8  C   UNL     1     -45.497  31.441   6.159  0.00  0.00    +0.065 C 
ATOM      9  C   UNL     1     -46.725  33.520   6.068  0.00  0.00    +0.001 C 
ATOM     10  C   UNL     1     -46.213  31.067   7.296  0.00  0.00    +0.010 C 
ATOM     11  C   UNL     1     -47.442  33.145   7.206  0.00  0.00    +0.000 C 
ATOM     12  C   UNL     1     -47.185  31.920   7.819  0.00  0.00    +0.001 C 
BRANCH   8  17
ATOM     13  N   UNL     1     -44.758  29.601   4.726  0.00  0.00    -0.110 NA
ATOM     14  N   UNL     1     -43.206  30.557   6.071  0.00  0.00    -0.087 NA
ATOM     15  N   UNL     1     -43.536  29.062   4.619  0.00  0.00    -0.140 N 
ATOM     16  N   UNL     1     -42.584  29.596   5.397  0.00  0.00    -0.022 NA
ATOM     17  C   UNL     1     -44.502  30.534   5.648  0.00  0.00    +0.073 C 
ATOM     18  H   UNL     1     -43.347  28.316   4.005  0.00  0.00    +0.197 HD
ENDBRANCH   8  17
ENDBRANCH   2   7
BRANCH   1  19
ATOM     19  C   UNL     1     -42.896  34.351   0.863  0.00  0.00    +0.127 C 
BRANCH  19  21
ATOM     20  O   UNL     1     -41.380  36.605   1.718  0.00  0.00    -0.269 OA
ATOM     21  N   UNL     1     -41.453  34.365   1.078  0.00  0.00    -0.228 N 
ATOM     22  N   UNL     1     -41.428  32.047   0.432  0.00  0.00    -0.332 NA
ATOM     23  N   UNL     1     -39.377  30.795   0.382  0.00  0.00    -0.351 NA
ATOM     24  C   UNL     1     -40.745  33.144   0.841  0.00  0.00    +0.192 C 
ATOM     25  C   UNL     1     -39.367  33.124   1.038  0.00  0.00    +0.173 C 
ATOM     26  C   UNL     1     -40.816  35.531   1.500  0.00  0.00    +0.257 C 
ATOM     27  C   UNL     1     -38.668  34.325   1.478  0.00  0.00    +0.130 C 
ATOM     28  C   UNL     1     -38.738  31.911   0.790  0.00  0.00    +0.114 C 
ATOM     29  C   UNL     1     -39.344  35.457   1.696  0.00  0.00    +0.091 C 
ATOM     30  C   UNL     1     -40.702  30.932   0.225  0.00  0.00    +0.115 C 
ATOM     31  C   UNL     1     -37.266  31.709   0.949  0.00  0.00    +0.063 C 
ATOM     32  C   UNL     1     -41.451  29.723  -0.222  0.00  0.00    +0.143 C 
BRANCH  27  33
ATOM     33  O   UNL     1     -37.303  34.258   1.661  0.00  0.00    -0.509 OA
ATOM     34  H   UNL     1     -36.727  34.382   0.933  0.00  0.00    +0.292 HD
ENDBRANCH  27  33
ENDBRANCH  19  21
ENDBRANCH   1  19
TORSDOF 5
ENDMDL
MODEL 7
REMARK VINA RESULT:      -7.3      1.565      2.844
REMARK  Name = 54693559
REMARK  5 active torsions:
REMARK  status: ('A' for Active; 'I' for Inactive)
REMARK    1  A    between atoms: C_1  and  C_19
REMARK    2  A    between atoms: C_2  and  C_7
REMARK    3  A    between atoms: C_8  and  C_17
REMARK    4  A    between atoms: C_19  and  N_21
REMARK    5  A    between atoms: C_27  and  O_33
REMARK                            x       y       z     vdW  Elec       q    Type
REMARK                         _______ _______ _______ _____ _____    ______ ____
ROOT
ATOM      1  C   UNL     1     -35.270  25.871   4.865  0.00  0.00    -0.002 C 
ATOM      2  C   UNL     1     -33.094  27.612   4.719  0.00  0.00    +0.001 C 
ATOM      3  C   UNL     1     -34.322  25.891   5.890  0.00  0.00    -0.003 C 
ATOM      4  C   UNL     1     -35.129  26.722   3.769  0.00  0.00    -0.003 C 
ATOM      5  C   UNL     1     -33.235  26.761   5.817  0.00  0.00    -0.000 C 
ATOM      6  C   UNL     1     -34.041  27.592   3.696  0.00  0.00    -0.000 C 
ENDROOT
BRANCH   2   7
ATOM      7  C   UNL     1     -31.966  28.514   4.644  0.00  0.00    +0.009 C 
ATOM      8  C   UNL     1     -31.038  28.443   3.604  0.00  0.00    +0.065 C 
ATOM      9  C   UNL     1     -31.819  29.475   5.645  0.00  0.00    +0.001 C 
ATOM     10  C   UNL     1     -29.963  29.332   3.567  0.00  0.00    +0.010 C 
ATOM     11  C   UNL     1     -30.744  30.363   5.607  0.00  0.00    +0.000 C 
ATOM     12  C   UNL     1     -29.816  30.291   4.569  0.00  0.00    +0.001 C 
BRANCH   8  17
ATOM     13  N   UNL     1     -30.768  26.193   2.683  0.00  0.00    -0.110 NA
ATOM     14  N   UNL     1     -31.675  27.767   1.330  0.00  0.00    -0.087 NA
ATOM     15  N   UNL     1     -31.087  25.745   1.461  0.00  0.00    -0.140 N 
ATOM     16  N   UNL     1     -31.627  26.643   0.625  0.00  0.00    -0.022 NA
ATOM     17  C   UNL     1     -31.155  27.466   2.553  0.00  0.00    +0.073 C 
ATOM     18  H   UNL     1     -30.933  24.811   1.191  0.00  0.00    +0.197 HD
ENDBRANCH   8  17
ENDBRANCH   2   7
BRANCH   1  19
ATOM     19  C   UNL     1     -36.440  24.935   4.944  0.00  0.00    +0.127 C 
BRANCH  19  21
ATOM     20  O   UNL     1     -35.192  22.756   6.288  0.00  0.00    -0.269 OA
ATOM     21  N   UNL     1     -36.142  23.636   4.349  0.00  0.00    -0.228 N 
ATOM     22  N   UNL     1     -37.104  24.457   2.301  0.00  0.00    -0.332 NA
ATOM     23  N   UNL     1     -37.210  23.073   0.340  0.00  0.00    -0.351 NA
ATOM     24  C   UNL     1     -36.508  23.445   2.979  0.00  0.00    +0.192 C 
ATOM     25  C   UNL     1     -36.237  22.217   2.382  0.00  0.00    +0.173 C 
ATOM     26  C   UNL     1     -35.526  22.641   5.107  0.00  0.00    +0.257 C 
ATOM     27  C   UNL     1     -35.594  21.153   3.144  0.00  0.00    +0.130 C 
ATOM     28  C   UNL     1     -36.615  22.094   1.052  0.00  0.00    +0.114 C 
ATOM     29  C   UNL     1     -35.259  21.348   4.423  0.00  0.00    +0.091 C 
ATOM     30  C   UNL     1     -37.421  24.212   1.017  0.00  0.00    +0.115 C 
ATOM     31  C   UNL     1     -36.401  20.848   0.255  0.00  0.00    +0.063 C 
ATOM     32  C   UNL     1     -38.079  25.322   0.270  0.00  0.00    +0.143 C 
BRANCH  27  33
ATOM     33  O   UNL     1     -35.346  19.953   2.512  0.00  0.00    -0.509 OA
ATOM     34  H   UNL     1     -34.572  19.466   2.719  0.00  0.00    +0.292 HD
ENDBRANCH  27  33
ENDBRANCH  19  21
ENDBRANCH   1  19
TORSDOF 5
ENDMDL
MODEL 8
REMARK VINA RESULT:      -7.3      5.325      8.326
REMARK  Name = 54693559
REMARK  5 active torsions:
REMARK  status: ('A' for Active; 'I' for Inactive)
REMARK    1  A    between atoms: C_1  and  C_19
REMARK    2  A    between atoms: C_2  and  C_7
REMARK    3  A    between atoms: C_8  and  C_17
REMARK    4  A    between atoms: C_19  and  N_21
REMARK    5  A    between atoms: C_27  and  O_33
REMARK                            x       y       z     vdW  Elec       q    Type
REMARK                         _______ _______ _______ _____ _____    ______ ____
ROOT
ATOM      1  C   UNL     1     -40.541  26.234   1.905  0.00  0.00    -0.002 C 
ATOM      2  C   UNL     1     -38.552  24.329   2.353  0.00  0.00    +0.001 C 
ATOM      3  C   UNL     1     -40.489  25.553   3.122  0.00  0.00    -0.003 C 
ATOM      4  C   UNL     1     -39.599  25.962   0.913  0.00  0.00    -0.003 C 
ATOM      5  C   UNL     1     -39.495  24.601   3.346  0.00  0.00    -0.000 C 
ATOM      6  C   UNL     1     -38.605  25.010   1.137  0.00  0.00    -0.000 C 
ENDROOT
BRANCH   2   7
ATOM      7  C   UNL     1     -37.521  23.341   2.586  0.00  0.00    +0.009 C 
ATOM      8  C   UNL     1     -36.385  23.631   3.343  0.00  0.00    +0.065 C 
ATOM      9  C   UNL     1     -37.684  22.072   2.031  0.00  0.00    +0.001 C 
ATOM     10  C   UNL     1     -35.413  22.651   3.545  0.00  0.00    +0.010 C 
ATOM     11  C   UNL     1     -36.711  21.093   2.233  0.00  0.00    +0.000 C 
ATOM     12  C   UNL     1     -35.576  21.383   2.989  0.00  0.00    +0.001 C 
BRANCH   8  17
ATOM     13  N   UNL     1     -36.585  25.252   5.164  0.00  0.00    -0.110 NA
ATOM     14  N   UNL     1     -35.552  25.942   3.270  0.00  0.00    -0.087 NA
ATOM     15  N   UNL     1     -36.161  26.523   5.205  0.00  0.00    -0.140 N 
ATOM     16  N   UNL     1     -35.544  26.974   4.105  0.00  0.00    -0.022 NA
ATOM     17  C   UNL     1     -36.181  24.929   3.932  0.00  0.00    +0.073 C 
ATOM     18  H   UNL     1     -36.297  27.092   5.996  0.00  0.00    +0.197 HD
ENDBRANCH   8  17
ENDBRANCH   2   7
BRANCH   1  19
ATOM     19  C   UNL     1     -41.611  27.258   1.665  0.00  0.00    +0.127 C 
BRANCH  19  21
ATOM     20  O   UNL     1     -42.075  28.717   4.066  0.00  0.00    -0.269 OA
ATOM     21  N   UNL     1     -42.753  27.076   2.555  0.00  0.00    -0.228 N 
ATOM     22  N   UNL     1     -43.534  25.366   1.053  0.00  0.00    -0.332 NA
ATOM     23  N   UNL     1     -45.573  24.171   1.486  0.00  0.00    -0.351 NA
ATOM     24  C   UNL     1     -43.716  26.084   2.188  0.00  0.00    +0.192 C 
ATOM     25  C   UNL     1     -44.816  25.885   3.017  0.00  0.00    +0.173 C 
ATOM     26  C   UNL     1     -42.875  27.851   3.707  0.00  0.00    +0.257 C 
ATOM     27  C   UNL     1     -44.978  26.678   4.230  0.00  0.00    +0.130 C 
ATOM     28  C   UNL     1     -45.714  24.908   2.607  0.00  0.00    +0.114 C 
ATOM     29  C   UNL     1     -44.069  27.601   4.558  0.00  0.00    +0.091 C 
ATOM     30  C   UNL     1     -44.475  24.448   0.767  0.00  0.00    +0.115 C 
ATOM     31  C   UNL     1     -46.949  24.563   3.374  0.00  0.00    +0.063 C 
ATOM     32  C   UNL     1     -44.279  23.658  -0.483  0.00  0.00    +0.143 C 
BRANCH  27  33
ATOM     33  O   UNL     1     -46.084  26.447   5.020  0.00  0.00    -0.509 OA
ATOM     34  H   UNL     1     -46.941  26.637   4.693  0.00  0.00    +0.292 HD
ENDBRANCH  27  33
ENDBRANCH  19  21
ENDBRANCH   1  19
TORSDOF 5
ENDMDL
MODEL 9
REMARK VINA RESULT:      -7.2      5.804      9.053
REMARK  Name = 54693559
REMARK  5 active torsions:
REMARK  status: ('A' for Active; 'I' for Inactive)
REMARK    1  A    between atoms: C_1  and  C_19
REMARK    2  A    between atoms: C_2  and  C_7
REMARK    3  A    between atoms: C_8  and  C_17
REMARK    4  A    between atoms: C_19  and  N_21
REMARK    5  A    between atoms: C_27  and  O_33
REMARK                            x       y       z     vdW  Elec       q    Type
REMARK                         _______ _______ _______ _____ _____    ______ ____
ROOT
ATOM      1  C   UNL     1     -40.903  26.344   1.960  0.00  0.00    -0.002 C 
ATOM      2  C   UNL     1     -38.796  24.568   2.399  0.00  0.00    +0.001 C 
ATOM      3  C   UNL     1     -39.941  26.145   0.970  0.00  0.00    -0.003 C 
ATOM      4  C   UNL     1     -40.811  25.655   3.170  0.00  0.00    -0.003 C 
ATOM      5  C   UNL     1     -38.888  25.258   1.188  0.00  0.00    -0.000 C 
ATOM      6  C   UNL     1     -39.758  24.767   3.388  0.00  0.00    -0.000 C 
ENDROOT
BRANCH   2   7
ATOM      7  C   UNL     1     -37.704  23.648   2.626  0.00  0.00    +0.009 C 
ATOM      8  C   UNL     1     -37.732  22.341   2.136  0.00  0.00    +0.065 C 
ATOM      9  C   UNL     1     -36.602  24.095   3.354  0.00  0.00    +0.001 C 
ATOM     10  C   UNL     1     -36.658  21.483   2.376  0.00  0.00    +0.010 C 
ATOM     11  C   UNL     1     -35.529  23.236   3.594  0.00  0.00    +0.000 C 
ATOM     12  C   UNL     1     -35.558  21.931   3.105  0.00  0.00    +0.001 C 
BRANCH   8  17
ATOM     13  N   UNL     1     -38.901  21.850   0.045  0.00  0.00    -0.110 NA
ATOM     14  N   UNL     1     -39.959  21.316   1.975  0.00  0.00    -0.087 NA
ATOM     15  N   UNL     1     -40.110  21.296  -0.130  0.00  0.00    -0.140 N 
ATOM     16  N   UNL     1     -40.773  20.964   0.986  0.00  0.00    -0.022 NA
ATOM     17  C   UNL     1     -38.851  21.842   1.380  0.00  0.00    +0.073 C 
ATOM     18  H   UNL     1     -40.489  21.143  -1.025  0.00  0.00    +0.197 HD
ENDBRANCH   8  17
ENDBRANCH   2   7
BRANCH   1  19
ATOM     19  C   UNL     1     -42.037  27.299   1.724  0.00  0.00    +0.127 C 
BRANCH  19  21
ATOM     20  O   UNL     1     -42.208  28.884   4.084  0.00  0.00    -0.269 OA
ATOM     21  N   UNL     1     -43.072  27.182   2.746  0.00  0.00    -0.228 N 
ATOM     22  N   UNL     1     -44.039  25.413   1.431  0.00  0.00    -0.332 NA
ATOM     23  N   UNL     1     -46.031  24.279   2.153  0.00  0.00    -0.351 NA
ATOM     24  C   UNL     1     -44.083  26.190   2.542  0.00  0.00    +0.192 C 
ATOM     25  C   UNL     1     -45.085  26.053   3.498  0.00  0.00    +0.173 C 
ATOM     26  C   UNL     1     -43.054  28.016   3.863  0.00  0.00    +0.257 C 
ATOM     27  C   UNL     1     -45.098  26.908   4.679  0.00  0.00    +0.130 C 
ATOM     28  C   UNL     1     -46.035  25.073   3.243  0.00  0.00    +0.114 C 
ATOM     29  C   UNL     1     -44.147  27.830   4.854  0.00  0.00    +0.091 C 
ATOM     30  C   UNL     1     -45.018  24.500   1.301  0.00  0.00    +0.115 C 
ATOM     31  C   UNL     1     -47.179  24.789   4.161  0.00  0.00    +0.063 C 
ATOM     32  C   UNL     1     -44.974  23.645   0.080  0.00  0.00    +0.143 C 
BRANCH  27  33
ATOM     33  O   UNL     1     -46.110  26.738   5.599  0.00  0.00    -0.509 OA
ATOM     34  H   UNL     1     -46.254  27.384   6.262  0.00  0.00    +0.292 HD
ENDBRANCH  27  33
ENDBRANCH  19  21
ENDBRANCH   1  19
TORSDOF 5
ENDMDL
