MODEL 1
REMARK VINA RESULT:      -5.4      0.000      0.000
REMARK  Name = 54291272
REMARK  7 active torsions:
REMARK  status: ('A' for Active; 'I' for Inactive)
REMARK    1  A    between atoms: C_2  and  O_7
REMARK    2  A    between atoms: C_3  and  O_9
REMARK    3  A    between atoms: C_4  and  C_17
REMARK    4  A    between atoms: C_5  and  O_11
REMARK    5  A    between atoms: C_6  and  O_13
REMARK    6  A    between atoms: O_13  and  C_15
REMARK    7  A    between atoms: C_17  and  O_18
REMARK                            x       y       z     vdW  Elec       q    Type
REMARK                         _______ _______ _______ _____ _____    ______ ____
ROOT
ATOM      1  O   UNL     1     -35.051  24.281   5.621  0.00  0.00    -0.316 OA
ATOM      2  C   UNL     1     -36.271  22.827   4.106  0.00  0.00    +0.169 C 
ATOM      3  C   UNL     1     -37.166  24.000   3.706  0.00  0.00    +0.173 C 
ATOM      4  C   UNL     1     -35.753  23.034   5.534  0.00  0.00    +0.177 C 
ATOM      5  C   UNL     1     -36.456  25.335   3.931  0.00  0.00    +0.211 C 
ATOM      6  C   UNL     1     -35.879  25.410   5.347  0.00  0.00    +0.320 C 
ENDROOT
BRANCH   2   7
ATOM      7  O   UNL     1     -35.158  22.748   3.214  0.00  0.00    -0.379 OA
ATOM      8  H   UNL     1     -34.843  23.642   3.009  0.00  0.00    +0.211 HD
ENDBRANCH   2   7
BRANCH   3   9
ATOM      9  O   UNL     1     -37.535  23.891   2.334  0.00  0.00    -0.379 OA
ATOM     10  H   UNL     1     -38.372  24.357   2.186  0.00  0.00    +0.211 HD
ENDBRANCH   3   9
BRANCH   5  11
ATOM     11  O   UNL     1     -37.394  26.399   3.767  0.00  0.00    -0.377 OA
ATOM     12  H   UNL     1     -36.958  27.245   3.952  0.00  0.00    +0.211 HD
ENDBRANCH   5  11
BRANCH   6  13
ATOM     13  O   UNL     1     -35.110  26.607   5.443  0.00  0.00    -0.422 OA
BRANCH  13  15
ATOM     14  O   UNL     1     -33.133  26.066   4.378  0.00  0.00    -0.250 OA
ATOM     15  C   UNL     1     -33.757  26.447   5.359  0.00  0.00    +0.319 C 
ATOM     16  C   UNL     1     -33.123  26.811   6.667  0.00  0.00    +0.121 C 
ENDBRANCH  13  15
ENDBRANCH   6  13
BRANCH   4  17
ATOM     17  C   UNL     1     -34.787  21.937   5.965  0.00  0.00    +0.169 C 
BRANCH  17  18
ATOM     18  O   UNL     1     -35.293  20.690   5.524  0.00  0.00    -0.379 OA
ATOM     19  H   UNL     1     -34.559  20.071   5.391  0.00  0.00    +0.211 HD
ENDBRANCH  17  18
ENDBRANCH   4  17
TORSDOF 7
ENDMDL
MODEL 2
REMARK VINA RESULT:      -5.3      1.987      4.544
REMARK  Name = 54291272
REMARK  7 active torsions:
REMARK  status: ('A' for Active; 'I' for Inactive)
REMARK    1  A    between atoms: C_2  and  O_7
REMARK    2  A    between atoms: C_3  and  O_9
REMARK    3  A    between atoms: C_4  and  C_17
REMARK    4  A    between atoms: C_5  and  O_11
REMARK    5  A    between atoms: C_6  and  O_13
REMARK    6  A    between atoms: O_13  and  C_15
REMARK    7  A    between atoms: C_17  and  O_18
REMARK                            x       y       z     vdW  Elec       q    Type
REMARK                         _______ _______ _______ _____ _____    ______ ____
ROOT
ATOM      1  O   UNL     1     -37.300  23.401   3.988  0.00  0.00    -0.316 OA
ATOM      2  C   UNL     1     -35.357  24.803   4.387  0.00  0.00    +0.169 C 
ATOM      3  C   UNL     1     -35.993  25.916   3.555  0.00  0.00    +0.173 C 
ATOM      4  C   UNL     1     -35.869  23.440   3.907  0.00  0.00    +0.177 C 
ATOM      5  C   UNL     1     -37.516  25.786   3.536  0.00  0.00    +0.211 C 
ATOM      6  C   UNL     1     -37.934  24.365   3.150  0.00  0.00    +0.320 C 
ENDROOT
BRANCH   2   7
ATOM      7  O   UNL     1     -35.706  24.973   5.762  0.00  0.00    -0.379 OA
ATOM      8  H   UNL     1     -36.543  25.459   5.826  0.00  0.00    +0.211 HD
ENDBRANCH   2   7
BRANCH   3   9
ATOM      9  O   UNL     1     -35.639  27.190   4.086  0.00  0.00    -0.379 OA
ATOM     10  H   UNL     1     -34.971  27.603   3.517  0.00  0.00    +0.211 HD
ENDBRANCH   3   9
BRANCH   5  11
ATOM     11  O   UNL     1     -38.053  26.694   2.574  0.00  0.00    -0.377 OA
ATOM     12  H   UNL     1     -37.724  27.589   2.755  0.00  0.00    +0.211 HD
ENDBRANCH   5  11
BRANCH   6  13
ATOM     13  O   UNL     1     -39.350  24.271   3.294  0.00  0.00    -0.422 OA
BRANCH  13  15
ATOM     14  O   UNL     1     -40.051  22.370   2.184  0.00  0.00    -0.250 OA
ATOM     15  C   UNL     1     -39.999  23.587   2.307  0.00  0.00    +0.319 C 
ATOM     16  C   UNL     1     -40.655  24.553   1.369  0.00  0.00    +0.121 C 
ENDBRANCH  13  15
ENDBRANCH   6  13
BRANCH   4  17
ATOM     17  C   UNL     1     -35.334  22.289   4.751  0.00  0.00    +0.169 C 
BRANCH  17  18
ATOM     18  O   UNL     1     -36.151  22.154   5.900  0.00  0.00    -0.379 OA
ATOM     19  H   UNL     1     -37.042  21.880   5.633  0.00  0.00    +0.211 HD
ENDBRANCH  17  18
ENDBRANCH   4  17
TORSDOF 7
ENDMDL
MODEL 3
REMARK VINA RESULT:      -5.3      1.648      3.997
REMARK  Name = 54291272
REMARK  7 active torsions:
REMARK  status: ('A' for Active; 'I' for Inactive)
REMARK    1  A    between atoms: C_2  and  O_7
REMARK    2  A    between atoms: C_3  and  O_9
REMARK    3  A    between atoms: C_4  and  C_17
REMARK    4  A    between atoms: C_5  and  O_11
REMARK    5  A    between atoms: C_6  and  O_13
REMARK    6  A    between atoms: O_13  and  C_15
REMARK    7  A    between atoms: C_17  and  O_18
REMARK                            x       y       z     vdW  Elec       q    Type
REMARK                         _______ _______ _______ _____ _____    ______ ____
ROOT
ATOM      1  O   UNL     1     -34.942  24.507   4.043  0.00  0.00    -0.316 OA
ATOM      2  C   UNL     1     -35.736  26.504   2.913  0.00  0.00    +0.169 C 
ATOM      3  C   UNL     1     -37.077  25.819   2.650  0.00  0.00    +0.173 C 
ATOM      4  C   UNL     1     -34.626  25.450   3.011  0.00  0.00    +0.177 C 
ATOM      5  C   UNL     1     -37.343  24.719   3.679  0.00  0.00    +0.211 C 
ATOM      6  C   UNL     1     -36.140  23.778   3.787  0.00  0.00    +0.320 C 
ENDROOT
BRANCH   2   7
ATOM      7  O   UNL     1     -35.800  27.229   4.142  0.00  0.00    -0.379 OA
ATOM      8  H   UNL     1     -36.528  27.870   4.102  0.00  0.00    +0.211 HD
ENDBRANCH   2   7
BRANCH   3   9
ATOM      9  O   UNL     1     -38.134  26.773   2.702  0.00  0.00    -0.379 OA
ATOM     10  H   UNL     1     -38.740  26.545   3.425  0.00  0.00    +0.211 HD
ENDBRANCH   3   9
BRANCH   5  11
ATOM     11  O   UNL     1     -38.479  23.958   3.270  0.00  0.00    -0.377 OA
ATOM     12  H   UNL     1     -39.032  24.494   2.680  0.00  0.00    +0.211 HD
ENDBRANCH   5  11
BRANCH   6  13
ATOM     13  O   UNL     1     -36.391  22.870   4.859  0.00  0.00    -0.422 OA
BRANCH  13  15
ATOM     14  O   UNL     1     -35.262  21.005   4.096  0.00  0.00    -0.250 OA
ATOM     15  C   UNL     1     -35.516  21.827   4.966  0.00  0.00    +0.319 C 
ATOM     16  C   UNL     1     -34.895  21.826   6.329  0.00  0.00    +0.121 C 
ENDBRANCH  13  15
ENDBRANCH   6  13
BRANCH   4  17
ATOM     17  C   UNL     1     -33.274  26.064   3.354  0.00  0.00    +0.169 C 
BRANCH  17  18
ATOM     18  O   UNL     1     -33.165  26.161   4.763  0.00  0.00    -0.379 OA
ATOM     19  H   UNL     1     -33.952  26.603   5.118  0.00  0.00    +0.211 HD
ENDBRANCH  17  18
ENDBRANCH   4  17
TORSDOF 7
ENDMDL
MODEL 4
REMARK VINA RESULT:      -5.1      2.002      4.312
REMARK  Name = 54291272
REMARK  7 active torsions:
REMARK  status: ('A' for Active; 'I' for Inactive)
REMARK    1  A    between atoms: C_2  and  O_7
REMARK    2  A    between atoms: C_3  and  O_9
REMARK    3  A    between atoms: C_4  and  C_17
REMARK    4  A    between atoms: C_5  and  O_11
REMARK    5  A    between atoms: C_6  and  O_13
REMARK    6  A    between atoms: O_13  and  C_15
REMARK    7  A    between atoms: C_17  and  O_18
REMARK                            x       y       z     vdW  Elec       q    Type
REMARK                         _______ _______ _______ _____ _____    ______ ____
ROOT
ATOM      1  O   UNL     1     -37.702  22.879   3.133  0.00  0.00    -0.316 OA
ATOM      2  C   UNL     1     -35.486  22.788   4.121  0.00  0.00    +0.169 C 
ATOM      3  C   UNL     1     -35.549  24.290   4.396  0.00  0.00    +0.173 C 
ATOM      4  C   UNL     1     -36.354  22.447   2.905  0.00  0.00    +0.177 C 
ATOM      5  C   UNL     1     -36.998  24.768   4.503  0.00  0.00    +0.211 C 
ATOM      6  C   UNL     1     -37.816  24.291   3.300  0.00  0.00    +0.320 C 
ENDROOT
BRANCH   2   7
ATOM      7  O   UNL     1     -35.972  22.071   5.257  0.00  0.00    -0.379 OA
ATOM      8  H   UNL     1     -36.934  22.177   5.319  0.00  0.00    +0.211 HD
ENDBRANCH   2   7
BRANCH   3   9
ATOM      9  O   UNL     1     -34.865  24.597   5.608  0.00  0.00    -0.379 OA
ATOM     10  H   UNL     1     -35.127  23.966   6.296  0.00  0.00    +0.211 HD
ENDBRANCH   3   9
BRANCH   5  11
ATOM     11  O   UNL     1     -37.021  26.195   4.530  0.00  0.00    -0.377 OA
ATOM     12  H   UNL     1     -37.187  26.498   5.437  0.00  0.00    +0.211 HD
ENDBRANCH   5  11
BRANCH   6  13
ATOM     13  O   UNL     1     -39.179  24.640   3.532  0.00  0.00    -0.422 OA
BRANCH  13  15
ATOM     14  O   UNL     1     -39.408  26.697   2.505  0.00  0.00    -0.250 OA
ATOM     15  C   UNL     1     -39.722  25.522   2.642  0.00  0.00    +0.319 C 
ATOM     16  C   UNL     1     -40.782  24.837   1.835  0.00  0.00    +0.121 C 
ENDBRANCH  13  15
ENDBRANCH   6  13
BRANCH   4  17
ATOM     17  C   UNL     1     -36.398  20.949   2.626  0.00  0.00    +0.169 C 
BRANCH  17  18
ATOM     18  O   UNL     1     -35.198  20.365   3.102  0.00  0.00    -0.379 OA
ATOM     19  H   UNL     1     -35.251  20.256   4.064  0.00  0.00    +0.211 HD
ENDBRANCH  17  18
ENDBRANCH   4  17
TORSDOF 7
ENDMDL
MODEL 5
REMARK VINA RESULT:      -5.1      1.340      1.674
REMARK  Name = 54291272
REMARK  7 active torsions:
REMARK  status: ('A' for Active; 'I' for Inactive)
REMARK    1  A    between atoms: C_2  and  O_7
REMARK    2  A    between atoms: C_3  and  O_9
REMARK    3  A    between atoms: C_4  and  C_17
REMARK    4  A    between atoms: C_5  and  O_11
REMARK    5  A    between atoms: C_6  and  O_13
REMARK    6  A    between atoms: O_13  and  C_15
REMARK    7  A    between atoms: C_17  and  O_18
REMARK                            x       y       z     vdW  Elec       q    Type
REMARK                         _______ _______ _______ _____ _____    ______ ____
ROOT
ATOM      1  O   UNL     1     -34.170  24.551   5.164  0.00  0.00    -0.316 OA
ATOM      2  C   UNL     1     -36.388  24.106   4.282  0.00  0.00    +0.169 C 
ATOM      3  C   UNL     1     -36.592  25.603   4.047  0.00  0.00    +0.173 C 
ATOM      4  C   UNL     1     -35.412  23.892   5.445  0.00  0.00    +0.177 C 
ATOM      5  C   UNL     1     -35.252  26.321   3.884  0.00  0.00    +0.211 C 
ATOM      6  C   UNL     1     -34.304  25.965   5.032  0.00  0.00    +0.320 C 
ENDROOT
BRANCH   2   7
ATOM      7  O   UNL     1     -35.849  23.505   3.104  0.00  0.00    -0.379 OA
ATOM      8  H   UNL     1     -35.728  22.554   3.252  0.00  0.00    +0.211 HD
ENDBRANCH   2   7
BRANCH   3   9
ATOM      9  O   UNL     1     -37.382  25.814   2.880  0.00  0.00    -0.379 OA
ATOM     10  H   UNL     1     -37.322  25.035   2.305  0.00  0.00    +0.211 HD
ENDBRANCH   3   9
BRANCH   5  11
ATOM     11  O   UNL     1     -35.471  27.732   3.897  0.00  0.00    -0.377 OA
ATOM     12  H   UNL     1     -35.236  28.103   3.032  0.00  0.00    +0.211 HD
ENDBRANCH   5  11
BRANCH   6  13
ATOM     13  O   UNL     1     -33.032  26.545   4.745  0.00  0.00    -0.422 OA
BRANCH  13  15
ATOM     14  O   UNL     1     -32.638  28.807   4.996  0.00  0.00    -0.250 OA
ATOM     15  C   UNL     1     -32.726  27.673   5.449  0.00  0.00    +0.319 C 
ATOM     16  C   UNL     1     -32.505  27.325   6.889  0.00  0.00    +0.121 C 
ENDBRANCH  13  15
ENDBRANCH   6  13
BRANCH   4  17
ATOM     17  C   UNL     1     -35.102  22.418   5.678  0.00  0.00    +0.169 C 
BRANCH  17  18
ATOM     18  O   UNL     1     -36.162  21.846   6.423  0.00  0.00    -0.379 OA
ATOM     19  H   UNL     1     -35.802  21.384   7.196  0.00  0.00    +0.211 HD
ENDBRANCH  17  18
ENDBRANCH   4  17
TORSDOF 7
ENDMDL
MODEL 6
REMARK VINA RESULT:      -4.9      2.630      4.780
REMARK  Name = 54291272
REMARK  7 active torsions:
REMARK  status: ('A' for Active; 'I' for Inactive)
REMARK    1  A    between atoms: C_2  and  O_7
REMARK    2  A    between atoms: C_3  and  O_9
REMARK    3  A    between atoms: C_4  and  C_17
REMARK    4  A    between atoms: C_5  and  O_11
REMARK    5  A    between atoms: C_6  and  O_13
REMARK    6  A    between atoms: O_13  and  C_15
REMARK    7  A    between atoms: C_17  and  O_18
REMARK                            x       y       z     vdW  Elec       q    Type
REMARK                         _______ _______ _______ _____ _____    ______ ____
ROOT
ATOM      1  O   UNL     1     -37.433  22.642   3.325  0.00  0.00    -0.316 OA
ATOM      2  C   UNL     1     -38.735  21.773   1.469  0.00  0.00    +0.169 C 
ATOM      3  C   UNL     1     -37.535  20.940   1.020  0.00  0.00    +0.173 C 
ATOM      4  C   UNL     1     -38.250  23.023   2.211  0.00  0.00    +0.177 C 
ATOM      5  C   UNL     1     -36.596  20.653   2.193  0.00  0.00    +0.211 C 
ATOM      6  C   UNL     1     -36.251  21.944   2.939  0.00  0.00    +0.320 C 
ENDROOT
BRANCH   2   7
ATOM      7  O   UNL     1     -39.554  20.998   2.347  0.00  0.00    -0.379 OA
ATOM      8  H   UNL     1     -39.559  21.405   3.228  0.00  0.00    +0.211 HD
ENDBRANCH   2   7
BRANCH   3   9
ATOM      9  O   UNL     1     -37.974  19.706   0.459  0.00  0.00    -0.379 OA
ATOM     10  H   UNL     1     -38.493  19.881  -0.341  0.00  0.00    +0.211 HD
ENDBRANCH   3   9
BRANCH   5  11
ATOM     11  O   UNL     1     -35.387  20.079   1.697  0.00  0.00    -0.377 OA
ATOM     12  H   UNL     1     -35.376  20.134   0.728  0.00  0.00    +0.211 HD
ENDBRANCH   5  11
BRANCH   6  13
ATOM     13  O   UNL     1     -35.499  21.592   4.099  0.00  0.00    -0.422 OA
BRANCH  13  15
ATOM     14  O   UNL     1     -34.723  23.711   4.588  0.00  0.00    -0.250 OA
ATOM     15  C   UNL     1     -35.174  22.626   4.928  0.00  0.00    +0.319 C 
ATOM     16  C   UNL     1     -35.451  22.240   6.349  0.00  0.00    +0.121 C 
ENDBRANCH  13  15
ENDBRANCH   6  13
BRANCH   4  17
ATOM     17  C   UNL     1     -39.404  23.857   2.756  0.00  0.00    +0.169 C 
BRANCH  17  18
ATOM     18  O   UNL     1     -38.924  24.645   3.830  0.00  0.00    -0.379 OA
ATOM     19  H   UNL     1     -38.503  25.446   3.481  0.00  0.00    +0.211 HD
ENDBRANCH  17  18
ENDBRANCH   4  17
TORSDOF 7
ENDMDL
MODEL 7
REMARK VINA RESULT:      -4.9      2.303      4.576
REMARK  Name = 54291272
REMARK  7 active torsions:
REMARK  status: ('A' for Active; 'I' for Inactive)
REMARK    1  A    between atoms: C_2  and  O_7
REMARK    2  A    between atoms: C_3  and  O_9
REMARK    3  A    between atoms: C_4  and  C_17
REMARK    4  A    between atoms: C_5  and  O_11
REMARK    5  A    between atoms: C_6  and  O_13
REMARK    6  A    between atoms: O_13  and  C_15
REMARK    7  A    between atoms: C_17  and  O_18
REMARK                            x       y       z     vdW  Elec       q    Type
REMARK                         _______ _______ _______ _____ _____    ______ ____
ROOT
ATOM      1  O   UNL     1     -33.311  25.206   3.418  0.00  0.00    -0.316 OA
ATOM      2  C   UNL     1     -33.656  27.442   2.536  0.00  0.00    +0.169 C 
ATOM      3  C   UNL     1     -35.047  27.475   3.170  0.00  0.00    +0.173 C 
ATOM      4  C   UNL     1     -33.264  25.994   2.221  0.00  0.00    +0.177 C 
ATOM      5  C   UNL     1     -35.127  26.527   4.367  0.00  0.00    +0.211 C 
ATOM      6  C   UNL     1     -34.615  25.134   3.990  0.00  0.00    +0.320 C 
ENDROOT
BRANCH   2   7
ATOM      7  O   UNL     1     -32.702  27.997   3.442  0.00  0.00    -0.379 OA
ATOM      8  H   UNL     1     -33.150  28.606   4.051  0.00  0.00    +0.211 HD
ENDBRANCH   2   7
BRANCH   3   9
ATOM      9  O   UNL     1     -35.360  28.797   3.599  0.00  0.00    -0.379 OA
ATOM     10  H   UNL     1     -34.937  28.968   4.455  0.00  0.00    +0.211 HD
ENDBRANCH   3   9
BRANCH   5  11
ATOM     11  O   UNL     1     -36.487  26.413   4.787  0.00  0.00    -0.377 OA
ATOM     12  H   UNL     1     -36.721  27.178   5.335  0.00  0.00    +0.211 HD
ENDBRANCH   5  11
BRANCH   6  13
ATOM     13  O   UNL     1     -34.578  24.345   5.178  0.00  0.00    -0.422 OA
BRANCH  13  15
ATOM     14  O   UNL     1     -36.584  23.324   4.662  0.00  0.00    -0.250 OA
ATOM     15  C   UNL     1     -35.518  23.360   5.262  0.00  0.00    +0.319 C 
ATOM     16  C   UNL     1     -35.057  22.301   6.217  0.00  0.00    +0.121 C 
ENDBRANCH  13  15
ENDBRANCH   6  13
BRANCH   4  17
ATOM     17  C   UNL     1     -31.851  25.885   1.660  0.00  0.00    +0.169 C 
BRANCH  17  18
ATOM     18  O   UNL     1     -30.932  25.951   2.735  0.00  0.00    -0.379 OA
ATOM     19  H   UNL     1     -30.033  25.798   2.402  0.00  0.00    +0.211 HD
ENDBRANCH  17  18
ENDBRANCH   4  17
TORSDOF 7
ENDMDL
MODEL 8
REMARK VINA RESULT:      -4.8      2.434      4.486
REMARK  Name = 54291272
REMARK  7 active torsions:
REMARK  status: ('A' for Active; 'I' for Inactive)
REMARK    1  A    between atoms: C_2  and  O_7
REMARK    2  A    between atoms: C_3  and  O_9
REMARK    3  A    between atoms: C_4  and  C_17
REMARK    4  A    between atoms: C_5  and  O_11
REMARK    5  A    between atoms: C_6  and  O_13
REMARK    6  A    between atoms: O_13  and  C_15
REMARK    7  A    between atoms: C_17  and  O_18
REMARK                            x       y       z     vdW  Elec       q    Type
REMARK                         _______ _______ _______ _____ _____    ______ ____
ROOT
ATOM      1  O   UNL     1     -38.372  23.658   2.395  0.00  0.00    -0.316 OA
ATOM      2  C   UNL     1     -38.175  21.426   1.458  0.00  0.00    +0.169 C 
ATOM      3  C   UNL     1     -36.844  21.240   2.187  0.00  0.00    +0.173 C 
ATOM      4  C   UNL     1     -38.404  22.914   1.170  0.00  0.00    +0.177 C 
ATOM      5  C   UNL     1     -36.762  22.141   3.420  0.00  0.00    +0.211 C 
ATOM      6  C   UNL     1     -37.111  23.587   3.058  0.00  0.00    +0.320 C 
ENDROOT
BRANCH   2   7
ATOM      7  O   UNL     1     -39.241  20.939   2.276  0.00  0.00    -0.379 OA
ATOM      8  H   UNL     1     -39.274  19.971   2.222  0.00  0.00    +0.211 HD
ENDBRANCH   2   7
BRANCH   3   9
ATOM      9  O   UNL     1     -36.688  19.882   2.589  0.00  0.00    -0.379 OA
ATOM     10  H   UNL     1     -37.414  19.352   2.224  0.00  0.00    +0.211 HD
ENDBRANCH   3   9
BRANCH   5  11
ATOM     11  O   UNL     1     -35.432  22.111   3.937  0.00  0.00    -0.377 OA
ATOM     12  H   UNL     1     -34.898  22.789   3.494  0.00  0.00    +0.211 HD
ENDBRANCH   5  11
BRANCH   6  13
ATOM     13  O   UNL     1     -37.161  24.341   4.269  0.00  0.00    -0.422 OA
BRANCH  13  15
ATOM     14  O   UNL     1     -36.426  26.296   3.282  0.00  0.00    -0.250 OA
ATOM     15  C   UNL     1     -36.514  25.542   4.242  0.00  0.00    +0.319 C 
ATOM     16  C   UNL     1     -35.909  25.820   5.585  0.00  0.00    +0.121 C 
ENDBRANCH  13  15
ENDBRANCH   6  13
BRANCH   4  17
ATOM     17  C   UNL     1     -39.756  23.175   0.515  0.00  0.00    +0.169 C 
BRANCH  17  18
ATOM     18  O   UNL     1     -40.734  23.297   1.532  0.00  0.00    -0.379 OA
ATOM     19  H   UNL     1     -40.480  22.752   2.293  0.00  0.00    +0.211 HD
ENDBRANCH  17  18
ENDBRANCH   4  17
TORSDOF 7
ENDMDL
MODEL 9
REMARK VINA RESULT:      -4.8      3.647      5.934
REMARK  Name = 54291272
REMARK  7 active torsions:
REMARK  status: ('A' for Active; 'I' for Inactive)
REMARK    1  A    between atoms: C_2  and  O_7
REMARK    2  A    between atoms: C_3  and  O_9
REMARK    3  A    between atoms: C_4  and  C_17
REMARK    4  A    between atoms: C_5  and  O_11
REMARK    5  A    between atoms: C_6  and  O_13
REMARK    6  A    between atoms: O_13  and  C_15
REMARK    7  A    between atoms: C_17  and  O_18
REMARK                            x       y       z     vdW  Elec       q    Type
REMARK                         _______ _______ _______ _____ _____    ______ ____
ROOT
ATOM      1  O   UNL     1     -34.812  21.907   2.207  0.00  0.00    -0.316 OA
ATOM      2  C   UNL     1     -37.121  22.647   2.343  0.00  0.00    +0.169 C 
ATOM      3  C   UNL     1     -37.581  21.314   1.753  0.00  0.00    +0.173 C 
ATOM      4  C   UNL     1     -35.706  22.971   1.852  0.00  0.00    +0.177 C 
ATOM      5  C   UNL     1     -36.554  20.212   2.019  0.00  0.00    +0.211 C 
ATOM      6  C   UNL     1     -35.154  20.664   1.597  0.00  0.00    +0.320 C 
ENDROOT
BRANCH   2   7
ATOM      7  O   UNL     1     -37.112  22.562   3.769  0.00  0.00    -0.379 OA
ATOM      8  H   UNL     1     -36.354  22.029   4.057  0.00  0.00    +0.211 HD
ENDBRANCH   2   7
BRANCH   3   9
ATOM      9  O   UNL     1     -38.833  20.932   2.315  0.00  0.00    -0.379 OA
ATOM     10  H   UNL     1     -38.778  20.018   2.636  0.00  0.00    +0.211 HD
ENDBRANCH   3   9
BRANCH   5  11
ATOM     11  O   UNL     1     -36.903  19.052   1.264  0.00  0.00    -0.377 OA
ATOM     12  H   UNL     1     -36.579  19.148   0.355  0.00  0.00    +0.211 HD
ENDBRANCH   5  11
BRANCH   6  13
ATOM     13  O   UNL     1     -34.228  19.657   2.005  0.00  0.00    -0.422 OA
BRANCH  13  15
ATOM     14  O   UNL     1     -34.142  17.986   0.413  0.00  0.00    -0.250 OA
ATOM     15  C   UNL     1     -33.650  18.943   0.995  0.00  0.00    +0.319 C 
ATOM     16  C   UNL     1     -32.296  19.506   0.690  0.00  0.00    +0.121 C 
ENDBRANCH  13  15
ENDBRANCH   6  13
BRANCH   4  17
ATOM     17  C   UNL     1     -35.157  24.251   2.471  0.00  0.00    +0.169 C 
BRANCH  17  18
ATOM     18  O   UNL     1     -34.576  23.935   3.723  0.00  0.00    -0.379 OA
ATOM     19  H   UNL     1     -33.692  24.331   3.780  0.00  0.00    +0.211 HD
ENDBRANCH  17  18
ENDBRANCH   4  17
TORSDOF 7
ENDMDL
