MODEL 1
REMARK VINA RESULT:      -7.1      0.000      0.000
REMARK  Name = 5310992
REMARK  7 active torsions:
REMARK  status: ('A' for Active; 'I' for Inactive)
REMARK    1  A    between atoms: N_1  and  C_12
REMARK    2  A    between atoms: C_11  and  O_20
REMARK    3  A    between atoms: C_13  and  O_22
REMARK    4  A    between atoms: C_14  and  C_17
REMARK    5  A    between atoms: N_24  and  C_26
REMARK    6  A    between atoms: C_26  and  C_27
REMARK    7  A    between atoms: C_32  and  N_33
REMARK                            x       y       z     vdW  Elec       q    Type
REMARK                         _______ _______ _______ _____ _____    ______ ____
ROOT
ATOM      1  N   UNL     1     -36.306  23.237   4.127  0.00  0.00    -0.247 N 
ATOM      2  N   UNL     1     -35.196  21.320   4.406  0.00  0.00    -0.242 NA
ATOM      3  N   UNL     1     -36.515  23.245   1.706  0.00  0.00    -0.228 NA
ATOM      4  N   UNL     1     -35.480  21.268   0.719  0.00  0.00    -0.228 NA
ATOM      5  C   UNL     1     -36.119  22.719   2.875  0.00  0.00    +0.152 C 
ATOM      6  C   UNL     1     -35.732  22.359   5.012  0.00  0.00    +0.223 C 
ATOM      7  C   UNL     1     -35.430  21.533   3.070  0.00  0.00    +0.140 C 
ATOM      8  C   UNL     1     -35.110  20.797   1.933  0.00  0.00    +0.146 C 
ATOM      9  C   UNL     1     -36.150  22.445   0.681  0.00  0.00    +0.253 C 
ATOM     10  N   UNL     1     -34.414  19.581   2.038  0.00  0.00    -0.313 N 
ATOM     11  H   UNL     1     -34.159  19.262   2.934  0.00  0.00    +0.149 HD
ENDROOT
BRANCH   1  14
ATOM     12  O   UNL     1     -38.277  24.538   3.825  0.00  0.00    -0.326 OA
ATOM     13  C   UNL     1     -36.220  25.740   4.055  0.00  0.00    +0.187 C 
ATOM     14  C   UNL     1     -36.986  24.487   4.470  0.00  0.00    +0.225 C 
ATOM     15  C   UNL     1     -36.920  26.153   2.776  0.00  0.00    +0.178 C 
ATOM     16  C   UNL     1     -38.353  25.743   3.052  0.00  0.00    +0.222 C 
BRANCH  16  19
ATOM     17  O   UNL     1     -39.264  26.196   0.899  0.00  0.00    -0.272 OA
ATOM     18  N   UNL     1     -39.593  24.096   1.847  0.00  0.00    -0.301 N 
ATOM     19  C   UNL     1     -39.104  25.390   1.812  0.00  0.00    +0.252 C 
ATOM     20  C   UNL     1     -40.375  23.517   0.779  0.00  0.00    +0.111 C 
ATOM     21  H   UNL     1     -39.399  23.543   2.638  0.00  0.00    +0.150 HD
ENDBRANCH  16  19
BRANCH  13  22
ATOM     22  O   UNL     1     -36.413  26.724   5.072  0.00  0.00    -0.378 OA
ATOM     23  H   UNL     1     -35.567  26.906   5.510  0.00  0.00    +0.211 HD
ENDBRANCH  13  22
BRANCH  15  24
ATOM     24  O   UNL     1     -36.793  27.537   2.520  0.00  0.00    -0.379 OA
ATOM     25  H   UNL     1     -36.360  27.967   3.274  0.00  0.00    +0.211 HD
ENDBRANCH  15  24
ENDBRANCH   1  14
BRANCH  10  26
ATOM     26  C   UNL     1     -34.059  18.783   0.903  0.00  0.00    +0.115 C 
BRANCH  26  27
ATOM     27  C   UNL     1     -32.587  18.845   0.609  0.00  0.00    -0.003 C 
ATOM     28  C   UNL     1     -31.758  17.813   1.031  0.00  0.00    -0.001 C 
ATOM     29  C   UNL     1     -32.069  19.935  -0.082  0.00  0.00    -0.001 C 
ATOM     30  C   UNL     1     -30.392  17.870   0.759  0.00  0.00    +0.014 C 
ATOM     31  C   UNL     1     -30.703  19.992  -0.355  0.00  0.00    +0.014 C 
ATOM     32  C   UNL     1     -29.864  18.960   0.065  0.00  0.00    +0.042 C 
BRANCH  32  33
ATOM     33  N   UNL     1     -28.482  19.018  -0.211  0.00  0.00    -0.357 N 
ATOM     34  H   UNL     1     -28.088  18.415  -0.881  0.00  0.00    +0.142 HD
ATOM     35  H   UNL     1     -27.911  19.662   0.268  0.00  0.00    +0.142 HD
ENDBRANCH  32  33
ENDBRANCH  26  27
ENDBRANCH  10  26
TORSDOF 7
ENDMDL
MODEL 2
REMARK VINA RESULT:      -7.0      5.660      8.287
REMARK  Name = 5310992
REMARK  7 active torsions:
REMARK  status: ('A' for Active; 'I' for Inactive)
REMARK    1  A    between atoms: N_1  and  C_12
REMARK    2  A    between atoms: C_11  and  O_20
REMARK    3  A    between atoms: C_13  and  O_22
REMARK    4  A    between atoms: C_14  and  C_17
REMARK    5  A    between atoms: N_24  and  C_26
REMARK    6  A    between atoms: C_26  and  C_27
REMARK    7  A    between atoms: C_32  and  N_33
REMARK                            x       y       z     vdW  Elec       q    Type
REMARK                         _______ _______ _______ _____ _____    ______ ____
ROOT
ATOM      1  N   UNL     1     -32.041  27.939   5.173  0.00  0.00    -0.247 N 
ATOM      2  N   UNL     1     -33.422  26.644   6.355  0.00  0.00    -0.242 NA
ATOM      3  N   UNL     1     -33.107  27.800   2.994  0.00  0.00    -0.228 NA
ATOM      4  N   UNL     1     -35.097  26.389   3.068  0.00  0.00    -0.228 NA
ATOM      5  C   UNL     1     -33.002  27.510   4.300  0.00  0.00    +0.152 C 
ATOM      6  C   UNL     1     -32.337  27.390   6.394  0.00  0.00    +0.223 C 
ATOM      7  C   UNL     1     -33.847  26.710   5.052  0.00  0.00    +0.140 C 
ATOM      8  C   UNL     1     -34.928  26.139   4.388  0.00  0.00    +0.146 C 
ATOM      9  C   UNL     1     -34.190  27.192   2.462  0.00  0.00    +0.253 C 
ATOM     10  N   UNL     1     -35.837  25.315   5.074  0.00  0.00    -0.313 N 
ATOM     11  H   UNL     1     -35.691  25.152   6.033  0.00  0.00    +0.149 HD
ENDROOT
BRANCH   1  14
ATOM     12  O   UNL     1     -29.744  28.022   4.554  0.00  0.00    -0.326 OA
ATOM     13  C   UNL     1     -30.524  29.745   6.021  0.00  0.00    +0.187 C 
ATOM     14  C   UNL     1     -30.907  28.815   4.873  0.00  0.00    +0.225 C 
ATOM     15  C   UNL     1     -29.331  29.042   6.637  0.00  0.00    +0.178 C 
ATOM     16  C   UNL     1     -28.674  28.412   5.425  0.00  0.00    +0.222 C 
BRANCH  16  19
ATOM     17  O   UNL     1     -27.663  26.322   4.895  0.00  0.00    -0.272 OA
ATOM     18  N   UNL     1     -27.631  27.066   7.100  0.00  0.00    -0.301 N 
ATOM     19  C   UNL     1     -27.933  27.159   5.753  0.00  0.00    +0.252 C 
ATOM     20  C   UNL     1     -26.938  25.939   7.680  0.00  0.00    +0.111 C 
ATOM     21  H   UNL     1     -27.901  27.804   7.693  0.00  0.00    +0.150 HD
ENDBRANCH  16  19
BRANCH  13  22
ATOM     22  O   UNL     1     -30.133  30.996   5.456  0.00  0.00    -0.378 OA
ATOM     23  H   UNL     1     -30.577  31.118   4.603  0.00  0.00    +0.211 HD
ENDBRANCH  13  22
BRANCH  15  24
ATOM     24  O   UNL     1     -28.473  29.939   7.312  0.00  0.00    -0.379 OA
ATOM     25  H   UNL     1     -28.888  30.815   7.354  0.00  0.00    +0.211 HD
ENDBRANCH  15  24
ENDBRANCH   1  14
BRANCH  10  26
ATOM     26  C   UNL     1     -36.967  24.702   4.441  0.00  0.00    +0.115 C 
BRANCH  26  27
ATOM     27  C   UNL     1     -36.603  23.411   3.768  0.00  0.00    -0.003 C 
ATOM     28  C   UNL     1     -35.740  22.524   4.401  0.00  0.00    -0.001 C 
ATOM     29  C   UNL     1     -37.133  23.114   2.517  0.00  0.00    -0.001 C 
ATOM     30  C   UNL     1     -35.402  21.325   3.776  0.00  0.00    +0.014 C 
ATOM     31  C   UNL     1     -36.795  21.914   1.892  0.00  0.00    +0.014 C 
ATOM     32  C   UNL     1     -35.930  21.019   2.521  0.00  0.00    +0.042 C 
BRANCH  32  33
ATOM     33  N   UNL     1     -35.588  19.805   1.889  0.00  0.00    -0.357 N 
ATOM     34  H   UNL     1     -34.651  19.506   1.871  0.00  0.00    +0.142 HD
ATOM     35  H   UNL     1     -36.287  19.257   1.465  0.00  0.00    +0.142 HD
ENDBRANCH  32  33
ENDBRANCH  26  27
ENDBRANCH  10  26
TORSDOF 7
ENDMDL
MODEL 3
REMARK VINA RESULT:      -6.9      2.041      3.472
REMARK  Name = 5310992
REMARK  7 active torsions:
REMARK  status: ('A' for Active; 'I' for Inactive)
REMARK    1  A    between atoms: N_1  and  C_12
REMARK    2  A    between atoms: C_11  and  O_20
REMARK    3  A    between atoms: C_13  and  O_22
REMARK    4  A    between atoms: C_14  and  C_17
REMARK    5  A    between atoms: N_24  and  C_26
REMARK    6  A    between atoms: C_26  and  C_27
REMARK    7  A    between atoms: C_32  and  N_33
REMARK                            x       y       z     vdW  Elec       q    Type
REMARK                         _______ _______ _______ _____ _____    ______ ____
ROOT
ATOM      1  N   UNL     1     -36.081  23.324   2.569  0.00  0.00    -0.247 N 
ATOM      2  N   UNL     1     -35.538  21.255   3.207  0.00  0.00    -0.242 NA
ATOM      3  N   UNL     1     -35.920  23.069   0.159  0.00  0.00    -0.228 NA
ATOM      4  N   UNL     1     -35.277  20.796  -0.453  0.00  0.00    -0.228 NA
ATOM      5  C   UNL     1     -35.845  22.621   1.421  0.00  0.00    +0.152 C 
ATOM      6  C   UNL     1     -35.882  22.460   3.615  0.00  0.00    +0.223 C 
ATOM      7  C   UNL     1     -35.511  21.343   1.838  0.00  0.00    +0.140 C 
ATOM      8  C   UNL     1     -35.220  20.413   0.844  0.00  0.00    +0.146 C 
ATOM      9  C   UNL     1     -35.618  22.081  -0.712  0.00  0.00    +0.253 C 
ATOM     10  N   UNL     1     -34.873  19.092   1.178  0.00  0.00    -0.313 N 
ATOM     11  H   UNL     1     -34.841  18.841   2.129  0.00  0.00    +0.149 HD
ENDROOT
BRANCH   1  14
ATOM     12  O   UNL     1     -35.304  25.575   2.554  0.00  0.00    -0.326 OA
ATOM     13  C   UNL     1     -37.153  25.086   3.993  0.00  0.00    +0.187 C 
ATOM     14  C   UNL     1     -36.470  24.731   2.675  0.00  0.00    +0.225 C 
ATOM     15  C   UNL     1     -36.034  25.728   4.789  0.00  0.00    +0.178 C 
ATOM     16  C   UNL     1     -35.236  26.426   3.706  0.00  0.00    +0.222 C 
BRANCH  16  19
ATOM     17  O   UNL     1     -32.961  25.722   3.659  0.00  0.00    -0.272 OA
ATOM     18  N   UNL     1     -33.523  27.655   4.828  0.00  0.00    -0.301 N 
ATOM     19  C   UNL     1     -33.787  26.548   4.041  0.00  0.00    +0.252 C 
ATOM     20  C   UNL     1     -32.201  27.987   5.309  0.00  0.00    +0.111 C 
ATOM     21  H   UNL     1     -34.271  28.246   5.072  0.00  0.00    +0.150 HD
ENDBRANCH  16  19
BRANCH  13  22
ATOM     22  O   UNL     1     -38.178  26.039   3.710  0.00  0.00    -0.378 OA
ATOM     23  H   UNL     1     -37.806  26.933   3.745  0.00  0.00    +0.211 HD
ENDBRANCH  13  22
BRANCH  15  24
ATOM     24  O   UNL     1     -36.520  26.626   5.766  0.00  0.00    -0.379 OA
ATOM     25  H   UNL     1     -37.455  26.819   5.592  0.00  0.00    +0.211 HD
ENDBRANCH  15  24
ENDBRANCH   1  14
BRANCH  10  26
ATOM     26  C   UNL     1     -34.564  18.095   0.197  0.00  0.00    +0.115 C 
BRANCH  26  27
ATOM     27  C   UNL     1     -33.120  17.686   0.245  0.00  0.00    -0.003 C 
ATOM     28  C   UNL     1     -32.691  16.588  -0.491  0.00  0.00    -0.001 C 
ATOM     29  C   UNL     1     -32.227  18.410   1.026  0.00  0.00    -0.001 C 
ATOM     30  C   UNL     1     -31.350  16.208  -0.446  0.00  0.00    +0.014 C 
ATOM     31  C   UNL     1     -30.886  18.031   1.071  0.00  0.00    +0.014 C 
ATOM     32  C   UNL     1     -30.446  16.930   0.335  0.00  0.00    +0.042 C 
BRANCH  32  33
ATOM     33  N   UNL     1     -29.091  16.546   0.380  0.00  0.00    -0.357 N 
ATOM     34  H   UNL     1     -28.693  16.243   1.227  0.00  0.00    +0.142 HD
ATOM     35  H   UNL     1     -28.542  16.581  -0.437  0.00  0.00    +0.142 HD
ENDBRANCH  32  33
ENDBRANCH  26  27
ENDBRANCH  10  26
TORSDOF 7
ENDMDL
MODEL 4
REMARK VINA RESULT:      -6.8      6.079     10.920
REMARK  Name = 5310992
REMARK  7 active torsions:
REMARK  status: ('A' for Active; 'I' for Inactive)
REMARK    1  A    between atoms: N_1  and  C_12
REMARK    2  A    between atoms: C_11  and  O_20
REMARK    3  A    between atoms: C_13  and  O_22
REMARK    4  A    between atoms: C_14  and  C_17
REMARK    5  A    between atoms: N_24  and  C_26
REMARK    6  A    between atoms: C_26  and  C_27
REMARK    7  A    between atoms: C_32  and  N_33
REMARK                            x       y       z     vdW  Elec       q    Type
REMARK                         _______ _______ _______ _____ _____    ______ ____
ROOT
ATOM      1  N   UNL     1     -35.459  27.721   2.306  0.00  0.00    -0.247 N 
ATOM      2  N   UNL     1     -36.878  28.990   1.140  0.00  0.00    -0.242 NA
ATOM      3  N   UNL     1     -34.016  29.447   3.221  0.00  0.00    -0.228 NA
ATOM      4  N   UNL     1     -34.722  31.669   2.501  0.00  0.00    -0.228 NA
ATOM      5  C   UNL     1     -35.054  29.013   2.491  0.00  0.00    +0.152 C 
ATOM      6  C   UNL     1     -36.558  27.760   1.486  0.00  0.00    +0.223 C 
ATOM      7  C   UNL     1     -35.945  29.783   1.761  0.00  0.00    +0.140 C 
ATOM      8  C   UNL     1     -35.751  31.160   1.782  0.00  0.00    +0.146 C 
ATOM      9  C   UNL     1     -33.930  30.794   3.165  0.00  0.00    +0.253 C 
ATOM     10  N   UNL     1     -36.609  32.017   1.071  0.00  0.00    -0.313 N 
ATOM     11  H   UNL     1     -37.350  31.620   0.559  0.00  0.00    +0.149 HD
ENDROOT
BRANCH   1  14
ATOM     12  O   UNL     1     -35.627  25.355   2.517  0.00  0.00    -0.326 OA
ATOM     13  C   UNL     1     -34.724  26.539   4.390  0.00  0.00    +0.187 C 
ATOM     14  C   UNL     1     -34.846  26.517   2.869  0.00  0.00    +0.225 C 
ATOM     15  C   UNL     1     -35.898  25.688   4.833  0.00  0.00    +0.178 C 
ATOM     16  C   UNL     1     -35.983  24.663   3.721  0.00  0.00    +0.222 C 
BRANCH  16  19
ATOM     17  O   UNL     1     -37.598  22.963   3.301  0.00  0.00    -0.272 OA
ATOM     18  N   UNL     1     -38.312  25.165   3.548  0.00  0.00    -0.301 N 
ATOM     19  C   UNL     1     -37.369  24.153   3.507  0.00  0.00    +0.252 C 
ATOM     20  C   UNL     1     -39.725  24.939   3.347  0.00  0.00    +0.111 C 
ATOM     21  H   UNL     1     -38.006  26.084   3.722  0.00  0.00    +0.150 HD
ENDBRANCH  16  19
BRANCH  13  22
ATOM     22  O   UNL     1     -33.490  25.910   4.737  0.00  0.00    -0.378 OA
ATOM     23  H   UNL     1     -33.165  25.397   3.982  0.00  0.00    +0.211 HD
ENDBRANCH  13  22
BRANCH  15  24
ATOM     24  O   UNL     1     -35.682  25.098   6.098  0.00  0.00    -0.379 OA
ATOM     25  H   UNL     1     -34.940  25.539   6.540  0.00  0.00    +0.211 HD
ENDBRANCH  15  24
ENDBRANCH   1  14
BRANCH  10  26
ATOM     26  C   UNL     1     -36.456  33.441   1.058  0.00  0.00    +0.115 C 
BRANCH  26  27
ATOM     27  C   UNL     1     -37.741  34.148   1.381  0.00  0.00    -0.003 C 
ATOM     28  C   UNL     1     -38.945  33.460   1.293  0.00  0.00    -0.001 C 
ATOM     29  C   UNL     1     -37.713  35.485   1.764  0.00  0.00    -0.001 C 
ATOM     30  C   UNL     1     -40.138  34.116   1.593  0.00  0.00    +0.014 C 
ATOM     31  C   UNL     1     -38.906  36.141   2.064  0.00  0.00    +0.014 C 
ATOM     32  C   UNL     1     -40.119  35.457   1.979  0.00  0.00    +0.042 C 
BRANCH  32  33
ATOM     33  N   UNL     1     -41.326  36.121   2.282  0.00  0.00    -0.357 N 
ATOM     34  H   UNL     1     -42.079  35.620   2.669  0.00  0.00    +0.142 HD
ATOM     35  H   UNL     1     -41.415  37.086   2.106  0.00  0.00    +0.142 HD
ENDBRANCH  32  33
ENDBRANCH  26  27
ENDBRANCH  10  26
TORSDOF 7
ENDMDL
MODEL 5
REMARK VINA RESULT:      -6.8      4.455      9.972
REMARK  Name = 5310992
REMARK  7 active torsions:
REMARK  status: ('A' for Active; 'I' for Inactive)
REMARK    1  A    between atoms: N_1  and  C_12
REMARK    2  A    between atoms: C_11  and  O_20
REMARK    3  A    between atoms: C_13  and  O_22
REMARK    4  A    between atoms: C_14  and  C_17
REMARK    5  A    between atoms: N_24  and  C_26
REMARK    6  A    between atoms: C_26  and  C_27
REMARK    7  A    between atoms: C_32  and  N_33
REMARK                            x       y       z     vdW  Elec       q    Type
REMARK                         _______ _______ _______ _____ _____    ______ ____
ROOT
ATOM      1  N   UNL     1     -38.809  24.730   1.777  0.00  0.00    -0.247 N 
ATOM      2  N   UNL     1     -40.497  23.285   1.568  0.00  0.00    -0.242 NA
ATOM      3  N   UNL     1     -39.997  26.813   1.389  0.00  0.00    -0.228 NA
ATOM      4  N   UNL     1     -42.368  26.418   0.971  0.00  0.00    -0.228 NA
ATOM      5  C   UNL     1     -39.920  25.479   1.508  0.00  0.00    +0.152 C 
ATOM      6  C   UNL     1     -39.207  23.418   1.802  0.00  0.00    +0.223 C 
ATOM      7  C   UNL     1     -40.954  24.566   1.382  0.00  0.00    +0.140 C 
ATOM      8  C   UNL     1     -42.217  25.079   1.103  0.00  0.00    +0.146 C 
ATOM      9  C   UNL     1     -41.266  27.190   1.120  0.00  0.00    +0.253 C 
ATOM     10  N   UNL     1     -43.323  24.224   0.960  0.00  0.00    -0.313 N 
ATOM     11  H   UNL     1     -43.185  23.255   1.063  0.00  0.00    +0.149 HD
ENDROOT
BRANCH   1  14
ATOM     12  O   UNL     1     -36.559  24.113   2.251  0.00  0.00    -0.326 OA
ATOM     13  C   UNL     1     -37.322  26.184   3.176  0.00  0.00    +0.187 C 
ATOM     14  C   UNL     1     -37.448  25.222   1.998  0.00  0.00    +0.225 C 
ATOM     15  C   UNL     1     -36.773  25.297   4.276  0.00  0.00    +0.178 C 
ATOM     16  C   UNL     1     -35.893  24.339   3.500  0.00  0.00    +0.222 C 
BRANCH  16  19
ATOM     17  O   UNL     1     -35.769  21.960   3.498  0.00  0.00    -0.272 OA
ATOM     18  N   UNL     1     -35.707  23.095   5.530  0.00  0.00    -0.301 N 
ATOM     19  C   UNL     1     -35.776  23.001   4.151  0.00  0.00    +0.252 C 
ATOM     20  C   UNL     1     -35.614  21.943   6.397  0.00  0.00    +0.111 C 
ATOM     21  H   UNL     1     -35.723  23.989   5.941  0.00  0.00    +0.150 HD
ENDBRANCH  16  19
BRANCH  13  22
ATOM     22  O   UNL     1     -36.371  27.187   2.819  0.00  0.00    -0.378 OA
ATOM     23  H   UNL     1     -35.486  26.794   2.782  0.00  0.00    +0.211 HD
ENDBRANCH  13  22
BRANCH  15  24
ATOM     24  O   UNL     1     -36.052  26.031   5.244  0.00  0.00    -0.379 OA
ATOM     25  H   UNL     1     -36.565  26.812   5.506  0.00  0.00    +0.211 HD
ENDBRANCH  15  24
ENDBRANCH   1  14
BRANCH  10  26
ATOM     26  C   UNL     1     -44.645  24.698   0.673  0.00  0.00    +0.115 C 
BRANCH  26  27
ATOM     27  C   UNL     1     -45.554  24.584   1.863  0.00  0.00    -0.003 C 
ATOM     28  C   UNL     1     -45.425  25.483   2.915  0.00  0.00    -0.001 C 
ATOM     29  C   UNL     1     -46.515  23.580   1.900  0.00  0.00    -0.001 C 
ATOM     30  C   UNL     1     -46.270  25.377   4.019  0.00  0.00    +0.014 C 
ATOM     31  C   UNL     1     -47.360  23.474   3.004  0.00  0.00    +0.014 C 
ATOM     32  C   UNL     1     -47.238  24.373   4.064  0.00  0.00    +0.042 C 
BRANCH  32  33
ATOM     33  N   UNL     1     -48.092  24.266   5.181  0.00  0.00    -0.357 N 
ATOM     34  H   UNL     1     -48.220  23.396   5.622  0.00  0.00    +0.142 HD
ATOM     35  H   UNL     1     -48.559  25.064   5.521  0.00  0.00    +0.142 HD
ENDBRANCH  32  33
ENDBRANCH  26  27
ENDBRANCH  10  26
TORSDOF 7
ENDMDL
MODEL 6
REMARK VINA RESULT:      -6.8      6.170     11.144
REMARK  Name = 5310992
REMARK  7 active torsions:
REMARK  status: ('A' for Active; 'I' for Inactive)
REMARK    1  A    between atoms: N_1  and  C_12
REMARK    2  A    between atoms: C_11  and  O_20
REMARK    3  A    between atoms: C_13  and  O_22
REMARK    4  A    between atoms: C_14  and  C_17
REMARK    5  A    between atoms: N_24  and  C_26
REMARK    6  A    between atoms: C_26  and  C_27
REMARK    7  A    between atoms: C_32  and  N_33
REMARK                            x       y       z     vdW  Elec       q    Type
REMARK                         _______ _______ _______ _____ _____    ______ ____
ROOT
ATOM      1  N   UNL     1     -34.954  28.650   2.359  0.00  0.00    -0.247 N 
ATOM      2  N   UNL     1     -35.103  30.869   2.549  0.00  0.00    -0.242 NA
ATOM      3  N   UNL     1     -36.765  28.247   0.790  0.00  0.00    -0.228 NA
ATOM      4  N   UNL     1     -37.871  30.328   0.157  0.00  0.00    -0.228 NA
ATOM      5  C   UNL     1     -35.987  29.033   1.550  0.00  0.00    +0.152 C 
ATOM      6  C   UNL     1     -34.456  29.790   2.938  0.00  0.00    +0.223 C 
ATOM      7  C   UNL     1     -36.062  30.411   1.681  0.00  0.00    +0.140 C 
ATOM      8  C   UNL     1     -37.050  31.060   0.947  0.00  0.00    +0.146 C 
ATOM      9  C   UNL     1     -37.680  28.988   0.128  0.00  0.00    +0.253 C 
ATOM     10  N   UNL     1     -37.197  32.456   1.020  0.00  0.00    -0.313 N 
ATOM     11  H   UNL     1     -36.585  32.963   1.600  0.00  0.00    +0.149 HD
ENDROOT
BRANCH   1  14
ATOM     12  O   UNL     1     -35.525  26.339   2.329  0.00  0.00    -0.326 OA
ATOM     13  C   UNL     1     -33.948  27.035   3.989  0.00  0.00    +0.187 C 
ATOM     14  C   UNL     1     -34.465  27.288   2.576  0.00  0.00    +0.225 C 
ATOM     15  C   UNL     1     -35.108  26.316   4.647  0.00  0.00    +0.178 C 
ATOM     16  C   UNL     1     -35.682  25.519   3.494  0.00  0.00    +0.222 C 
BRANCH  16  19
ATOM     17  O   UNL     1     -37.593  24.364   4.325  0.00  0.00    -0.272 OA
ATOM     18  N   UNL     1     -37.899  26.162   2.878  0.00  0.00    -0.301 N 
ATOM     19  C   UNL     1     -37.149  25.275   3.630  0.00  0.00    +0.252 C 
ATOM     20  C   UNL     1     -39.342  26.124   2.818  0.00  0.00    +0.111 C 
ATOM     21  H   UNL     1     -37.427  26.852   2.359  0.00  0.00    +0.150 HD
ENDBRANCH  16  19
BRANCH  13  22
ATOM     22  O   UNL     1     -32.815  26.171   3.890  0.00  0.00    -0.378 OA
ATOM     23  H   UNL     1     -32.260  26.275   4.678  0.00  0.00    +0.211 HD
ENDBRANCH  13  22
BRANCH  15  24
ATOM     24  O   UNL     1     -34.690  25.495   5.719  0.00  0.00    -0.379 OA
ATOM     25  H   UNL     1     -33.885  25.863   6.114  0.00  0.00    +0.211 HD
ENDBRANCH  15  24
ENDBRANCH   1  14
BRANCH  10  26
ATOM     26  C   UNL     1     -38.195  33.176   0.286  0.00  0.00    +0.115 C 
BRANCH  26  27
ATOM     27  C   UNL     1     -39.073  33.996   1.186  0.00  0.00    -0.003 C 
ATOM     28  C   UNL     1     -38.495  34.866   2.103  0.00  0.00    -0.001 C 
ATOM     29  C   UNL     1     -40.455  33.877   1.093  0.00  0.00    -0.001 C 
ATOM     30  C   UNL     1     -39.311  35.628   2.939  0.00  0.00    +0.014 C 
ATOM     31  C   UNL     1     -41.270  34.639   1.928  0.00  0.00    +0.014 C 
ATOM     32  C   UNL     1     -40.699  35.516   2.852  0.00  0.00    +0.042 C 
BRANCH  32  33
ATOM     33  N   UNL     1     -41.523  36.286   3.697  0.00  0.00    -0.357 N 
ATOM     34  H   UNL     1     -42.383  36.631   3.366  0.00  0.00    +0.142 HD
ATOM     35  H   UNL     1     -41.238  36.479   4.620  0.00  0.00    +0.142 HD
ENDBRANCH  32  33
ENDBRANCH  26  27
ENDBRANCH  10  26
TORSDOF 7
ENDMDL
MODEL 7
REMARK VINA RESULT:      -6.7      2.824      4.658
REMARK  Name = 5310992
REMARK  7 active torsions:
REMARK  status: ('A' for Active; 'I' for Inactive)
REMARK    1  A    between atoms: N_1  and  C_12
REMARK    2  A    between atoms: C_11  and  O_20
REMARK    3  A    between atoms: C_13  and  O_22
REMARK    4  A    between atoms: C_14  and  C_17
REMARK    5  A    between atoms: N_24  and  C_26
REMARK    6  A    between atoms: C_26  and  C_27
REMARK    7  A    between atoms: C_32  and  N_33
REMARK                            x       y       z     vdW  Elec       q    Type
REMARK                         _______ _______ _______ _____ _____    ______ ____
ROOT
ATOM      1  N   UNL     1     -35.898  23.294   2.596  0.00  0.00    -0.247 N 
ATOM      2  N   UNL     1     -35.570  21.173   3.212  0.00  0.00    -0.242 NA
ATOM      3  N   UNL     1     -34.985  23.217   0.347  0.00  0.00    -0.228 NA
ATOM      4  N   UNL     1     -34.166  20.986  -0.205  0.00  0.00    -0.228 NA
ATOM      5  C   UNL     1     -35.308  22.675   1.530  0.00  0.00    +0.152 C 
ATOM      6  C   UNL     1     -36.033  22.349   3.582  0.00  0.00    +0.223 C 
ATOM      7  C   UNL     1     -35.114  21.363   1.931  0.00  0.00    +0.140 C 
ATOM      8  C   UNL     1     -34.518  20.505   1.012  0.00  0.00    +0.146 C 
ATOM      9  C   UNL     1     -34.417  22.292  -0.458  0.00  0.00    +0.253 C 
ATOM     10  N   UNL     1     -34.285  19.157   1.334  0.00  0.00    -0.313 N 
ATOM     11  H   UNL     1     -34.553  18.834   2.225  0.00  0.00    +0.149 HD
ENDROOT
BRANCH   1  14
ATOM     12  O   UNL     1     -35.152  25.554   2.609  0.00  0.00    -0.326 OA
ATOM     13  C   UNL     1     -37.053  25.043   3.969  0.00  0.00    +0.187 C 
ATOM     14  C   UNL     1     -36.310  24.695   2.683  0.00  0.00    +0.225 C 
ATOM     15  C   UNL     1     -35.978  25.702   4.810  0.00  0.00    +0.178 C 
ATOM     16  C   UNL     1     -35.144  26.408   3.761  0.00  0.00    +0.222 C 
BRANCH  16  19
ATOM     17  O   UNL     1     -32.855  25.753   3.788  0.00  0.00    -0.272 OA
ATOM     18  N   UNL     1     -33.504  27.642   4.982  0.00  0.00    -0.301 N 
ATOM     19  C   UNL     1     -33.712  26.551   4.158  0.00  0.00    +0.252 C 
ATOM     20  C   UNL     1     -32.210  27.988   5.525  0.00  0.00    +0.111 C 
ATOM     21  H   UNL     1     -34.274  28.211   5.210  0.00  0.00    +0.150 HD
ENDBRANCH  16  19
BRANCH  13  22
ATOM     22  O   UNL     1     -38.078  25.981   3.640  0.00  0.00    -0.378 OA
ATOM     23  H   UNL     1     -38.628  26.146   4.422  0.00  0.00    +0.211 HD
ENDBRANCH  13  22
BRANCH  15  24
ATOM     24  O   UNL     1     -36.518  26.594   5.764  0.00  0.00    -0.379 OA
ATOM     25  H   UNL     1     -35.827  27.207   6.062  0.00  0.00    +0.211 HD
ENDBRANCH  15  24
ENDBRANCH   1  14
BRANCH  10  26
ATOM     26  C   UNL     1     -33.676  18.231   0.427  0.00  0.00    +0.115 C 
BRANCH  26  27
ATOM     27  C   UNL     1     -34.656  17.211  -0.077  0.00  0.00    -0.003 C 
ATOM     28  C   UNL     1     -35.948  17.604  -0.409  0.00  0.00    -0.001 C 
ATOM     29  C   UNL     1     -34.262  15.884  -0.208  0.00  0.00    -0.001 C 
ATOM     30  C   UNL     1     -36.858  16.657  -0.877  0.00  0.00    +0.014 C 
ATOM     31  C   UNL     1     -35.172  14.937  -0.677  0.00  0.00    +0.014 C 
ATOM     32  C   UNL     1     -36.470  15.323  -1.012  0.00  0.00    +0.042 C 
BRANCH  32  33
ATOM     33  N   UNL     1     -37.390  14.365  -1.486  0.00  0.00    -0.357 N 
ATOM     34  H   UNL     1     -38.039  13.958  -0.868  0.00  0.00    +0.142 HD
ATOM     35  H   UNL     1     -37.385  14.105  -2.436  0.00  0.00    +0.142 HD
ENDBRANCH  32  33
ENDBRANCH  26  27
ENDBRANCH  10  26
TORSDOF 7
ENDMDL
MODEL 8
REMARK VINA RESULT:      -6.6      1.904      2.850
REMARK  Name = 5310992
REMARK  7 active torsions:
REMARK  status: ('A' for Active; 'I' for Inactive)
REMARK    1  A    between atoms: N_1  and  C_12
REMARK    2  A    between atoms: C_11  and  O_20
REMARK    3  A    between atoms: C_13  and  O_22
REMARK    4  A    between atoms: C_14  and  C_17
REMARK    5  A    between atoms: N_24  and  C_26
REMARK    6  A    between atoms: C_26  and  C_27
REMARK    7  A    between atoms: C_32  and  N_33
REMARK                            x       y       z     vdW  Elec       q    Type
REMARK                         _______ _______ _______ _____ _____    ______ ____
ROOT
ATOM      1  N   UNL     1     -38.481  23.157   2.113  0.00  0.00    -0.247 N 
ATOM      2  N   UNL     1     -37.670  21.673   0.656  0.00  0.00    -0.242 NA
ATOM      3  N   UNL     1     -36.859  22.908   3.904  0.00  0.00    -0.228 NA
ATOM      4  N   UNL     1     -35.165  21.244   3.343  0.00  0.00    -0.228 NA
ATOM      5  C   UNL     1     -37.371  22.617   2.699  0.00  0.00    +0.152 C 
ATOM      6  C   UNL     1     -38.619  22.557   0.887  0.00  0.00    +0.223 C 
ATOM      7  C   UNL     1     -36.883  21.701   1.781  0.00  0.00    +0.140 C 
ATOM      8  C   UNL     1     -35.736  21.000   2.139  0.00  0.00    +0.146 C 
ATOM      9  C   UNL     1     -35.753  22.169   4.138  0.00  0.00    +0.253 C 
ATOM     10  N   UNL     1     -35.172  20.052   1.268  0.00  0.00    -0.313 N 
ATOM     11  H   UNL     1     -35.607  19.897   0.398  0.00  0.00    +0.149 HD
ENDROOT
BRANCH   1  14
ATOM     12  O   UNL     1     -40.712  23.983   2.200  0.00  0.00    -0.326 OA
ATOM     13  C   UNL     1     -38.959  25.609   2.319  0.00  0.00    +0.187 C 
ATOM     14  C   UNL     1     -39.363  24.181   2.676  0.00  0.00    +0.225 C 
ATOM     15  C   UNL     1     -39.909  25.953   1.188  0.00  0.00    +0.178 C 
ATOM     16  C   UNL     1     -41.161  25.198   1.585  0.00  0.00    +0.222 C 
BRANCH  16  19
ATOM     17  O   UNL     1     -42.951  24.034   0.530  0.00  0.00    -0.272 OA
ATOM     18  N   UNL     1     -41.515  25.321  -0.774  0.00  0.00    -0.301 N 
ATOM     19  C   UNL     1     -41.985  24.785   0.412  0.00  0.00    +0.252 C 
ATOM     20  C   UNL     1     -42.122  25.056  -2.058  0.00  0.00    +0.111 C 
ATOM     21  H   UNL     1     -40.729  25.912  -0.741  0.00  0.00    +0.150 HD
ENDBRANCH  16  19
BRANCH  13  22
ATOM     22  O   UNL     1     -39.216  26.431   3.457  0.00  0.00    -0.378 OA
ATOM     23  H   UNL     1     -38.649  26.152   4.192  0.00  0.00    +0.211 HD
ENDBRANCH  13  22
BRANCH  15  24
ATOM     24  O   UNL     1     -40.127  27.345   1.079  0.00  0.00    -0.379 OA
ATOM     25  H   UNL     1     -39.491  27.817   1.639  0.00  0.00    +0.211 HD
ENDBRANCH  15  24
ENDBRANCH   1  14
BRANCH  10  26
ATOM     26  C   UNL     1     -33.992  19.304   1.585  0.00  0.00    +0.115 C 
BRANCH  26  27
ATOM     27  C   UNL     1     -32.811  19.743   0.769  0.00  0.00    -0.003 C 
ATOM     28  C   UNL     1     -31.696  18.918   0.674  0.00  0.00    -0.001 C 
ATOM     29  C   UNL     1     -32.844  20.971   0.117  0.00  0.00    -0.001 C 
ATOM     30  C   UNL     1     -30.599  19.326  -0.084  0.00  0.00    +0.014 C 
ATOM     31  C   UNL     1     -31.747  21.378  -0.641  0.00  0.00    +0.014 C 
ATOM     32  C   UNL     1     -30.624  20.557  -0.742  0.00  0.00    +0.042 C 
BRANCH  32  33
ATOM     33  N   UNL     1     -29.514  20.969  -1.508  0.00  0.00    -0.357 N 
ATOM     34  H   UNL     1     -29.633  21.219  -2.452  0.00  0.00    +0.142 HD
ATOM     35  H   UNL     1     -28.620  21.007  -1.098  0.00  0.00    +0.142 HD
ENDBRANCH  32  33
ENDBRANCH  26  27
ENDBRANCH  10  26
TORSDOF 7
ENDMDL
MODEL 9
REMARK VINA RESULT:      -6.6      6.884     11.988
REMARK  Name = 5310992
REMARK  7 active torsions:
REMARK  status: ('A' for Active; 'I' for Inactive)
REMARK    1  A    between atoms: N_1  and  C_12
REMARK    2  A    between atoms: C_11  and  O_20
REMARK    3  A    between atoms: C_13  and  O_22
REMARK    4  A    between atoms: C_14  and  C_17
REMARK    5  A    between atoms: N_24  and  C_26
REMARK    6  A    between atoms: C_26  and  C_27
REMARK    7  A    between atoms: C_32  and  N_33
REMARK                            x       y       z     vdW  Elec       q    Type
REMARK                         _______ _______ _______ _____ _____    ______ ____
ROOT
ATOM      1  N   UNL     1     -34.960  29.151   2.404  0.00  0.00    -0.247 N 
ATOM      2  N   UNL     1     -34.817  31.371   2.582  0.00  0.00    -0.242 NA
ATOM      3  N   UNL     1     -36.871  28.978   0.915  0.00  0.00    -0.228 NA
ATOM      4  N   UNL     1     -37.730  31.181   0.312  0.00  0.00    -0.228 NA
ATOM      5  C   UNL     1     -35.969  29.660   1.635  0.00  0.00    +0.152 C 
ATOM      6  C   UNL     1     -34.297  30.219   2.953  0.00  0.00    +0.223 C 
ATOM      7  C   UNL     1     -35.863  31.036   1.759  0.00  0.00    +0.140 C 
ATOM      8  C   UNL     1     -36.790  31.804   1.061  0.00  0.00    +0.146 C 
ATOM      9  C   UNL     1     -37.713  29.827   0.285  0.00  0.00    +0.253 C 
ATOM     10  N   UNL     1     -36.755  33.208   1.129  0.00  0.00    -0.313 N 
ATOM     11  H   UNL     1     -36.060  33.634   1.680  0.00  0.00    +0.149 HD
ENDROOT
BRANCH   1  14
ATOM     12  O   UNL     1     -34.585  27.447   4.024  0.00  0.00    -0.326 OA
ATOM     13  C   UNL     1     -33.303  27.313   2.008  0.00  0.00    +0.187 C 
ATOM     14  C   UNL     1     -34.639  27.738   2.611  0.00  0.00    +0.225 C 
ATOM     15  C   UNL     1     -32.379  27.308   3.209  0.00  0.00    +0.178 C 
ATOM     16  C   UNL     1     -33.309  26.866   4.322  0.00  0.00    +0.222 C 
BRANCH  16  19
ATOM     17  O   UNL     1     -33.260  26.862   6.703  0.00  0.00    -0.272 OA
ATOM     18  N   UNL     1     -32.156  28.558   5.553  0.00  0.00    -0.301 N 
ATOM     19  C   UNL     1     -32.913  27.404   5.656  0.00  0.00    +0.252 C 
ATOM     20  C   UNL     1     -31.667  29.288   6.699  0.00  0.00    +0.111 C 
ATOM     21  H   UNL     1     -31.941  28.898   4.654  0.00  0.00    +0.150 HD
ENDBRANCH  16  19
BRANCH  13  22
ATOM     22  O   UNL     1     -33.460  25.992   1.490  0.00  0.00    -0.378 OA
ATOM     23  H   UNL     1     -32.599  25.546   1.478  0.00  0.00    +0.211 HD
ENDBRANCH  13  22
BRANCH  15  24
ATOM     24  O   UNL     1     -31.285  26.430   3.038  0.00  0.00    -0.379 OA
ATOM     25  H   UNL     1     -31.333  26.019   2.161  0.00  0.00    +0.211 HD
ENDBRANCH  15  24
ENDBRANCH   1  14
BRANCH  10  26
ATOM     26  C   UNL     1     -37.684  34.046   0.431  0.00  0.00    +0.115 C 
BRANCH  26  27
ATOM     27  C   UNL     1     -38.768  34.558   1.335  0.00  0.00    -0.003 C 
ATOM     28  C   UNL     1     -38.446  35.425   2.373  0.00  0.00    -0.001 C 
ATOM     29  C   UNL     1     -40.084  34.160   1.125  0.00  0.00    -0.001 C 
ATOM     30  C   UNL     1     -39.453  35.900   3.212  0.00  0.00    +0.014 C 
ATOM     31  C   UNL     1     -41.091  34.635   1.964  0.00  0.00    +0.014 C 
ATOM     32  C   UNL     1     -40.777  35.506   3.007  0.00  0.00    +0.042 C 
BRANCH  32  33
ATOM     33  N   UNL     1     -41.795  35.987   3.856  0.00  0.00    -0.357 N 
ATOM     34  H   UNL     1     -42.181  36.879   3.706  0.00  0.00    +0.142 HD
ATOM     35  H   UNL     1     -42.120  35.428   4.600  0.00  0.00    +0.142 HD
ENDBRANCH  32  33
ENDBRANCH  26  27
ENDBRANCH  10  26
TORSDOF 7
ENDMDL
