MODEL 1
REMARK VINA RESULT:      -6.3      0.000      0.000
REMARK  Name = 5325
REMARK  3 active torsions:
REMARK  status: ('A' for Active; 'I' for Inactive)
REMARK    1  A    between atoms: S_1  and  N_4
REMARK    2  A    between atoms: S_1  and  C_13
REMARK    3  A    between atoms: C_16  and  N_19
REMARK                            x       y       z     vdW  Elec       q    Type
REMARK                         _______ _______ _______ _____ _____    ______ ____
ROOT
ATOM      1  S   UNL     1     -33.706  27.011   4.024  0.00  0.00    +0.082 S 
ATOM      2  O   UNL     1     -34.826  27.908   3.763  0.00  0.00    -0.149 OA
ATOM      3  O   UNL     1     -32.584  26.998   3.092  0.00  0.00    -0.149 OA
ENDROOT
BRANCH   1   4
ATOM      4  N   UNL     1     -33.129  27.326   5.617  0.00  0.00    -0.148 N 
ATOM      5  N   UNL     1     -30.879  27.739   6.193  0.00  0.00    -0.341 NA
ATOM      6  N   UNL     1     -32.315  29.537   5.478  0.00  0.00    -0.169 NA
ATOM      7  C   UNL     1     -32.043  28.257   5.772  0.00  0.00    +0.164 C 
ATOM      8  C   UNL     1     -29.882  28.638   6.328  0.00  0.00    +0.124 C 
ATOM      9  C   UNL     1     -30.023  29.985   6.060  0.00  0.00    +0.050 C 
ATOM     10  C   UNL     1     -31.274  30.381   5.634  0.00  0.00    +0.114 C 
ATOM     11  C   UNL     1     -28.565  28.115   6.795  0.00  0.00    +0.067 C 
ATOM     12  H   UNL     1     -33.531  26.883   6.399  0.00  0.00    +0.187 HD
ENDBRANCH   1   4
BRANCH   1  13
ATOM     13  C   UNL     1     -34.341  25.391   4.157  0.00  0.00    +0.126 C 
ATOM     14  C   UNL     1     -34.601  24.844   5.413  0.00  0.00    +0.021 C 
ATOM     15  C   UNL     1     -34.589  24.642   3.006  0.00  0.00    +0.021 C 
ATOM     16  C   UNL     1     -35.357  22.801   4.369  0.00  0.00    +0.042 C 
ATOM     17  C   UNL     1     -35.109  23.549   5.520  0.00  0.00    +0.015 C 
ATOM     18  C   UNL     1     -35.098  23.347   3.112  0.00  0.00    +0.015 C 
BRANCH  16  19
ATOM     19  N   UNL     1     -35.872  21.492   4.476  0.00  0.00    -0.357 N 
ATOM     20  H   UNL     1     -36.806  21.310   4.228  0.00  0.00    +0.142 HD
ATOM     21  H   UNL     1     -35.297  20.762   4.800  0.00  0.00    +0.142 HD
ENDBRANCH  16  19
ENDBRANCH   1  13
TORSDOF 3
ENDMDL
MODEL 2
REMARK VINA RESULT:      -5.9      4.222      5.719
REMARK  Name = 5325
REMARK  3 active torsions:
REMARK  status: ('A' for Active; 'I' for Inactive)
REMARK    1  A    between atoms: S_1  and  N_4
REMARK    2  A    between atoms: S_1  and  C_13
REMARK    3  A    between atoms: C_16  and  N_19
REMARK                            x       y       z     vdW  Elec       q    Type
REMARK                         _______ _______ _______ _____ _____    ______ ____
ROOT
ATOM      1  S   UNL     1     -38.309  26.050   2.427  0.00  0.00    +0.082 S 
ATOM      2  O   UNL     1     -39.694  26.506   2.416  0.00  0.00    -0.149 OA
ATOM      3  O   UNL     1     -37.329  26.759   1.611  0.00  0.00    -0.149 OA
ENDROOT
BRANCH   1   4
ATOM      4  N   UNL     1     -37.773  26.007   4.064  0.00  0.00    -0.148 N 
ATOM      5  N   UNL     1     -36.584  24.231   5.061  0.00  0.00    -0.341 NA
ATOM      6  N   UNL     1     -35.422  25.974   3.870  0.00  0.00    -0.169 NA
ATOM      7  C   UNL     1     -36.517  25.366   4.349  0.00  0.00    +0.164 C 
ATOM      8  C   UNL     1     -35.389  23.656   5.311  0.00  0.00    +0.124 C 
ATOM      9  C   UNL     1     -34.184  24.172   4.879  0.00  0.00    +0.050 C 
ATOM     10  C   UNL     1     -34.262  25.345   4.156  0.00  0.00    +0.114 C 
ATOM     11  C   UNL     1     -35.406  22.390   6.101  0.00  0.00    +0.067 C 
ATOM     12  H   UNL     1     -38.310  26.411   4.784  0.00  0.00    +0.187 HD
ENDBRANCH   1   4
BRANCH   1  13
ATOM     13  C   UNL     1     -38.300  24.365   1.973  0.00  0.00    +0.126 C 
ATOM     14  C   UNL     1     -37.265  23.860   1.186  0.00  0.00    +0.021 C 
ATOM     15  C   UNL     1     -39.328  23.522   2.397  0.00  0.00    +0.021 C 
ATOM     16  C   UNL     1     -38.285  21.671   1.246  0.00  0.00    +0.042 C 
ATOM     17  C   UNL     1     -37.257  22.513   0.823  0.00  0.00    +0.015 C 
ATOM     18  C   UNL     1     -39.321  22.175   2.034  0.00  0.00    +0.015 C 
BRANCH  16  19
ATOM     19  N   UNL     1     -38.278  20.309   0.881  0.00  0.00    -0.357 N 
ATOM     20  H   UNL     1     -38.961  19.962   0.263  0.00  0.00    +0.142 HD
ATOM     21  H   UNL     1     -37.590  19.705   1.244  0.00  0.00    +0.142 HD
ENDBRANCH  16  19
ENDBRANCH   1  13
TORSDOF 3
ENDMDL
MODEL 3
REMARK VINA RESULT:      -5.9      5.586      7.253
REMARK  Name = 5325
REMARK  3 active torsions:
REMARK  status: ('A' for Active; 'I' for Inactive)
REMARK    1  A    between atoms: S_1  and  N_4
REMARK    2  A    between atoms: S_1  and  C_13
REMARK    3  A    between atoms: C_16  and  N_19
REMARK                            x       y       z     vdW  Elec       q    Type
REMARK                         _______ _______ _______ _____ _____    ______ ____
ROOT
ATOM      1  S   UNL     1     -34.664  21.902   0.454  0.00  0.00    +0.082 S 
ATOM      2  O   UNL     1     -35.306  21.780  -0.850  0.00  0.00    -0.149 OA
ATOM      3  O   UNL     1     -33.967  23.141   0.780  0.00  0.00    -0.149 OA
ENDROOT
BRANCH   1   4
ATOM      4  N   UNL     1     -35.843  21.568   1.664  0.00  0.00    -0.148 N 
ATOM      5  N   UNL     1     -35.526  21.839   3.986  0.00  0.00    -0.341 NA
ATOM      6  N   UNL     1     -36.261  23.683   2.621  0.00  0.00    -0.169 NA
ATOM      7  C   UNL     1     -35.879  22.414   2.827  0.00  0.00    +0.164 C 
ATOM      8  C   UNL     1     -35.572  22.659   5.056  0.00  0.00    +0.124 C 
ATOM      9  C   UNL     1     -35.946  23.986   4.988  0.00  0.00    +0.050 C 
ATOM     10  C   UNL     1     -36.283  24.449   3.733  0.00  0.00    +0.114 C 
ATOM     11  C   UNL     1     -35.188  22.069   6.371  0.00  0.00    +0.067 C 
ATOM     12  H   UNL     1     -36.475  20.819   1.563  0.00  0.00    +0.187 HD
ENDBRANCH   1   4
BRANCH   1  13
ATOM     13  C   UNL     1     -33.547  20.571   0.624  0.00  0.00    +0.126 C 
ATOM     14  C   UNL     1     -32.291  20.633   0.020  0.00  0.00    +0.021 C 
ATOM     15  C   UNL     1     -33.911  19.445   1.363  0.00  0.00    +0.021 C 
ATOM     16  C   UNL     1     -31.762  18.444   0.894  0.00  0.00    +0.042 C 
ATOM     17  C   UNL     1     -31.398  19.570   0.156  0.00  0.00    +0.015 C 
ATOM     18  C   UNL     1     -33.018  18.381   1.499  0.00  0.00    +0.015 C 
BRANCH  16  19
ATOM     19  N   UNL     1     -30.860  17.369   1.033  0.00  0.00    -0.357 N 
ATOM     20  H   UNL     1     -30.618  17.042   1.929  0.00  0.00    +0.142 HD
ATOM     21  H   UNL     1     -30.471  16.946   0.233  0.00  0.00    +0.142 HD
ENDBRANCH  16  19
ENDBRANCH   1  13
TORSDOF 3
ENDMDL
MODEL 4
REMARK VINA RESULT:      -5.7      1.707      2.203
REMARK  Name = 5325
REMARK  3 active torsions:
REMARK  status: ('A' for Active; 'I' for Inactive)
REMARK    1  A    between atoms: S_1  and  N_4
REMARK    2  A    between atoms: S_1  and  C_13
REMARK    3  A    between atoms: C_16  and  N_19
REMARK                            x       y       z     vdW  Elec       q    Type
REMARK                         _______ _______ _______ _____ _____    ______ ____
ROOT
ATOM      1  S   UNL     1     -35.189  26.284   3.640  0.00  0.00    +0.082 S 
ATOM      2  O   UNL     1     -35.749  27.144   4.676  0.00  0.00    -0.149 OA
ATOM      3  O   UNL     1     -35.776  26.319   2.305  0.00  0.00    -0.149 OA
ENDROOT
BRANCH   1   4
ATOM      4  N   UNL     1     -33.500  26.603   3.535  0.00  0.00    -0.148 N 
ATOM      5  N   UNL     1     -32.455  28.626   4.151  0.00  0.00    -0.341 NA
ATOM      6  N   UNL     1     -32.858  26.903   5.786  0.00  0.00    -0.169 NA
ATOM      7  C   UNL     1     -32.902  27.426   4.552  0.00  0.00    +0.164 C 
ATOM      8  C   UNL     1     -31.900  29.372   5.128  0.00  0.00    +0.124 C 
ATOM      9  C   UNL     1     -31.790  28.958   6.440  0.00  0.00    +0.050 C 
ATOM     10  C   UNL     1     -32.291  27.702   6.714  0.00  0.00    +0.114 C 
ATOM     11  C   UNL     1     -31.386  30.717   4.736  0.00  0.00    +0.067 C 
ATOM     12  H   UNL     1     -32.958  26.231   2.801  0.00  0.00    +0.187 HD
ENDBRANCH   1   4
BRANCH   1  13
ATOM     13  C   UNL     1     -35.237  24.641   4.229  0.00  0.00    +0.126 C 
ATOM     14  C   UNL     1     -35.202  24.391   5.600  0.00  0.00    +0.021 C 
ATOM     15  C   UNL     1     -35.311  23.579   3.327  0.00  0.00    +0.021 C 
ATOM     16  C   UNL     1     -35.314  22.016   5.170  0.00  0.00    +0.042 C 
ATOM     17  C   UNL     1     -35.241  23.078   6.071  0.00  0.00    +0.015 C 
ATOM     18  C   UNL     1     -35.350  22.266   3.798  0.00  0.00    +0.015 C 
BRANCH  16  19
ATOM     19  N   UNL     1     -35.354  20.689   5.645  0.00  0.00    -0.357 N 
ATOM     20  H   UNL     1     -36.101  20.099   5.395  0.00  0.00    +0.142 HD
ATOM     21  H   UNL     1     -34.636  20.353   6.229  0.00  0.00    +0.142 HD
ENDBRANCH  16  19
ENDBRANCH   1  13
TORSDOF 3
ENDMDL
MODEL 5
REMARK VINA RESULT:      -5.7      4.970      6.648
REMARK  Name = 5325
REMARK  3 active torsions:
REMARK  status: ('A' for Active; 'I' for Inactive)
REMARK    1  A    between atoms: S_1  and  N_4
REMARK    2  A    between atoms: S_1  and  C_13
REMARK    3  A    between atoms: C_16  and  N_19
REMARK                            x       y       z     vdW  Elec       q    Type
REMARK                         _______ _______ _______ _____ _____    ______ ____
ROOT
ATOM      1  S   UNL     1     -37.994  26.027   1.986  0.00  0.00    +0.082 S 
ATOM      2  O   UNL     1     -37.846  27.438   1.648  0.00  0.00    -0.149 OA
ATOM      3  O   UNL     1     -37.094  25.059   1.370  0.00  0.00    -0.149 OA
ENDROOT
BRANCH   1   4
ATOM      4  N   UNL     1     -37.916  25.877   3.701  0.00  0.00    -0.148 N 
ATOM      5  N   UNL     1     -36.670  24.251   4.870  0.00  0.00    -0.341 NA
ATOM      6  N   UNL     1     -35.652  26.326   4.189  0.00  0.00    -0.169 NA
ATOM      7  C   UNL     1     -36.671  25.460   4.288  0.00  0.00    +0.164 C 
ATOM      8  C   UNL     1     -35.488  23.891   5.411  0.00  0.00    +0.124 C 
ATOM      9  C   UNL     1     -34.358  24.684   5.381  0.00  0.00    +0.050 C 
ATOM     10  C   UNL     1     -34.500  25.902   4.750  0.00  0.00    +0.114 C 
ATOM     11  C   UNL     1     -35.431  22.555   6.072  0.00  0.00    +0.067 C 
ATOM     12  H   UNL     1     -38.701  26.071   4.263  0.00  0.00    +0.187 HD
ENDBRANCH   1   4
BRANCH   1  13
ATOM     13  C   UNL     1     -39.639  25.565   1.631  0.00  0.00    +0.126 C 
ATOM     14  C   UNL     1     -39.894  24.502   0.765  0.00  0.00    +0.021 C 
ATOM     15  C   UNL     1     -40.700  26.260   2.214  0.00  0.00    +0.021 C 
ATOM     16  C   UNL     1     -42.269  24.826   1.064  0.00  0.00    +0.042 C 
ATOM     17  C   UNL     1     -41.209  24.132   0.482  0.00  0.00    +0.015 C 
ATOM     18  C   UNL     1     -42.016  25.890   1.931  0.00  0.00    +0.015 C 
BRANCH  16  19
ATOM     19  N   UNL     1     -43.599  24.452   0.778  0.00  0.00    -0.357 N 
ATOM     20  H   UNL     1     -43.877  24.299  -0.153  0.00  0.00    +0.142 HD
ATOM     21  H   UNL     1     -44.248  24.345   1.510  0.00  0.00    +0.142 HD
ENDBRANCH  16  19
ENDBRANCH   1  13
TORSDOF 3
ENDMDL
MODEL 6
REMARK VINA RESULT:      -5.6      3.400      3.885
REMARK  Name = 5325
REMARK  3 active torsions:
REMARK  status: ('A' for Active; 'I' for Inactive)
REMARK    1  A    between atoms: S_1  and  N_4
REMARK    2  A    between atoms: S_1  and  C_13
REMARK    3  A    between atoms: C_16  and  N_19
REMARK                            x       y       z     vdW  Elec       q    Type
REMARK                         _______ _______ _______ _____ _____    ______ ____
ROOT
ATOM      1  S   UNL     1     -34.010  26.295   4.803  0.00  0.00    +0.082 S 
ATOM      2  O   UNL     1     -32.739  26.479   4.111  0.00  0.00    -0.149 OA
ATOM      3  O   UNL     1     -34.046  26.432   6.254  0.00  0.00    -0.149 OA
ENDROOT
BRANCH   1   4
ATOM      4  N   UNL     1     -35.164  27.360   4.094  0.00  0.00    -0.148 N 
ATOM      5  N   UNL     1     -34.701  29.528   3.288  0.00  0.00    -0.341 NA
ATOM      6  N   UNL     1     -34.398  27.600   1.875  0.00  0.00    -0.169 NA
ATOM      7  C   UNL     1     -34.728  28.214   3.021  0.00  0.00    +0.164 C 
ATOM      8  C   UNL     1     -34.288  30.300   2.262  0.00  0.00    +0.124 C 
ATOM      9  C   UNL     1     -33.918  29.802   1.029  0.00  0.00    +0.050 C 
ATOM     10  C   UNL     1     -33.993  28.431   0.891  0.00  0.00    +0.114 C 
ATOM     11  C   UNL     1     -34.240  31.771   2.505  0.00  0.00    +0.067 C 
ATOM     12  H   UNL     1     -36.095  27.383   4.413  0.00  0.00    +0.187 HD
ENDBRANCH   1   4
BRANCH   1  13
ATOM     13  C   UNL     1     -34.625  24.718   4.374  0.00  0.00    +0.126 C 
ATOM     14  C   UNL     1     -35.037  23.836   5.373  0.00  0.00    +0.021 C 
ATOM     15  C   UNL     1     -34.703  24.340   3.033  0.00  0.00    +0.021 C 
ATOM     16  C   UNL     1     -35.607  22.198   3.690  0.00  0.00    +0.042 C 
ATOM     17  C   UNL     1     -35.529  22.576   5.030  0.00  0.00    +0.015 C 
ATOM     18  C   UNL     1     -35.195  23.080   2.691  0.00  0.00    +0.015 C 
BRANCH  16  19
ATOM     19  N   UNL     1     -36.105  20.925   3.344  0.00  0.00    -0.357 N 
ATOM     20  H   UNL     1     -36.548  20.790   2.475  0.00  0.00    +0.142 HD
ATOM     21  H   UNL     1     -36.011  20.172   3.971  0.00  0.00    +0.142 HD
ENDBRANCH  16  19
ENDBRANCH   1  13
TORSDOF 3
ENDMDL
MODEL 7
REMARK VINA RESULT:      -5.6      1.559      1.893
REMARK  Name = 5325
REMARK  3 active torsions:
REMARK  status: ('A' for Active; 'I' for Inactive)
REMARK    1  A    between atoms: S_1  and  N_4
REMARK    2  A    between atoms: S_1  and  C_13
REMARK    3  A    between atoms: C_16  and  N_19
REMARK                            x       y       z     vdW  Elec       q    Type
REMARK                         _______ _______ _______ _____ _____    ______ ____
ROOT
ATOM      1  S   UNL     1     -33.721  26.093   2.820  0.00  0.00    +0.082 S 
ATOM      2  O   UNL     1     -34.435  26.126   1.549  0.00  0.00    -0.149 OA
ATOM      3  O   UNL     1     -32.271  25.933   2.807  0.00  0.00    -0.149 OA
ENDROOT
BRANCH   1   4
ATOM      4  N   UNL     1     -34.137  27.511   3.705  0.00  0.00    -0.148 N 
ATOM      5  N   UNL     1     -32.753  28.586   5.284  0.00  0.00    -0.341 NA
ATOM      6  N   UNL     1     -32.582  29.111   2.938  0.00  0.00    -0.169 NA
ATOM      7  C   UNL     1     -33.095  28.460   3.992  0.00  0.00    +0.164 C 
ATOM      8  C   UNL     1     -31.774  29.484   5.518  0.00  0.00    +0.124 C 
ATOM      9  C   UNL     1     -31.157  30.223   4.529  0.00  0.00    +0.050 C 
ATOM     10  C   UNL     1     -31.606  29.993   3.244  0.00  0.00    +0.114 C 
ATOM     11  C   UNL     1     -31.355  29.664   6.939  0.00  0.00    +0.067 C 
ATOM     12  H   UNL     1     -35.062  27.669   4.004  0.00  0.00    +0.187 HD
ENDBRANCH   1   4
BRANCH   1  13
ATOM     13  C   UNL     1     -34.414  24.816   3.788  0.00  0.00    +0.126 C 
ATOM     14  C   UNL     1     -34.460  24.940   5.176  0.00  0.00    +0.021 C 
ATOM     15  C   UNL     1     -34.923  23.672   3.172  0.00  0.00    +0.021 C 
ATOM     16  C   UNL     1     -35.523  22.776   5.335  0.00  0.00    +0.042 C 
ATOM     17  C   UNL     1     -35.015  23.920   5.950  0.00  0.00    +0.015 C 
ATOM     18  C   UNL     1     -35.479  22.652   3.946  0.00  0.00    +0.015 C 
BRANCH  16  19
ATOM     19  N   UNL     1     -36.085  21.745   6.116  0.00  0.00    -0.357 N 
ATOM     20  H   UNL     1     -35.506  21.186   6.682  0.00  0.00    +0.142 HD
ATOM     21  H   UNL     1     -37.056  21.585   6.095  0.00  0.00    +0.142 HD
ENDBRANCH  16  19
ENDBRANCH   1  13
TORSDOF 3
ENDMDL
MODEL 8
REMARK VINA RESULT:      -5.6      3.832      7.404
REMARK  Name = 5325
REMARK  3 active torsions:
REMARK  status: ('A' for Active; 'I' for Inactive)
REMARK    1  A    between atoms: S_1  and  N_4
REMARK    2  A    between atoms: S_1  and  C_13
REMARK    3  A    between atoms: C_16  and  N_19
REMARK                            x       y       z     vdW  Elec       q    Type
REMARK                         _______ _______ _______ _____ _____    ______ ____
ROOT
ATOM      1  S   UNL     1     -35.800  24.975   4.383  0.00  0.00    +0.082 S 
ATOM      2  O   UNL     1     -36.004  24.059   5.499  0.00  0.00    -0.149 OA
ATOM      3  O   UNL     1     -35.510  24.423   3.064  0.00  0.00    -0.149 OA
ENDROOT
BRANCH   1   4
ATOM      4  N   UNL     1     -37.172  26.012   4.284  0.00  0.00    -0.148 N 
ATOM      5  N   UNL     1     -38.335  26.547   2.303  0.00  0.00    -0.341 NA
ATOM      6  N   UNL     1     -38.897  24.572   3.564  0.00  0.00    -0.169 NA
ATOM      7  C   UNL     1     -38.196  25.691   3.326  0.00  0.00    +0.164 C 
ATOM      8  C   UNL     1     -39.304  26.217   1.424  0.00  0.00    +0.124 C 
ATOM      9  C   UNL     1     -40.099  25.095   1.546  0.00  0.00    +0.050 C 
ATOM     10  C   UNL     1     -39.849  24.302   2.646  0.00  0.00    +0.114 C 
ATOM     11  C   UNL     1     -39.501  27.136   0.266  0.00  0.00    +0.067 C 
ATOM     12  H   UNL     1     -37.253  26.802   4.867  0.00  0.00    +0.187 HD
ENDBRANCH   1   4
BRANCH   1  13
ATOM     13  C   UNL     1     -34.516  26.073   4.824  0.00  0.00    +0.126 C 
ATOM     14  C   UNL     1     -33.971  26.928   3.867  0.00  0.00    +0.021 C 
ATOM     15  C   UNL     1     -34.036  26.094   6.134  0.00  0.00    +0.021 C 
ATOM     16  C   UNL     1     -32.464  27.828   5.528  0.00  0.00    +0.042 C 
ATOM     17  C   UNL     1     -32.945  27.806   4.219  0.00  0.00    +0.015 C 
ATOM     18  C   UNL     1     -33.010  26.972   6.486  0.00  0.00    +0.015 C 
BRANCH  16  19
ATOM     19  N   UNL     1     -31.429  28.715   5.885  0.00  0.00    -0.357 N 
ATOM     20  H   UNL     1     -31.549  29.685   5.767  0.00  0.00    +0.142 HD
ATOM     21  H   UNL     1     -30.584  28.365   6.250  0.00  0.00    +0.142 HD
ENDBRANCH  16  19
ENDBRANCH   1  13
TORSDOF 3
ENDMDL
MODEL 9
REMARK VINA RESULT:      -5.6      4.691      6.854
REMARK  Name = 5325
REMARK  3 active torsions:
REMARK  status: ('A' for Active; 'I' for Inactive)
REMARK    1  A    between atoms: S_1  and  N_4
REMARK    2  A    between atoms: S_1  and  C_13
REMARK    3  A    between atoms: C_16  and  N_19
REMARK                            x       y       z     vdW  Elec       q    Type
REMARK                         _______ _______ _______ _____ _____    ______ ____
ROOT
ATOM      1  S   UNL     1     -36.021  21.433   1.372  0.00  0.00    +0.082 S 
ATOM      2  O   UNL     1     -37.060  20.474   1.016  0.00  0.00    -0.149 OA
ATOM      3  O   UNL     1     -36.040  22.752   0.750  0.00  0.00    -0.149 OA
ENDROOT
BRANCH   1   4
ATOM      4  N   UNL     1     -36.014  21.603   3.086  0.00  0.00    -0.148 N 
ATOM      5  N   UNL     1     -35.153  23.454   4.268  0.00  0.00    -0.341 NA
ATOM      6  N   UNL     1     -37.423  23.459   3.458  0.00  0.00    -0.169 NA
ATOM      7  C   UNL     1     -36.209  22.918   3.637  0.00  0.00    +0.164 C 
ATOM      8  C   UNL     1     -35.369  24.686   4.772  0.00  0.00    +0.124 C 
ATOM      9  C   UNL     1     -36.569  25.361   4.661  0.00  0.00    +0.050 C 
ATOM     10  C   UNL     1     -37.570  24.692   3.987  0.00  0.00    +0.114 C 
ATOM     11  C   UNL     1     -34.227  25.330   5.485  0.00  0.00    +0.067 C 
ATOM     12  H   UNL     1     -35.882  20.823   3.673  0.00  0.00    +0.187 HD
ENDBRANCH   1   4
BRANCH   1  13
ATOM     13  C   UNL     1     -34.475  20.687   1.051  0.00  0.00    +0.126 C 
ATOM     14  C   UNL     1     -33.543  21.336   0.242  0.00  0.00    +0.021 C 
ATOM     15  C   UNL     1     -34.173  19.442   1.605  0.00  0.00    +0.021 C 
ATOM     16  C   UNL     1     -32.005  19.495   0.539  0.00  0.00    +0.042 C 
ATOM     17  C   UNL     1     -32.307  20.740  -0.014  0.00  0.00    +0.015 C 
ATOM     18  C   UNL     1     -32.938  18.846   1.349  0.00  0.00    +0.015 C 
BRANCH  16  19
ATOM     19  N   UNL     1     -30.757  18.893   0.281  0.00  0.00    -0.357 N 
ATOM     20  H   UNL     1     -29.980  19.110   0.846  0.00  0.00    +0.142 HD
ATOM     21  H   UNL     1     -30.661  18.256  -0.463  0.00  0.00    +0.142 HD
ENDBRANCH  16  19
ENDBRANCH   1  13
TORSDOF 3
ENDMDL
