MODEL 1
REMARK VINA RESULT:      -6.9      0.000      0.000
REMARK  Name = 5281741
REMARK  1 active torsions:
REMARK  status: ('A' for Active; 'I' for Inactive)
REMARK    1  A    between atoms: C_13  and  O_28
REMARK                            x       y       z     vdW  Elec       q    Type
REMARK                         _______ _______ _______ _____ _____    ______ ____
ROOT
ATOM      1  O   UNL     1     -35.090  30.967   3.041  0.00  0.00    -0.345 OA
ATOM      2  O   UNL     1     -34.948  28.053   3.451  0.00  0.00    -0.443 OA
ATOM      3  O   UNL     1     -33.925  28.316   1.392  0.00  0.00    -0.247 OA
ATOM      4  O   UNL     1     -32.305  27.359   5.544  0.00  0.00    -0.442 OA
ATOM      5  O   UNL     1     -32.027  28.787   7.331  0.00  0.00    -0.248 OA
ATOM      6  O   UNL     1     -33.015  25.597   3.253  0.00  0.00    -0.288 OA
ATOM      7  N   UNL     1     -35.927  23.801   3.723  0.00  0.00    +0.388 N 
ATOM      8  C   UNL     1     -33.935  30.113   2.936  0.00  0.00    +0.206 C 
ATOM      9  C   UNL     1     -34.170  31.278   1.993  0.00  0.00    +0.151 C 
ATOM     10  C   UNL     1     -32.973  30.296   4.093  0.00  0.00    +0.044 C 
ATOM     11  C   UNL     1     -31.632  29.547   3.873  0.00  0.00    +0.038 C 
ATOM     12  C   UNL     1     -34.284  28.744   2.480  0.00  0.00    +0.344 C 
ATOM     13  C   UNL     1     -30.903  29.256   5.219  0.00  0.00    +0.177 C 
ATOM     14  C   UNL     1     -34.747  31.106   0.638  0.00  0.00    +0.035 C 
ATOM     15  C   UNL     1     -30.759  30.350   2.896  0.00  0.00    +0.003 C 
ATOM     16  C   UNL     1     -29.591  28.489   5.038  0.00  0.00    +0.041 C 
ATOM     17  C   UNL     1     -35.176  26.654   3.217  0.00  0.00    +0.227 C 
ATOM     18  C   UNL     1     -31.796  28.460   6.173  0.00  0.00    +0.342 C 
ATOM     19  C   UNL     1     -36.548  26.273   3.779  0.00  0.00    +0.029 C 
ATOM     20  C   UNL     1     -34.016  25.932   3.887  0.00  0.00    +0.212 C 
ATOM     21  C   UNL     1     -36.950  24.827   3.448  0.00  0.00    -0.073 C 
ATOM     22  C   UNL     1     -34.065  25.701   5.356  0.00  0.00    +0.053 C 
ATOM     23  C   UNL     1     -33.322  26.643   6.263  0.00  0.00    +0.238 C 
ATOM     24  C   UNL     1     -35.638  23.639   5.155  0.00  0.00    -0.051 C 
ATOM     25  C   UNL     1     -34.776  24.669   5.844  0.00  0.00    -0.047 C 
ATOM     26  C   UNL     1     -36.360  22.520   3.152  0.00  0.00    -0.100 C 
ATOM     27  H   UNL     1     -35.060  24.115   3.286  0.00  0.00    -0.079 HD
ENDROOT
BRANCH  13  28
ATOM     28  O   UNL     1     -30.613  30.495   5.862  0.00  0.00    -0.376 OA
ATOM     29  H   UNL     1     -31.340  30.726   6.462  0.00  0.00    +0.211 HD
ENDBRANCH  13  28
TORSDOF 1
ENDMDL
MODEL 2
REMARK VINA RESULT:      -6.9      2.391      6.436
REMARK  Name = 5281741
REMARK  1 active torsions:
REMARK  status: ('A' for Active; 'I' for Inactive)
REMARK    1  A    between atoms: C_13  and  O_28
REMARK                            x       y       z     vdW  Elec       q    Type
REMARK                         _______ _______ _______ _____ _____    ______ ____
ROOT
ATOM      1  O   UNL     1     -36.009  25.898   5.744  0.00  0.00    -0.345 OA
ATOM      2  O   UNL     1     -33.623  27.510   5.122  0.00  0.00    -0.443 OA
ATOM      3  O   UNL     1     -33.058  25.435   4.266  0.00  0.00    -0.247 OA
ATOM      4  O   UNL     1     -34.250  29.368   2.293  0.00  0.00    -0.442 OA
ATOM      5  O   UNL     1     -36.347  30.313   2.148  0.00  0.00    -0.248 OA
ATOM      6  O   UNL     1     -31.582  28.169   2.840  0.00  0.00    -0.288 OA
ATOM      7  N   UNL     1     -29.856  29.711   5.402  0.00  0.00    +0.388 N 
ATOM      8  C   UNL     1     -35.340  26.037   4.475  0.00  0.00    +0.206 C 
ATOM      9  C   UNL     1     -35.925  24.718   4.942  0.00  0.00    +0.151 C 
ATOM     10  C   UNL     1     -36.131  26.878   3.493  0.00  0.00    +0.044 C 
ATOM     11  C   UNL     1     -35.526  26.848   2.065  0.00  0.00    +0.038 C 
ATOM     12  C   UNL     1     -33.880  26.265   4.629  0.00  0.00    +0.344 C 
ATOM     13  C   UNL     1     -35.953  28.090   1.228  0.00  0.00    +0.177 C 
ATOM     14  C   UNL     1     -35.100  23.650   5.557  0.00  0.00    +0.035 C 
ATOM     15  C   UNL     1     -35.906  25.523   1.383  0.00  0.00    +0.003 C 
ATOM     16  C   UNL     1     -35.346  28.105  -0.178  0.00  0.00    +0.041 C 
ATOM     17  C   UNL     1     -32.250  27.934   5.139  0.00  0.00    +0.227 C 
ATOM     18  C   UNL     1     -35.567  29.393   1.931  0.00  0.00    +0.342 C 
ATOM     19  C   UNL     1     -32.001  28.763   6.401  0.00  0.00    +0.029 C 
ATOM     20  C   UNL     1     -32.044  28.709   3.844  0.00  0.00    +0.212 C 
ATOM     21  C   UNL     1     -30.524  29.142   6.588  0.00  0.00    -0.073 C 
ATOM     22  C   UNL     1     -32.489  30.127   3.777  0.00  0.00    +0.053 C 
ATOM     23  C   UNL     1     -33.816  30.441   3.144  0.00  0.00    +0.238 C 
ATOM     24  C   UNL     1     -30.384  31.026   5.014  0.00  0.00    -0.051 C 
ATOM     25  C   UNL     1     -31.707  31.094   4.289  0.00  0.00    -0.047 C 
ATOM     26  C   UNL     1     -28.414  29.808   5.657  0.00  0.00    -0.100 C 
ATOM     27  H   UNL     1     -30.042  29.082   4.620  0.00  0.00    -0.079 HD
ENDROOT
BRANCH  13  28
ATOM     28  O   UNL     1     -37.374  28.094   1.103  0.00  0.00    -0.376 OA
ATOM     29  H   UNL     1     -37.660  28.921   0.685  0.00  0.00    +0.211 HD
ENDBRANCH  13  28
TORSDOF 1
ENDMDL
MODEL 3
REMARK VINA RESULT:      -6.7      4.960      7.624
REMARK  Name = 5281741
REMARK  1 active torsions:
REMARK  status: ('A' for Active; 'I' for Inactive)
REMARK    1  A    between atoms: C_13  and  O_28
REMARK                            x       y       z     vdW  Elec       q    Type
REMARK                         _______ _______ _______ _____ _____    ______ ____
ROOT
ATOM      1  O   UNL     1     -40.437  22.401   1.440  0.00  0.00    -0.345 OA
ATOM      2  O   UNL     1     -37.746  21.370   0.829  0.00  0.00    -0.443 OA
ATOM      3  O   UNL     1     -37.985  23.080  -0.712  0.00  0.00    -0.247 OA
ATOM      4  O   UNL     1     -35.517  22.683   3.100  0.00  0.00    -0.442 OA
ATOM      5  O   UNL     1     -36.242  22.786   5.285  0.00  0.00    -0.248 OA
ATOM      6  O   UNL     1     -34.804  22.269   0.241  0.00  0.00    -0.288 OA
ATOM      7  N   UNL     1     -34.411  18.952  -0.633  0.00  0.00    +0.388 N 
ATOM      8  C   UNL     1     -39.211  23.146   1.315  0.00  0.00    +0.206 C 
ATOM      9  C   UNL     1     -40.539  23.679   0.810  0.00  0.00    +0.151 C 
ATOM     10  C   UNL     1     -38.691  23.634   2.652  0.00  0.00    +0.044 C 
ATOM     11  C   UNL     1     -37.501  24.618   2.502  0.00  0.00    +0.038 C 
ATOM     12  C   UNL     1     -38.273  22.530   0.342  0.00  0.00    +0.344 C 
ATOM     13  C   UNL     1     -36.628  24.673   3.791  0.00  0.00    +0.177 C 
ATOM     14  C   UNL     1     -40.943  23.599  -0.615  0.00  0.00    +0.035 C 
ATOM     15  C   UNL     1     -38.035  26.001   2.097  0.00  0.00    +0.003 C 
ATOM     16  C   UNL     1     -35.426  25.612   3.663  0.00  0.00    +0.041 C 
ATOM     17  C   UNL     1     -36.679  20.770   0.076  0.00  0.00    +0.227 C 
ATOM     18  C   UNL     1     -36.113  23.284   4.173  0.00  0.00    +0.342 C 
ATOM     19  C   UNL     1     -36.823  19.248   0.136  0.00  0.00    +0.029 C 
ATOM     20  C   UNL     1     -35.393  21.291   0.702  0.00  0.00    +0.212 C 
ATOM     21  C   UNL     1     -35.814  18.515  -0.762  0.00  0.00    -0.073 C 
ATOM     22  C   UNL     1     -34.886  20.648   1.944  0.00  0.00    +0.053 C 
ATOM     23  C   UNL     1     -35.179  21.297   3.268  0.00  0.00    +0.238 C 
ATOM     24  C   UNL     1     -33.824  18.639   0.677  0.00  0.00    -0.051 C 
ATOM     25  C   UNL     1     -34.190  19.500   1.863  0.00  0.00    -0.047 C 
ATOM     26  C   UNL     1     -33.611  18.335  -1.698  0.00  0.00    -0.100 C 
ATOM     27  H   UNL     1     -34.402  19.968  -0.719  0.00  0.00    -0.079 HD
ENDROOT
BRANCH  13  28
ATOM     28  O   UNL     1     -37.438  25.126   4.875  0.00  0.00    -0.376 OA
ATOM     29  H   UNL     1     -37.105  25.979   5.192  0.00  0.00    +0.211 HD
ENDBRANCH  13  28
TORSDOF 1
ENDMDL
MODEL 4
REMARK VINA RESULT:      -6.3      3.688      5.798
REMARK  Name = 5281741
REMARK  1 active torsions:
REMARK  status: ('A' for Active; 'I' for Inactive)
REMARK    1  A    between atoms: C_13  and  O_28
REMARK                            x       y       z     vdW  Elec       q    Type
REMARK                         _______ _______ _______ _____ _____    ______ ____
ROOT
ATOM      1  O   UNL     1     -39.343  25.603   1.030  0.00  0.00    -0.345 OA
ATOM      2  O   UNL     1     -37.255  23.543   0.764  0.00  0.00    -0.443 OA
ATOM      3  O   UNL     1     -36.427  25.262  -0.546  0.00  0.00    -0.247 OA
ATOM      4  O   UNL     1     -35.233  23.651   3.548  0.00  0.00    -0.442 OA
ATOM      5  O   UNL     1     -36.306  23.948   5.566  0.00  0.00    -0.248 OA
ATOM      6  O   UNL     1     -34.153  23.111   0.828  0.00  0.00    -0.288 OA
ATOM      7  N   UNL     1     -34.983  19.997  -0.411  0.00  0.00    +0.388 N 
ATOM      8  C   UNL     1     -37.923  25.751   1.224  0.00  0.00    +0.206 C 
ATOM      9  C   UNL     1     -38.769  26.829   0.573  0.00  0.00    +0.151 C 
ATOM     10  C   UNL     1     -37.552  25.900   2.687  0.00  0.00    +0.044 C 
ATOM     11  C   UNL     1     -36.061  26.279   2.884  0.00  0.00    +0.038 C 
ATOM     12  C   UNL     1     -37.136  24.839   0.356  0.00  0.00    +0.344 C 
ATOM     13  C   UNL     1     -35.546  25.888   4.301  0.00  0.00    +0.177 C 
ATOM     14  C   UNL     1     -38.851  27.002  -0.897  0.00  0.00    +0.035 C 
ATOM     15  C   UNL     1     -35.876  27.776   2.585  0.00  0.00    +0.003 C 
ATOM     16  C   UNL     1     -34.067  26.221   4.516  0.00  0.00    +0.041 C 
ATOM     17  C   UNL     1     -36.394  22.579   0.134  0.00  0.00    +0.227 C 
ATOM     18  C   UNL     1     -35.746  24.396   4.573  0.00  0.00    +0.342 C 
ATOM     19  C   UNL     1     -37.162  21.267  -0.043  0.00  0.00    +0.029 C 
ATOM     20  C   UNL     1     -35.177  22.462   1.040  0.00  0.00    +0.212 C 
ATOM     21  C   UNL     1     -36.377  20.216  -0.842  0.00  0.00    -0.073 C 
ATOM     22  C   UNL     1     -35.264  21.602   2.251  0.00  0.00    +0.053 C 
ATOM     23  C   UNL     1     -35.542  22.248   3.580  0.00  0.00    +0.238 C 
ATOM     24  C   UNL     1     -34.877  19.397   0.927  0.00  0.00    -0.051 C 
ATOM     25  C   UNL     1     -35.103  20.272   2.137  0.00  0.00    -0.047 C 
ATOM     26  C   UNL     1     -34.299  19.148  -1.394  0.00  0.00    -0.100 C 
ATOM     27  H   UNL     1     -34.537  20.913  -0.354  0.00  0.00    -0.079 HD
ENDROOT
BRANCH  13  28
ATOM     28  O   UNL     1     -36.310  26.592   5.278  0.00  0.00    -0.376 OA
ATOM     29  H   UNL     1     -36.534  27.472   4.940  0.00  0.00    +0.211 HD
ENDBRANCH  13  28
TORSDOF 1
ENDMDL
MODEL 5
REMARK VINA RESULT:      -6.3      4.785      8.110
REMARK  Name = 5281741
REMARK  1 active torsions:
REMARK  status: ('A' for Active; 'I' for Inactive)
REMARK    1  A    between atoms: C_13  and  O_28
REMARK                            x       y       z     vdW  Elec       q    Type
REMARK                         _______ _______ _______ _____ _____    ______ ____
ROOT
ATOM      1  O   UNL     1     -36.469  23.461   5.174  0.00  0.00    -0.345 OA
ATOM      2  O   UNL     1     -38.503  24.731   3.465  0.00  0.00    -0.443 OA
ATOM      3  O   UNL     1     -36.679  26.127   3.186  0.00  0.00    -0.247 OA
ATOM      4  O   UNL     1     -38.645  23.039   0.471  0.00  0.00    -0.442 OA
ATOM      5  O   UNL     1     -38.523  20.741   0.600  0.00  0.00    -0.248 OA
ATOM      6  O   UNL     1     -38.948  25.995   0.634  0.00  0.00    -0.288 OA
ATOM      7  N   UNL     1     -41.939  27.017   2.022  0.00  0.00    +0.388 N 
ATOM      8  C   UNL     1     -36.342  23.863   3.796  0.00  0.00    +0.206 C 
ATOM      9  C   UNL     1     -35.209  24.017   4.793  0.00  0.00    +0.151 C 
ATOM     10  C   UNL     1     -36.323  22.680   2.848  0.00  0.00    +0.044 C 
ATOM     11  C   UNL     1     -35.967  23.091   1.395  0.00  0.00    +0.038 C 
ATOM     12  C   UNL     1     -37.177  25.048   3.475  0.00  0.00    +0.344 C 
ATOM     13  C   UNL     1     -36.482  22.051   0.356  0.00  0.00    +0.177 C 
ATOM     14  C   UNL     1     -34.908  25.302   5.469  0.00  0.00    +0.035 C 
ATOM     15  C   UNL     1     -34.450  23.321   1.292  0.00  0.00    +0.003 C 
ATOM     16  C   UNL     1     -36.173  22.445  -1.091  0.00  0.00    +0.041 C 
ATOM     17  C   UNL     1     -39.411  25.735   2.980  0.00  0.00    +0.227 C 
ATOM     18  C   UNL     1     -37.992  21.839   0.484  0.00  0.00    +0.342 C 
ATOM     19  C   UNL     1     -40.700  25.679   3.803  0.00  0.00    +0.029 C 
ATOM     20  C   UNL     1     -39.611  25.428   1.503  0.00  0.00    +0.212 C 
ATOM     21  C   UNL     1     -41.680  26.812   3.460  0.00  0.00    -0.073 C 
ATOM     22  C   UNL     1     -40.573  24.362   1.114  0.00  0.00    +0.053 C 
ATOM     23  C   UNL     1     -40.044  22.991   0.793  0.00  0.00    +0.238 C 
ATOM     24  C   UNL     1     -42.655  25.896   1.396  0.00  0.00    -0.051 C 
ATOM     25  C   UNL     1     -41.888  24.637   1.067  0.00  0.00    -0.047 C 
ATOM     26  C   UNL     1     -42.701  28.259   1.840  0.00  0.00    -0.100 C 
ATOM     27  H   UNL     1     -41.034  27.079   1.558  0.00  0.00    -0.079 HD
ENDROOT
BRANCH  13  28
ATOM     28  O   UNL     1     -35.864  20.793   0.620  0.00  0.00    -0.376 OA
ATOM     29  H   UNL     1     -34.902  20.884   0.543  0.00  0.00    +0.211 HD
ENDBRANCH  13  28
TORSDOF 1
ENDMDL
MODEL 6
REMARK VINA RESULT:      -6.1      3.872      8.139
REMARK  Name = 5281741
REMARK  1 active torsions:
REMARK  status: ('A' for Active; 'I' for Inactive)
REMARK    1  A    between atoms: C_13  and  O_28
REMARK                            x       y       z     vdW  Elec       q    Type
REMARK                         _______ _______ _______ _____ _____    ______ ____
ROOT
ATOM      1  O   UNL     1     -35.187  20.721   3.218  0.00  0.00    -0.345 OA
ATOM      2  O   UNL     1     -34.838  23.554   2.492  0.00  0.00    -0.443 OA
ATOM      3  O   UNL     1     -34.488  22.478   0.474  0.00  0.00    -0.247 OA
ATOM      4  O   UNL     1     -37.944  24.980   2.079  0.00  0.00    -0.442 OA
ATOM      5  O   UNL     1     -39.548  24.375   3.619  0.00  0.00    -0.248 OA
ATOM      6  O   UNL     1     -35.631  25.698   0.350  0.00  0.00    -0.288 OA
ATOM      7  N   UNL     1     -33.221  27.580   1.953  0.00  0.00    +0.388 N 
ATOM      8  C   UNL     1     -35.815  21.443   2.141  0.00  0.00    +0.206 C 
ATOM      9  C   UNL     1     -35.360  20.004   1.993  0.00  0.00    +0.151 C 
ATOM     10  C   UNL     1     -37.282  21.719   2.409  0.00  0.00    +0.044 C 
ATOM     11  C   UNL     1     -38.012  22.297   1.167  0.00  0.00    +0.038 C 
ATOM     12  C   UNL     1     -34.950  22.524   1.605  0.00  0.00    +0.344 C 
ATOM     13  C   UNL     1     -39.294  23.087   1.565  0.00  0.00    +0.177 C 
ATOM     14  C   UNL     1     -34.079  19.633   1.346  0.00  0.00    +0.035 C 
ATOM     15  C   UNL     1     -38.308  21.157   0.180  0.00  0.00    +0.003 C 
ATOM     16  C   UNL     1     -40.021  23.697   0.363  0.00  0.00    +0.041 C 
ATOM     17  C   UNL     1     -34.190  24.749   2.027  0.00  0.00    +0.227 C 
ATOM     18  C   UNL     1     -38.971  24.211   2.551  0.00  0.00    +0.342 C 
ATOM     19  C   UNL     1     -33.365  25.345   3.170  0.00  0.00    +0.029 C 
ATOM     20  C   UNL     1     -35.308  25.659   1.537  0.00  0.00    +0.212 C 
ATOM     21  C   UNL     1     -32.513  26.546   2.733  0.00  0.00    -0.073 C 
ATOM     22  C   UNL     1     -36.074  26.455   2.533  0.00  0.00    +0.053 C 
ATOM     23  C   UNL     1     -37.406  25.939   3.003  0.00  0.00    +0.238 C 
ATOM     24  C   UNL     1     -34.244  28.293   2.731  0.00  0.00    -0.051 C 
ATOM     25  C   UNL     1     -35.562  27.608   3.000  0.00  0.00    -0.047 C 
ATOM     26  C   UNL     1     -32.245  28.536   1.417  0.00  0.00    -0.100 C 
ATOM     27  H   UNL     1     -33.712  27.104   1.196  0.00  0.00    -0.079 HD
ENDROOT
BRANCH  13  28
ATOM     28  O   UNL     1     -40.193  22.201   2.230  0.00  0.00    -0.376 OA
ATOM     29  H   UNL     1     -39.713  21.407   2.512  0.00  0.00    +0.211 HD
ENDBRANCH  13  28
TORSDOF 1
ENDMDL
MODEL 7
REMARK VINA RESULT:      -6.1      3.992      7.133
REMARK  Name = 5281741
REMARK  1 active torsions:
REMARK  status: ('A' for Active; 'I' for Inactive)
REMARK    1  A    between atoms: C_13  and  O_28
REMARK                            x       y       z     vdW  Elec       q    Type
REMARK                         _______ _______ _______ _____ _____    ______ ____
ROOT
ATOM      1  O   UNL     1     -34.953  21.936   0.669  0.00  0.00    -0.345 OA
ATOM      2  O   UNL     1     -37.526  23.323   1.027  0.00  0.00    -0.443 OA
ATOM      3  O   UNL     1     -37.724  21.529   2.476  0.00  0.00    -0.247 OA
ATOM      4  O   UNL     1     -37.059  25.987   3.157  0.00  0.00    -0.442 OA
ATOM      5  O   UNL     1     -35.128  27.206   2.845  0.00  0.00    -0.248 OA
ATOM      6  O   UNL     1     -39.533  24.335   3.209  0.00  0.00    -0.288 OA
ATOM      7  N   UNL     1     -41.597  24.824   0.484  0.00  0.00    +0.388 N 
ATOM      8  C   UNL     1     -35.574  22.345   1.903  0.00  0.00    +0.206 C 
ATOM      9  C   UNL     1     -34.815  21.038   1.772  0.00  0.00    +0.151 C 
ATOM     10  C   UNL     1     -34.876  23.532   2.536  0.00  0.00    +0.044 C 
ATOM     11  C   UNL     1     -35.400  23.835   3.964  0.00  0.00    +0.038 C 
ATOM     12  C   UNL     1     -37.057  22.320   1.824  0.00  0.00    +0.344 C 
ATOM     13  C   UNL     1     -35.130  25.312   4.380  0.00  0.00    +0.177 C 
ATOM     14  C   UNL     1     -35.494  19.737   1.556  0.00  0.00    +0.035 C 
ATOM     15  C   UNL     1     -34.789  22.828   4.951  0.00  0.00    +0.003 C 
ATOM     16  C   UNL     1     -35.665  25.651   5.774  0.00  0.00    +0.041 C 
ATOM     17  C   UNL     1     -38.948  23.537   1.016  0.00  0.00    +0.227 C 
ATOM     18  C   UNL     1     -35.745  26.292   3.378  0.00  0.00    +0.342 C 
ATOM     19  C   UNL     1     -39.381  23.925  -0.399  0.00  0.00    +0.029 C 
ATOM     20  C   UNL     1     -39.208  24.618   2.056  0.00  0.00    +0.212 C 
ATOM     21  C   UNL     1     -40.906  24.031  -0.551  0.00  0.00    -0.073 C 
ATOM     22  C   UNL     1     -38.985  26.041   1.685  0.00  0.00    +0.053 C 
ATOM     23  C   UNL     1     -37.693  26.700   2.083  0.00  0.00    +0.238 C 
ATOM     24  C   UNL     1     -41.260  26.254   0.441  0.00  0.00    -0.051 C 
ATOM     25  C   UNL     1     -39.930  26.705   0.996  0.00  0.00    -0.047 C 
ATOM     26  C   UNL     1     -43.047  24.649   0.342  0.00  0.00    -0.100 C 
ATOM     27  H   UNL     1     -41.279  24.479   1.390  0.00  0.00    -0.079 HD
ENDROOT
BRANCH  13  28
ATOM     28  O   UNL     1     -33.723  25.542   4.371  0.00  0.00    -0.376 OA
ATOM     29  H   UNL     1     -33.319  25.043   3.644  0.00  0.00    +0.211 HD
ENDBRANCH  13  28
TORSDOF 1
ENDMDL
MODEL 8
REMARK VINA RESULT:      -6.0      1.330      1.496
REMARK  Name = 5281741
REMARK  1 active torsions:
REMARK  status: ('A' for Active; 'I' for Inactive)
REMARK    1  A    between atoms: C_13  and  O_28
REMARK                            x       y       z     vdW  Elec       q    Type
REMARK                         _______ _______ _______ _____ _____    ______ ____
ROOT
ATOM      1  O   UNL     1     -36.330  29.857   1.884  0.00  0.00    -0.345 OA
ATOM      2  O   UNL     1     -35.614  27.108   2.666  0.00  0.00    -0.443 OA
ATOM      3  O   UNL     1     -34.836  27.224   0.489  0.00  0.00    -0.247 OA
ATOM      4  O   UNL     1     -32.720  27.206   4.526  0.00  0.00    -0.442 OA
ATOM      5  O   UNL     1     -32.561  28.917   6.062  0.00  0.00    -0.248 OA
ATOM      6  O   UNL     1     -33.281  25.019   2.588  0.00  0.00    -0.288 OA
ATOM      7  N   UNL     1     -35.757  22.843   3.617  0.00  0.00    +0.388 N 
ATOM      8  C   UNL     1     -35.049  29.208   1.767  0.00  0.00    +0.206 C 
ATOM      9  C   UNL     1     -35.576  30.157   0.708  0.00  0.00    +0.151 C 
ATOM     10  C   UNL     1     -34.043  29.728   2.775  0.00  0.00    +0.044 C 
ATOM     11  C   UNL     1     -32.610  29.196   2.511  0.00  0.00    +0.038 C 
ATOM     12  C   UNL     1     -35.175  27.745   1.542  0.00  0.00    +0.344 C 
ATOM     13  C   UNL     1     -31.728  29.243   3.795  0.00  0.00    +0.177 C 
ATOM     14  C   UNL     1     -36.223  29.682  -0.539  0.00  0.00    +0.035 C 
ATOM     15  C   UNL     1     -31.988  29.978   1.343  0.00  0.00    +0.003 C 
ATOM     16  C   UNL     1     -30.316  28.695   3.574  0.00  0.00    +0.041 C 
ATOM     17  C   UNL     1     -35.596  25.671   2.650  0.00  0.00    +0.227 C 
ATOM     18  C   UNL     1     -32.373  28.461   4.941  0.00  0.00    +0.342 C 
ATOM     19  C   UNL     1     -36.820  25.151   3.407  0.00  0.00    +0.029 C 
ATOM     20  C   UNL     1     -34.269  25.270   3.279  0.00  0.00    +0.212 C 
ATOM     21  C   UNL     1     -36.973  23.624   3.322  0.00  0.00    -0.073 C 
ATOM     22  C   UNL     1     -34.150  25.262   4.761  0.00  0.00    +0.053 C 
ATOM     23  C   UNL     1     -33.521  26.445   5.444  0.00  0.00    +0.238 C 
ATOM     24  C   UNL     1     -35.322  22.954   5.016  0.00  0.00    -0.051 C 
ATOM     25  C   UNL     1     -34.612  24.210   5.461  0.00  0.00    -0.047 C 
ATOM     26  C   UNL     1     -35.991  21.435   3.277  0.00  0.00    -0.100 C 
ATOM     27  H   UNL     1     -35.004  23.231   3.048  0.00  0.00    -0.079 HD
ENDROOT
BRANCH  13  28
ATOM     28  O   UNL     1     -31.621  30.598   4.228  0.00  0.00    -0.376 OA
ATOM     29  H   UNL     1     -30.860  30.688   4.822  0.00  0.00    +0.211 HD
ENDBRANCH  13  28
TORSDOF 1
ENDMDL
MODEL 9
REMARK VINA RESULT:      -6.0      2.879      6.358
REMARK  Name = 5281741
REMARK  1 active torsions:
REMARK  status: ('A' for Active; 'I' for Inactive)
REMARK    1  A    between atoms: C_13  and  O_28
REMARK                            x       y       z     vdW  Elec       q    Type
REMARK                         _______ _______ _______ _____ _____    ______ ____
ROOT
ATOM      1  O   UNL     1     -33.090  23.672   0.352  0.00  0.00    -0.345 OA
ATOM      2  O   UNL     1     -33.034  25.813   2.375  0.00  0.00    -0.443 OA
ATOM      3  O   UNL     1     -34.136  26.825   0.609  0.00  0.00    -0.247 OA
ATOM      4  O   UNL     1     -35.561  25.256   4.645  0.00  0.00    -0.442 OA
ATOM      5  O   UNL     1     -35.873  23.067   5.295  0.00  0.00    -0.248 OA
ATOM      6  O   UNL     1     -34.812  27.993   3.750  0.00  0.00    -0.288 OA
ATOM      7  N   UNL     1     -31.780  29.086   4.987  0.00  0.00    +0.388 N 
ATOM      8  C   UNL     1     -34.192  24.467   0.831  0.00  0.00    +0.206 C 
ATOM      9  C   UNL     1     -34.061  24.056  -0.624  0.00  0.00    +0.151 C 
ATOM     10  C   UNL     1     -35.127  23.680   1.728  0.00  0.00    +0.044 C 
ATOM     11  C   UNL     1     -36.424  24.463   2.064  0.00  0.00    +0.038 C 
ATOM     12  C   UNL     1     -33.771  25.835   1.227  0.00  0.00    +0.344 C 
ATOM     13  C   UNL     1     -37.090  23.945   3.374  0.00  0.00    +0.177 C 
ATOM     14  C   UNL     1     -33.517  24.962  -1.664  0.00  0.00    +0.035 C 
ATOM     15  C   UNL     1     -37.376  24.404   0.859  0.00  0.00    +0.003 C 
ATOM     16  C   UNL     1     -38.356  24.719   3.750  0.00  0.00    +0.041 C 
ATOM     17  C   UNL     1     -32.725  27.080   2.977  0.00  0.00    +0.227 C 
ATOM     18  C   UNL     1     -36.119  24.011   4.555  0.00  0.00    +0.342 C 
ATOM     19  C   UNL     1     -31.316  27.020   3.569  0.00  0.00    +0.029 C 
ATOM     20  C   UNL     1     -33.816  27.320   4.011  0.00  0.00    +0.212 C 
ATOM     21  C   UNL     1     -30.833  28.375   4.108  0.00  0.00    -0.073 C 
ATOM     22  C   UNL     1     -33.706  26.656   5.338  0.00  0.00    +0.053 C 
ATOM     23  C   UNL     1     -34.479  25.388   5.580  0.00  0.00    +0.238 C 
ATOM     24  C   UNL     1     -32.013  28.399   6.265  0.00  0.00    -0.051 C 
ATOM     25  C   UNL     1     -32.917  27.190   6.287  0.00  0.00    -0.047 C 
ATOM     26  C   UNL     1     -31.285  30.446   5.234  0.00  0.00    -0.100 C 
ATOM     27  H   UNL     1     -32.678  29.112   4.504  0.00  0.00    -0.079 HD
ENDROOT
BRANCH  13  28
ATOM     28  O   UNL     1     -37.437  22.573   3.201  0.00  0.00    -0.376 OA
ATOM     29  H   UNL     1     -37.964  22.276   3.959  0.00  0.00    +0.211 HD
ENDBRANCH  13  28
TORSDOF 1
ENDMDL
