MODEL 1
REMARK VINA RESULT:      -7.3      0.000      0.000
REMARK  Name = 212348
REMARK  5 active torsions:
REMARK  status: ('A' for Active; 'I' for Inactive)
REMARK    1  A    between atoms: C_1  and  O_25
REMARK    2  A    between atoms: C_5  and  C_32
REMARK    3  A    between atoms: C_6  and  C_21
REMARK    4  A    between atoms: C_17  and  O_27
REMARK    5  A    between atoms: C_18  and  O_29
REMARK                            x       y       z     vdW  Elec       q    Type
REMARK                         _______ _______ _______ _____ _____    ______ ____
ROOT
ATOM      1  C   UNL     1     -34.218  27.954   2.818  0.00  0.00    +0.088 C 
ATOM      2  C   UNL     1     -34.767  26.754   3.637  0.00  0.00    +0.025 C 
ATOM      3  C   UNL     1     -34.845  28.090   1.403  0.00  0.00    +0.026 C 
ATOM      4  C   UNL     1     -34.773  25.412   2.856  0.00  0.00    +0.009 C 
ATOM      5  C   UNL     1     -35.371  24.241   3.711  0.00  0.00    +0.061 C 
ATOM      6  C   UNL     1     -33.857  29.041   0.648  0.00  0.00    +0.024 C 
ATOM      7  C   UNL     1     -34.834  26.716   0.675  0.00  0.00    +0.003 C 
ATOM      8  C   UNL     1     -35.457  25.584   1.488  0.00  0.00    +0.001 C 
ATOM      9  C   UNL     1     -34.600  24.147   5.057  0.00  0.00    +0.010 C 
ATOM     10  C   UNL     1     -32.710  27.899   2.526  0.00  0.00    +0.027 C 
ATOM     11  C   UNL     1     -34.025  26.602   4.980  0.00  0.00    +0.002 C 
ATOM     12  C   UNL     1     -32.488  28.829   1.327  0.00  0.00    +0.007 C 
ATOM     13  C   UNL     1     -34.586  25.467   5.833  0.00  0.00    +0.001 C 
ATOM     14  C   UNL     1     -35.252  22.880   2.983  0.00  0.00    +0.039 C 
ATOM     15  C   UNL     1     -36.292  28.622   1.434  0.00  0.00    +0.003 C 
ATOM     16  C   UNL     1     -35.098  22.991   5.932  0.00  0.00    +0.032 C 
ATOM     17  C   UNL     1     -35.693  21.690   3.844  0.00  0.00    +0.138 C 
ATOM     18  C   UNL     1     -34.989  21.656   5.199  0.00  0.00    +0.137 C 
ENDROOT
BRANCH   6  21
ATOM     19  O   UNL     1     -35.108  32.475  -0.099  0.00  0.00    -0.441 OA
ATOM     20  O   UNL     1     -34.259  33.768   1.604  0.00  0.00    -0.245 OA
ATOM     21  C   UNL     1     -34.195  30.503   0.623  0.00  0.00    +0.005 C 
ATOM     22  C   UNL     1     -35.033  31.088  -0.444  0.00  0.00    +0.231 C 
ATOM     23  C   UNL     1     -33.816  31.430   1.498  0.00  0.00    +0.077 C 
ATOM     24  C   UNL     1     -34.396  32.695   1.044  0.00  0.00    +0.341 C 
ENDBRANCH   6  21
BRANCH   1  25
ATOM     25  O   UNL     1     -34.485  29.131   3.596  0.00  0.00    -0.387 OA
ATOM     26  H   UNL     1     -33.649  29.573   3.810  0.00  0.00    +0.210 HD
ENDBRANCH   1  25
BRANCH  17  27
ATOM     27  O   UNL     1     -35.391  20.493   3.125  0.00  0.00    -0.382 OA
ATOM     28  H   UNL     1     -34.603  20.635   2.578  0.00  0.00    +0.210 HD
ENDBRANCH  17  27
BRANCH  18  29
ATOM     29  O   UNL     1     -35.590  20.636   5.996  0.00  0.00    -0.382 OA
ATOM     30  H   UNL     1     -36.106  20.043   5.428  0.00  0.00    +0.210 HD
ENDBRANCH  18  29
BRANCH   5  32
ATOM     31  O   UNL     1     -37.739  23.821   3.438  0.00  0.00    -0.288 OA
ATOM     32  C   UNL     1     -36.849  24.501   3.937  0.00  0.00    +0.207 C 
ENDBRANCH   5  32
TORSDOF 5
ENDMDL
MODEL 2
REMARK VINA RESULT:      -6.8      4.284      9.423
REMARK  Name = 212348
REMARK  5 active torsions:
REMARK  status: ('A' for Active; 'I' for Inactive)
REMARK    1  A    between atoms: C_1  and  O_25
REMARK    2  A    between atoms: C_5  and  C_32
REMARK    3  A    between atoms: C_6  and  C_21
REMARK    4  A    between atoms: C_17  and  O_27
REMARK    5  A    between atoms: C_18  and  O_29
REMARK                            x       y       z     vdW  Elec       q    Type
REMARK                         _______ _______ _______ _____ _____    ______ ____
ROOT
ATOM      1  C   UNL     1     -36.255  20.037   0.510  0.00  0.00    +0.088 C 
ATOM      2  C   UNL     1     -36.990  21.072   1.405  0.00  0.00    +0.025 C 
ATOM      3  C   UNL     1     -34.706  20.150   0.558  0.00  0.00    +0.026 C 
ATOM      4  C   UNL     1     -36.493  22.530   1.214  0.00  0.00    +0.009 C 
ATOM      5  C   UNL     1     -37.237  23.530   2.165  0.00  0.00    +0.061 C 
ATOM      6  C   UNL     1     -34.235  19.350  -0.703  0.00  0.00    +0.024 C 
ATOM      7  C   UNL     1     -34.269  21.630   0.373  0.00  0.00    +0.003 C 
ATOM      8  C   UNL     1     -34.959  22.600   1.329  0.00  0.00    +0.001 C 
ATOM      9  C   UNL     1     -38.770  23.389   1.956  0.00  0.00    +0.010 C 
ATOM     10  C   UNL     1     -36.566  20.146  -0.991  0.00  0.00    +0.027 C 
ATOM     11  C   UNL     1     -38.519  20.987   1.226  0.00  0.00    +0.002 C 
ATOM     12  C   UNL     1     -35.405  19.443  -1.705  0.00  0.00    +0.007 C 
ATOM     13  C   UNL     1     -39.269  21.952   2.139  0.00  0.00    +0.001 C 
ATOM     14  C   UNL     1     -36.839  24.999   1.880  0.00  0.00    +0.039 C 
ATOM     15  C   UNL     1     -34.103  19.616   1.873  0.00  0.00    +0.003 C 
ATOM     16  C   UNL     1     -39.568  24.370   2.821  0.00  0.00    +0.032 C 
ATOM     17  C   UNL     1     -37.650  26.017   2.689  0.00  0.00    +0.138 C 
ATOM     18  C   UNL     1     -39.157  25.814   2.541  0.00  0.00    +0.137 C 
ENDROOT
BRANCH   6  21
ATOM     19  O   UNL     1     -34.049  15.634  -0.436  0.00  0.00    -0.441 OA
ATOM     20  O   UNL     1     -31.897  15.226   0.270  0.00  0.00    -0.245 OA
ATOM     21  C   UNL     1     -33.848  17.914  -0.500  0.00  0.00    +0.005 C 
ATOM     22  C   UNL     1     -34.802  16.812  -0.741  0.00  0.00    +0.231 C 
ATOM     23  C   UNL     1     -32.669  17.449  -0.099  0.00  0.00    +0.077 C 
ATOM     24  C   UNL     1     -32.787  15.991  -0.055  0.00  0.00    +0.341 C 
ENDBRANCH   6  21
BRANCH   1  25
ATOM     25  O   UNL     1     -36.674  18.740   0.964  0.00  0.00    -0.387 OA
ATOM     26  H   UNL     1     -37.077  18.255   0.228  0.00  0.00    +0.210 HD
ENDBRANCH   1  25
BRANCH  17  27
ATOM     27  O   UNL     1     -37.302  27.323   2.226  0.00  0.00    -0.382 OA
ATOM     28  H   UNL     1     -36.345  27.453   2.317  0.00  0.00    +0.210 HD
ENDBRANCH  17  27
BRANCH  18  29
ATOM     29  O   UNL     1     -39.823  26.675   3.463  0.00  0.00    -0.382 OA
ATOM     30  H   UNL     1     -39.568  26.440   4.369  0.00  0.00    +0.210 HD
ENDBRANCH  18  29
BRANCH   5  32
ATOM     31  O   UNL     1     -36.002  23.872   4.219  0.00  0.00    -0.288 OA
ATOM     32  C   UNL     1     -36.844  23.230   3.600  0.00  0.00    +0.207 C 
ENDBRANCH   5  32
TORSDOF 5
ENDMDL
MODEL 3
REMARK VINA RESULT:      -6.4      1.728      8.071
REMARK  Name = 212348
REMARK  5 active torsions:
REMARK  status: ('A' for Active; 'I' for Inactive)
REMARK    1  A    between atoms: C_1  and  O_25
REMARK    2  A    between atoms: C_5  and  C_32
REMARK    3  A    between atoms: C_6  and  C_21
REMARK    4  A    between atoms: C_17  and  O_27
REMARK    5  A    between atoms: C_18  and  O_29
REMARK                            x       y       z     vdW  Elec       q    Type
REMARK                         _______ _______ _______ _____ _____    ______ ____
ROOT
ATOM      1  C   UNL     1     -34.302  26.049   4.009  0.00  0.00    +0.088 C 
ATOM      2  C   UNL     1     -33.555  27.332   3.551  0.00  0.00    +0.025 C 
ATOM      3  C   UNL     1     -35.321  25.509   2.967  0.00  0.00    +0.026 C 
ATOM      4  C   UNL     1     -34.493  28.442   3.004  0.00  0.00    +0.009 C 
ATOM      5  C   UNL     1     -33.690  29.699   2.521  0.00  0.00    +0.061 C 
ATOM      6  C   UNL     1     -36.221  24.534   3.799  0.00  0.00    +0.024 C 
ATOM      7  C   UNL     1     -36.223  26.664   2.449  0.00  0.00    +0.003 C 
ATOM      8  C   UNL     1     -35.442  27.871   1.935  0.00  0.00    +0.001 C 
ATOM      9  C   UNL     1     -32.781  30.200   3.678  0.00  0.00    +0.010 C 
ATOM     10  C   UNL     1     -35.154  26.216   5.276  0.00  0.00    +0.027 C 
ATOM     11  C   UNL     1     -32.647  27.884   4.669  0.00  0.00    +0.002 C 
ATOM     12  C   UNL     1     -36.167  25.065   5.247  0.00  0.00    +0.007 C 
ATOM     13  C   UNL     1     -31.855  29.110   4.226  0.00  0.00    +0.001 C 
ATOM     14  C   UNL     1     -34.631  30.855   2.103  0.00  0.00    +0.039 C 
ATOM     15  C   UNL     1     -34.646  24.827   1.760  0.00  0.00    +0.003 C 
ATOM     16  C   UNL     1     -31.996  31.459   3.296  0.00  0.00    +0.032 C 
ATOM     17  C   UNL     1     -33.886  32.151   1.761  0.00  0.00    +0.138 C 
ATOM     18  C   UNL     1     -32.933  32.588   2.872  0.00  0.00    +0.137 C 
ENDROOT
BRANCH   6  21
ATOM     19  O   UNL     1     -35.184  21.029   4.540  0.00  0.00    -0.441 OA
ATOM     20  O   UNL     1     -35.347  19.951   2.513  0.00  0.00    -0.245 OA
ATOM     21  C   UNL     1     -35.861  23.077   3.774  0.00  0.00    +0.005 C 
ATOM     22  C   UNL     1     -35.422  22.366   4.991  0.00  0.00    +0.231 C 
ATOM     23  C   UNL     1     -35.882  22.263   2.723  0.00  0.00    +0.077 C 
ATOM     24  C   UNL     1     -35.450  20.950   3.203  0.00  0.00    +0.341 C 
ENDBRANCH   6  21
BRANCH   1  25
ATOM     25  O   UNL     1     -33.290  25.064   4.272  0.00  0.00    -0.387 OA
ATOM     26  H   UNL     1     -32.892  25.235   5.139  0.00  0.00    +0.210 HD
ENDBRANCH   1  25
BRANCH  17  27
ATOM     27  O   UNL     1     -34.861  33.174   1.547  0.00  0.00    -0.382 OA
ATOM     28  H   UNL     1     -34.586  33.730   0.801  0.00  0.00    +0.210 HD
ENDBRANCH  17  27
BRANCH  18  29
ATOM     29  O   UNL     1     -32.155  33.686   2.396  0.00  0.00    -0.382 OA
ATOM     30  H   UNL     1     -32.345  34.473   2.931  0.00  0.00    +0.210 HD
ENDBRANCH  18  29
BRANCH   5  32
ATOM     31  O   UNL     1     -33.262  29.489   0.148  0.00  0.00    -0.288 OA
ATOM     32  C   UNL     1     -32.873  29.322   1.299  0.00  0.00    +0.207 C 
ENDBRANCH   5  32
TORSDOF 5
ENDMDL
MODEL 4
REMARK VINA RESULT:      -6.2      2.070      8.321
REMARK  Name = 212348
REMARK  5 active torsions:
REMARK  status: ('A' for Active; 'I' for Inactive)
REMARK    1  A    between atoms: C_1  and  O_25
REMARK    2  A    between atoms: C_5  and  C_32
REMARK    3  A    between atoms: C_6  and  C_21
REMARK    4  A    between atoms: C_17  and  O_27
REMARK    5  A    between atoms: C_18  and  O_29
REMARK                            x       y       z     vdW  Elec       q    Type
REMARK                         _______ _______ _______ _____ _____    ______ ____
ROOT
ATOM      1  C   UNL     1     -34.650  27.439   3.082  0.00  0.00    +0.088 C 
ATOM      2  C   UNL     1     -34.240  28.933   3.193  0.00  0.00    +0.025 C 
ATOM      3  C   UNL     1     -33.606  26.454   3.677  0.00  0.00    +0.026 C 
ATOM      4  C   UNL     1     -32.797  29.225   2.700  0.00  0.00    +0.009 C 
ATOM      5  C   UNL     1     -32.417  30.737   2.867  0.00  0.00    +0.061 C 
ATOM      6  C   UNL     1     -34.013  25.069   3.071  0.00  0.00    +0.024 C 
ATOM      7  C   UNL     1     -32.183  26.802   3.158  0.00  0.00    +0.003 C 
ATOM      8  C   UNL     1     -31.793  28.263   3.361  0.00  0.00    +0.001 C 
ATOM      9  C   UNL     1     -33.483  31.613   2.150  0.00  0.00    +0.010 C 
ATOM     10  C   UNL     1     -34.834  26.925   1.646  0.00  0.00    +0.027 C 
ATOM     11  C   UNL     1     -35.257  29.850   2.483  0.00  0.00    +0.002 C 
ATOM     12  C   UNL     1     -34.712  25.399   1.735  0.00  0.00    +0.007 C 
ATOM     13  C   UNL     1     -34.910  31.329   2.628  0.00  0.00    +0.001 C 
ATOM     14  C   UNL     1     -31.032  31.053   2.252  0.00  0.00    +0.039 C 
ATOM     15  C   UNL     1     -33.586  26.456   5.220  0.00  0.00    +0.003 C 
ATOM     16  C   UNL     1     -33.155  33.108   2.230  0.00  0.00    +0.032 C 
ATOM     17  C   UNL     1     -30.687  32.547   2.266  0.00  0.00    +0.138 C 
ATOM     18  C   UNL     1     -31.780  33.405   1.634  0.00  0.00    +0.137 C 
ENDROOT
BRANCH   6  21
ATOM     19  O   UNL     1     -36.766  23.044   4.566  0.00  0.00    -0.441 OA
ATOM     20  O   UNL     1     -35.835  22.142   6.468  0.00  0.00    -0.245 OA
ATOM     21  C   UNL     1     -34.895  24.186   3.905  0.00  0.00    +0.005 C 
ATOM     22  C   UNL     1     -36.295  23.907   3.526  0.00  0.00    +0.231 C 
ATOM     23  C   UNL     1     -34.570  23.565   5.035  0.00  0.00    +0.077 C 
ATOM     24  C   UNL     1     -35.761  22.831   5.465  0.00  0.00    +0.341 C 
ENDBRANCH   6  21
BRANCH   1  25
ATOM     25  O   UNL     1     -35.904  27.312   3.772  0.00  0.00    -0.387 OA
ATOM     26  H   UNL     1     -36.406  28.137   3.682  0.00  0.00    +0.210 HD
ENDBRANCH   1  25
BRANCH  17  27
ATOM     27  O   UNL     1     -29.470  32.722   1.539  0.00  0.00    -0.382 OA
ATOM     28  H   UNL     1     -28.738  32.855   2.162  0.00  0.00    +0.210 HD
ENDBRANCH  17  27
BRANCH  18  29
ATOM     29  O   UNL     1     -31.464  34.779   1.855  0.00  0.00    -0.382 OA
ATOM     30  H   UNL     1     -31.679  35.293   1.061  0.00  0.00    +0.210 HD
ENDBRANCH  18  29
BRANCH   5  32
ATOM     31  O   UNL     1     -31.298  31.002   4.996  0.00  0.00    -0.288 OA
ATOM     32  C   UNL     1     -32.336  31.064   4.346  0.00  0.00    +0.207 C 
ENDBRANCH   5  32
TORSDOF 5
ENDMDL
MODEL 5
REMARK VINA RESULT:      -6.1      2.950      4.530
REMARK  Name = 212348
REMARK  5 active torsions:
REMARK  status: ('A' for Active; 'I' for Inactive)
REMARK    1  A    between atoms: C_1  and  O_25
REMARK    2  A    between atoms: C_5  and  C_32
REMARK    3  A    between atoms: C_6  and  C_21
REMARK    4  A    between atoms: C_17  and  O_27
REMARK    5  A    between atoms: C_18  and  O_29
REMARK                            x       y       z     vdW  Elec       q    Type
REMARK                         _______ _______ _______ _____ _____    ______ ____
ROOT
ATOM      1  C   UNL     1     -33.577  26.075   2.804  0.00  0.00    +0.088 C 
ATOM      2  C   UNL     1     -34.318  24.726   2.590  0.00  0.00    +0.025 C 
ATOM      3  C   UNL     1     -34.030  26.847   4.074  0.00  0.00    +0.026 C 
ATOM      4  C   UNL     1     -35.863  24.834   2.703  0.00  0.00    +0.009 C 
ATOM      5  C   UNL     1     -36.560  23.443   2.518  0.00  0.00    +0.061 C 
ATOM      6  C   UNL     1     -33.497  28.300   3.835  0.00  0.00    +0.024 C 
ATOM      7  C   UNL     1     -35.582  26.913   4.138  0.00  0.00    +0.003 C 
ATOM      8  C   UNL     1     -36.262  25.553   4.004  0.00  0.00    +0.001 C 
ATOM      9  C   UNL     1     -36.102  22.816   1.171  0.00  0.00    +0.010 C 
ATOM     10  C   UNL     1     -33.776  27.104   1.681  0.00  0.00    +0.027 C 
ATOM     11  C   UNL     1     -33.911  24.065   1.257  0.00  0.00    +0.002 C 
ATOM     12  C   UNL     1     -33.433  28.463   2.302  0.00  0.00    +0.007 C 
ATOM     13  C   UNL     1     -34.578  22.708   1.050  0.00  0.00    +0.001 C 
ATOM     14  C   UNL     1     -38.103  23.572   2.495  0.00  0.00    +0.039 C 
ATOM     15  C   UNL     1     -33.506  26.218   5.381  0.00  0.00    +0.003 C 
ATOM     16  C   UNL     1     -36.779  21.469   0.896  0.00  0.00    +0.032 C 
ATOM     17  C   UNL     1     -38.819  22.255   2.172  0.00  0.00    +0.138 C 
ATOM     18  C   UNL     1     -38.300  21.607   0.890  0.00  0.00    +0.137 C 
ENDROOT
BRANCH   6  21
ATOM     19  O   UNL     1     -29.918  29.029   4.589  0.00  0.00    -0.441 OA
ATOM     20  O   UNL     1     -29.914  29.595   6.820  0.00  0.00    -0.245 OA
ATOM     21  C   UNL     1     -32.172  28.654   4.444  0.00  0.00    +0.005 C 
ATOM     22  C   UNL     1     -30.926  28.640   3.651  0.00  0.00    +0.231 C 
ATOM     23  C   UNL     1     -31.935  29.008   5.703  0.00  0.00    +0.077 C 
ATOM     24  C   UNL     1     -30.496  29.251   5.806  0.00  0.00    +0.341 C 
ENDBRANCH   6  21
BRANCH   1  25
ATOM     25  O   UNL     1     -32.178  25.759   2.885  0.00  0.00    -0.387 OA
ATOM     26  H   UNL     1     -31.659  26.576   2.828  0.00  0.00    +0.210 HD
ENDBRANCH   1  25
BRANCH  17  27
ATOM     27  O   UNL     1     -40.212  22.538   2.027  0.00  0.00    -0.382 OA
ATOM     28  H   UNL     1     -40.730  21.814   2.414  0.00  0.00    +0.210 HD
ENDBRANCH  17  27
BRANCH  18  29
ATOM     29  O   UNL     1     -38.885  20.311   0.769  0.00  0.00    -0.382 OA
ATOM     30  H   UNL     1     -38.845  19.856   1.625  0.00  0.00    +0.210 HD
ENDBRANCH  18  29
BRANCH   5  32
ATOM     31  O   UNL     1     -36.565  22.773   4.843  0.00  0.00    -0.288 OA
ATOM     32  C   UNL     1     -36.203  22.552   3.692  0.00  0.00    +0.207 C 
ENDBRANCH   5  32
TORSDOF 5
ENDMDL
MODEL 6
REMARK VINA RESULT:      -6.1      4.412      9.108
REMARK  Name = 212348
REMARK  5 active torsions:
REMARK  status: ('A' for Active; 'I' for Inactive)
REMARK    1  A    between atoms: C_1  and  O_25
REMARK    2  A    between atoms: C_5  and  C_32
REMARK    3  A    between atoms: C_6  and  C_21
REMARK    4  A    between atoms: C_17  and  O_27
REMARK    5  A    between atoms: C_18  and  O_29
REMARK                            x       y       z     vdW  Elec       q    Type
REMARK                         _______ _______ _______ _____ _____    ______ ____
ROOT
ATOM      1  C   UNL     1     -35.221  19.999   0.928  0.00  0.00    +0.088 C 
ATOM      2  C   UNL     1     -35.103  21.213   1.890  0.00  0.00    +0.025 C 
ATOM      3  C   UNL     1     -34.923  20.342  -0.558  0.00  0.00    +0.026 C 
ATOM      4  C   UNL     1     -35.867  22.474   1.404  0.00  0.00    +0.009 C 
ATOM      5  C   UNL     1     -35.686  23.682   2.387  0.00  0.00    +0.061 C 
ATOM      6  C   UNL     1     -35.519  19.128  -1.346  0.00  0.00    +0.024 C 
ATOM      7  C   UNL     1     -35.706  21.616  -0.983  0.00  0.00    +0.003 C 
ATOM      8  C   UNL     1     -35.495  22.807  -0.052  0.00  0.00    +0.001 C 
ATOM      9  C   UNL     1     -36.105  23.243   3.818  0.00  0.00    +0.010 C 
ATOM     10  C   UNL     1     -36.616  19.360   0.865  0.00  0.00    +0.027 C 
ATOM     11  C   UNL     1     -35.521  20.838   3.325  0.00  0.00    +0.002 C 
ATOM     12  C   UNL     1     -36.654  18.581  -0.455  0.00  0.00    +0.007 C 
ATOM     13  C   UNL     1     -35.357  21.997   4.304  0.00  0.00    +0.001 C 
ATOM     14  C   UNL     1     -36.557  24.894   1.975  0.00  0.00    +0.039 C 
ATOM     15  C   UNL     1     -33.423  20.566  -0.837  0.00  0.00    +0.003 C 
ATOM     16  C   UNL     1     -35.999  24.387   4.832  0.00  0.00    +0.032 C 
ATOM     17  C   UNL     1     -36.519  26.043   2.990  0.00  0.00    +0.138 C 
ATOM     18  C   UNL     1     -36.851  25.582   4.407  0.00  0.00    +0.137 C 
ENDROOT
BRANCH   6  21
ATOM     19  O   UNL     1     -33.067  16.815  -2.944  0.00  0.00    -0.441 OA
ATOM     20  O   UNL     1     -32.838  15.099  -1.428  0.00  0.00    -0.245 OA
ATOM     21  C   UNL     1     -34.577  18.018  -1.714  0.00  0.00    +0.005 C 
ATOM     22  C   UNL     1     -33.832  18.024  -2.989  0.00  0.00    +0.231 C 
ATOM     23  C   UNL     1     -34.293  16.936  -0.996  0.00  0.00    +0.077 C 
ATOM     24  C   UNL     1     -33.327  16.160  -1.775  0.00  0.00    +0.341 C 
ENDBRANCH   6  21
BRANCH   1  25
ATOM     25  O   UNL     1     -34.293  19.013   1.407  0.00  0.00    -0.387 OA
ATOM     26  H   UNL     1     -33.438  19.434   1.585  0.00  0.00    +0.210 HD
ENDBRANCH   1  25
BRANCH  17  27
ATOM     27  O   UNL     1     -37.473  27.024   2.577  0.00  0.00    -0.382 OA
ATOM     28  H   UNL     1     -37.972  27.333   3.349  0.00  0.00    +0.210 HD
ENDBRANCH  17  27
BRANCH  18  29
ATOM     29  O   UNL     1     -36.612  26.666   5.304  0.00  0.00    -0.382 OA
ATOM     30  H   UNL     1     -37.213  27.398   5.094  0.00  0.00    +0.210 HD
ENDBRANCH  18  29
BRANCH   5  32
ATOM     31  O   UNL     1     -33.839  25.061   1.650  0.00  0.00    -0.288 OA
ATOM     32  C   UNL     1     -34.239  24.136   2.349  0.00  0.00    +0.207 C 
ENDBRANCH   5  32
TORSDOF 5
ENDMDL
MODEL 7
REMARK VINA RESULT:      -6.0      1.576      2.167
REMARK  Name = 212348
REMARK  5 active torsions:
REMARK  status: ('A' for Active; 'I' for Inactive)
REMARK    1  A    between atoms: C_1  and  O_25
REMARK    2  A    between atoms: C_5  and  C_32
REMARK    3  A    between atoms: C_6  and  C_21
REMARK    4  A    between atoms: C_17  and  O_27
REMARK    5  A    between atoms: C_18  and  O_29
REMARK                            x       y       z     vdW  Elec       q    Type
REMARK                         _______ _______ _______ _____ _____    ______ ____
ROOT
ATOM      1  C   UNL     1     -35.713  27.639   1.671  0.00  0.00    +0.088 C 
ATOM      2  C   UNL     1     -35.992  26.473   2.659  0.00  0.00    +0.025 C 
ATOM      3  C   UNL     1     -36.292  27.412   0.248  0.00  0.00    +0.026 C 
ATOM      4  C   UNL     1     -35.641  25.071   2.089  0.00  0.00    +0.009 C 
ATOM      5  C   UNL     1     -35.977  23.927   3.106  0.00  0.00    +0.061 C 
ATOM      6  C   UNL     1     -35.530  28.456  -0.635  0.00  0.00    +0.024 C 
ATOM      7  C   UNL     1     -35.919  25.992  -0.264  0.00  0.00    +0.003 C 
ATOM      8  C   UNL     1     -36.286  24.872   0.705  0.00  0.00    +0.001 C 
ATOM      9  C   UNL     1     -35.265  24.219   4.457  0.00  0.00    +0.010 C 
ATOM     10  C   UNL     1     -34.225  27.913   1.402  0.00  0.00    +0.027 C 
ATOM     11  C   UNL     1     -35.296  26.703   4.015  0.00  0.00    +0.002 C 
ATOM     12  C   UNL     1     -34.182  28.686   0.078  0.00  0.00    +0.007 C 
ATOM     13  C   UNL     1     -35.603  25.601   5.024  0.00  0.00    +0.001 C 
ATOM     14  C   UNL     1     -35.502  22.545   2.593  0.00  0.00    +0.039 C 
ATOM     15  C   UNL     1     -37.825  27.573   0.188  0.00  0.00    +0.003 C 
ATOM     16  C   UNL     1     -35.508  23.116   5.493  0.00  0.00    +0.032 C 
ATOM     17  C   UNL     1     -35.681  21.421   3.621  0.00  0.00    +0.138 C 
ATOM     18  C   UNL     1     -35.049  21.756   4.970  0.00  0.00    +0.137 C 
ENDROOT
BRANCH   6  21
ATOM     19  O   UNL     1     -36.741  31.984  -0.629  0.00  0.00    -0.441 OA
ATOM     20  O   UNL     1     -38.301  32.048  -2.319  0.00  0.00    -0.245 OA
ATOM     21  C   UNL     1     -36.209  29.772  -0.883  0.00  0.00    +0.005 C 
ATOM     22  C   UNL     1     -35.892  30.971  -0.080  0.00  0.00    +0.231 C 
ATOM     23  C   UNL     1     -37.135  30.037  -1.799  0.00  0.00    +0.077 C 
ATOM     24  C   UNL     1     -37.481  31.451  -1.644  0.00  0.00    +0.341 C 
ENDBRANCH   6  21
BRANCH   1  25
ATOM     25  O   UNL     1     -36.289  28.815   2.262  0.00  0.00    -0.387 OA
ATOM     26  H   UNL     1     -36.270  29.541   1.619  0.00  0.00    +0.210 HD
ENDBRANCH   1  25
BRANCH  17  27
ATOM     27  O   UNL     1     -35.069  20.243   3.093  0.00  0.00    -0.382 OA
ATOM     28  H   UNL     1     -35.011  20.315   2.127  0.00  0.00    +0.210 HD
ENDBRANCH  17  27
BRANCH  18  29
ATOM     29  O   UNL     1     -35.421  20.747   5.908  0.00  0.00    -0.382 OA
ATOM     30  H   UNL     1     -35.817  19.997   5.437  0.00  0.00    +0.210 HD
ENDBRANCH  18  29
BRANCH   5  32
ATOM     31  O   UNL     1     -38.188  23.032   2.695  0.00  0.00    -0.288 OA
ATOM     32  C   UNL     1     -37.482  23.847   3.280  0.00  0.00    +0.207 C 
ENDBRANCH   5  32
TORSDOF 5
ENDMDL
MODEL 8
REMARK VINA RESULT:      -6.0      3.954      9.083
REMARK  Name = 212348
REMARK  5 active torsions:
REMARK  status: ('A' for Active; 'I' for Inactive)
REMARK    1  A    between atoms: C_1  and  O_25
REMARK    2  A    between atoms: C_5  and  C_32
REMARK    3  A    between atoms: C_6  and  C_21
REMARK    4  A    between atoms: C_17  and  O_27
REMARK    5  A    between atoms: C_18  and  O_29
REMARK                            x       y       z     vdW  Elec       q    Type
REMARK                         _______ _______ _______ _____ _____    ______ ____
ROOT
ATOM      1  C   UNL     1     -34.396  21.070   0.139  0.00  0.00    +0.088 C 
ATOM      2  C   UNL     1     -34.881  22.503   0.492  0.00  0.00    +0.025 C 
ATOM      3  C   UNL     1     -35.067  19.952   0.984  0.00  0.00    +0.026 C 
ATOM      4  C   UNL     1     -34.863  22.814   2.014  0.00  0.00    +0.009 C 
ATOM      5  C   UNL     1     -35.397  24.255   2.322  0.00  0.00    +0.061 C 
ATOM      6  C   UNL     1     -34.133  18.714   0.771  0.00  0.00    +0.024 C 
ATOM      7  C   UNL     1     -35.029  20.323   2.493  0.00  0.00    +0.003 C 
ATOM      8  C   UNL     1     -35.590  21.708   2.801  0.00  0.00    +0.001 C 
ATOM      9  C   UNL     1     -34.586  25.288   1.491  0.00  0.00    +0.010 C 
ATOM     10  C   UNL     1     -32.896  20.824   0.364  0.00  0.00    +0.027 C 
ATOM     11  C   UNL     1     -34.098  23.573  -0.294  0.00  0.00    +0.002 C 
ATOM     12  C   UNL     1     -32.739  19.302   0.467  0.00  0.00    +0.007 C 
ATOM     13  C   UNL     1     -34.596  24.988  -0.011  0.00  0.00    +0.001 C 
ATOM     14  C   UNL     1     -35.252  24.613   3.821  0.00  0.00    +0.039 C 
ATOM     15  C   UNL     1     -36.530  19.683   0.577  0.00  0.00    +0.003 C 
ATOM     16  C   UNL     1     -35.020  26.731   1.773  0.00  0.00    +0.032 C 
ATOM     17  C   UNL     1     -35.629  26.065   4.138  0.00  0.00    +0.138 C 
ATOM     18  C   UNL     1     -34.887  27.068   3.257  0.00  0.00    +0.137 C 
ENDROOT
BRANCH   6  21
ATOM     19  O   UNL     1     -34.595  16.742  -2.362  0.00  0.00    -0.441 OA
ATOM     20  O   UNL     1     -36.067  15.075  -1.768  0.00  0.00    -0.245 OA
ATOM     21  C   UNL     1     -34.521  17.737  -0.301  0.00  0.00    +0.005 C 
ATOM     22  C   UNL     1     -33.986  17.839  -1.674  0.00  0.00    +0.231 C 
ATOM     23  C   UNL     1     -35.350  16.704  -0.184  0.00  0.00    +0.077 C 
ATOM     24  C   UNL     1     -35.403  16.061  -1.498  0.00  0.00    +0.341 C 
ENDBRANCH   6  21
BRANCH   1  25
ATOM     25  O   UNL     1     -34.682  20.879  -1.255  0.00  0.00    -0.387 OA
ATOM     26  H   UNL     1     -34.464  21.689  -1.743  0.00  0.00    +0.210 HD
ENDBRANCH   1  25
BRANCH  17  27
ATOM     27  O   UNL     1     -35.306  26.312   5.508  0.00  0.00    -0.382 OA
ATOM     28  H   UNL     1     -35.486  27.242   5.719  0.00  0.00    +0.210 HD
ENDBRANCH  17  27
BRANCH  18  29
ATOM     29  O   UNL     1     -35.430  28.366   3.490  0.00  0.00    -0.382 OA
ATOM     30  H   UNL     1     -35.583  28.811   2.642  0.00  0.00    +0.210 HD
ENDBRANCH  18  29
BRANCH   5  32
ATOM     31  O   UNL     1     -37.762  24.036   2.789  0.00  0.00    -0.288 OA
ATOM     32  C   UNL     1     -36.876  24.315   1.988  0.00  0.00    +0.207 C 
ENDBRANCH   5  32
TORSDOF 5
ENDMDL
MODEL 9
REMARK VINA RESULT:      -5.9      4.702      9.407
REMARK  Name = 212348
REMARK  5 active torsions:
REMARK  status: ('A' for Active; 'I' for Inactive)
REMARK    1  A    between atoms: C_1  and  O_25
REMARK    2  A    between atoms: C_5  and  C_32
REMARK    3  A    between atoms: C_6  and  C_21
REMARK    4  A    between atoms: C_17  and  O_27
REMARK    5  A    between atoms: C_18  and  O_29
REMARK                            x       y       z     vdW  Elec       q    Type
REMARK                         _______ _______ _______ _____ _____    ______ ____
ROOT
ATOM      1  C   UNL     1     -33.844  20.579  -0.318  0.00  0.00    +0.088 C 
ATOM      2  C   UNL     1     -34.944  21.642  -0.052  0.00  0.00    +0.025 C 
ATOM      3  C   UNL     1     -33.982  19.298   0.551  0.00  0.00    +0.026 C 
ATOM      4  C   UNL     1     -35.155  21.964   1.452  0.00  0.00    +0.009 C 
ATOM      5  C   UNL     1     -36.300  23.012   1.671  0.00  0.00    +0.061 C 
ATOM      6  C   UNL     1     -32.579  18.615   0.434  0.00  0.00    +0.024 C 
ATOM      7  C   UNL     1     -34.202  19.682   2.042  0.00  0.00    +0.003 C 
ATOM      8  C   UNL     1     -35.346  20.668   2.262  0.00  0.00    +0.001 C 
ATOM      9  C   UNL     1     -35.999  24.281   0.825  0.00  0.00    +0.010 C 
ATOM     10  C   UNL     1     -32.411  21.047  -0.023  0.00  0.00    +0.027 C 
ATOM     11  C   UNL     1     -34.687  22.933  -0.857  0.00  0.00    +0.002 C 
ATOM     12  C   UNL     1     -31.588  19.765   0.158  0.00  0.00    +0.007 C 
ATOM     13  C   UNL     1     -35.786  23.973  -0.660  0.00  0.00    +0.001 C 
ATOM     14  C   UNL     1     -36.418  23.433   3.156  0.00  0.00    +0.039 C 
ATOM     15  C   UNL     1     -35.140  18.385   0.099  0.00  0.00    +0.003 C 
ATOM     16  C   UNL     1     -37.054  25.375   1.022  0.00  0.00    +0.032 C 
ATOM     17  C   UNL     1     -37.429  24.562   3.389  0.00  0.00    +0.138 C 
ATOM     18  C   UNL     1     -37.172  25.771   2.492  0.00  0.00    +0.137 C 
ENDROOT
BRANCH   6  21
ATOM     19  O   UNL     1     -32.393  15.449  -1.530  0.00  0.00    -0.441 OA
ATOM     20  O   UNL     1     -31.791  16.131  -3.644  0.00  0.00    -0.245 OA
ATOM     21  C   UNL     1     -32.421  17.544  -0.606  0.00  0.00    +0.005 C 
ATOM     22  C   UNL     1     -32.641  16.118  -0.289  0.00  0.00    +0.231 C 
ATOM     23  C   UNL     1     -32.083  17.706  -1.881  0.00  0.00    +0.077 C 
ATOM     24  C   UNL     1     -32.062  16.371  -2.481  0.00  0.00    +0.341 C 
ENDBRANCH   6  21
BRANCH   1  25
ATOM     25  O   UNL     1     -33.932  20.246  -1.712  0.00  0.00    -0.387 OA
ATOM     26  H   UNL     1     -33.269  19.571  -1.926  0.00  0.00    +0.210 HD
ENDBRANCH   1  25
BRANCH  17  27
ATOM     27  O   UNL     1     -37.331  24.961   4.758  0.00  0.00    -0.382 OA
ATOM     28  H   UNL     1     -36.667  25.663   4.843  0.00  0.00    +0.210 HD
ENDBRANCH  17  27
BRANCH  18  29
ATOM     29  O   UNL     1     -38.256  26.686   2.643  0.00  0.00    -0.382 OA
ATOM     30  H   UNL     1     -38.576  26.662   3.558  0.00  0.00    +0.210 HD
ENDBRANCH  18  29
BRANCH   5  32
ATOM     31  O   UNL     1     -38.376  21.835   2.073  0.00  0.00    -0.288 OA
ATOM     32  C   UNL     1     -37.624  22.385   1.276  0.00  0.00    +0.207 C 
ENDBRANCH   5  32
TORSDOF 5
ENDMDL
