MODEL 1
REMARK VINA RESULT:      -6.0      0.000      0.000
REMARK  Name = 5464105
REMARK  6 active torsions:
REMARK  status: ('A' for Active; 'I' for Inactive)
REMARK    1  A    between atoms: C_1  and  C_14
REMARK    2  A    between atoms: C_3  and  N_9
REMARK    3  A    between atoms: C_5  and  O_10
REMARK    4  A    between atoms: C_6  and  O_12
REMARK    5  A    between atoms: C_15  and  C_17
REMARK    6  A    between atoms: C_15  and  C_20
REMARK                            x       y       z     vdW  Elec       q    Type
REMARK                         _______ _______ _______ _____ _____    ______ ____
ROOT
ATOM      1  C   UNL     1     -34.581  25.787   5.416  0.00  0.00    +0.005 C 
ATOM      2  C   UNL     1     -34.421  24.410   5.397  0.00  0.00    +0.027 C 
ATOM      3  C   UNL     1     -35.423  23.611   4.844  0.00  0.00    +0.179 C 
ATOM      4  C   UNL     1     -35.718  26.385   4.895  0.00  0.00    +0.040 C 
ATOM      5  C   UNL     1     -36.572  24.200   4.317  0.00  0.00    +0.190 C 
ATOM      6  C   UNL     1     -36.720  25.587   4.343  0.00  0.00    +0.169 C 
ENDROOT
BRANCH   3   9
ATOM      7  O   UNL     1     -35.472  21.578   3.758  0.00  0.00    -0.126 OA
ATOM      8  O   UNL     1     -34.891  21.618   5.874  0.00  0.00    -0.126 OA
ATOM      9  N   UNL     1     -35.254  22.199   4.825  0.00  0.00    +0.061 N 
ENDBRANCH   3   9
BRANCH   5  10
ATOM     10  O   UNL     1     -37.559  23.430   3.774  0.00  0.00    -0.502 OA
ATOM     11  H   UNL     1     -37.347  22.777   3.137  0.00  0.00    +0.292 HD
ENDBRANCH   5  10
BRANCH   6  12
ATOM     12  O   UNL     1     -37.838  26.175   3.832  0.00  0.00    -0.503 OA
ATOM     13  H   UNL     1     -37.763  26.944   3.303  0.00  0.00    +0.292 HD
ENDBRANCH   6  12
BRANCH   1  14
ATOM     14  C   UNL     1     -33.525  26.629   5.998  0.00  0.00    +0.006 C 
ATOM     15  C   UNL     1     -32.631  27.375   5.322  0.00  0.00    +0.069 C 
BRANCH  15  17
ATOM     16  O   UNL     1     -30.536  27.673   6.388  0.00  0.00    -0.291 OA
ATOM     17  C   UNL     1     -31.605  28.188   6.059  0.00  0.00    +0.176 C 
ATOM     18  C   UNL     1     -31.895  29.628   6.402  0.00  0.00    +0.077 C 
ENDBRANCH  15  17
BRANCH  15  20
ATOM     19  O   UNL     1     -32.107  26.476   3.181  0.00  0.00    -0.291 OA
ATOM     20  C   UNL     1     -32.645  27.375   3.824  0.00  0.00    +0.176 C 
ATOM     21  C   UNL     1     -33.322  28.533   3.139  0.00  0.00    +0.077 C 
ENDBRANCH  15  20
ENDBRANCH   1  14
TORSDOF 6
ENDMDL
MODEL 2
REMARK VINA RESULT:      -5.9      1.573      2.979
REMARK  Name = 5464105
REMARK  6 active torsions:
REMARK  status: ('A' for Active; 'I' for Inactive)
REMARK    1  A    between atoms: C_1  and  C_14
REMARK    2  A    between atoms: C_3  and  N_9
REMARK    3  A    between atoms: C_5  and  O_10
REMARK    4  A    between atoms: C_6  and  O_12
REMARK    5  A    between atoms: C_15  and  C_17
REMARK    6  A    between atoms: C_15  and  C_20
REMARK                            x       y       z     vdW  Elec       q    Type
REMARK                         _______ _______ _______ _____ _____    ______ ____
ROOT
ATOM      1  C   UNL     1     -35.334  24.921   5.147  0.00  0.00    +0.005 C 
ATOM      2  C   UNL     1     -36.502  25.436   4.607  0.00  0.00    +0.027 C 
ATOM      3  C   UNL     1     -37.359  24.594   3.899  0.00  0.00    +0.179 C 
ATOM      4  C   UNL     1     -35.000  23.583   4.994  0.00  0.00    +0.040 C 
ATOM      5  C   UNL     1     -37.037  23.246   3.739  0.00  0.00    +0.190 C 
ATOM      6  C   UNL     1     -35.858  22.741   4.286  0.00  0.00    +0.169 C 
ENDROOT
BRANCH   3   9
ATOM      7  O   UNL     1     -39.655  24.614   3.680  0.00  0.00    -0.126 OA
ATOM      8  O   UNL     1     -38.484  26.090   2.553  0.00  0.00    -0.126 OA
ATOM      9  N   UNL     1     -38.559  25.125   3.350  0.00  0.00    +0.061 N 
ENDBRANCH   3   9
BRANCH   5  10
ATOM     10  O   UNL     1     -37.867  22.412   3.048  0.00  0.00    -0.502 OA
ATOM     11  H   UNL     1     -38.622  22.757   2.613  0.00  0.00    +0.292 HD
ENDBRANCH   5  10
BRANCH   6  12
ATOM     12  O   UNL     1     -35.531  21.427   4.136  0.00  0.00    -0.503 OA
ATOM     13  H   UNL     1     -36.197  20.770   4.182  0.00  0.00    +0.292 HD
ENDBRANCH   6  12
BRANCH   1  14
ATOM     14  C   UNL     1     -34.429  25.809   5.893  0.00  0.00    +0.006 C 
ATOM     15  C   UNL     1     -33.502  26.632   5.370  0.00  0.00    +0.069 C 
BRANCH  15  17
ATOM     16  O   UNL     1     -32.710  27.344   7.486  0.00  0.00    -0.291 OA
ATOM     17  C   UNL     1     -32.647  27.484   6.264  0.00  0.00    +0.176 C 
ATOM     18  C   UNL     1     -31.726  28.515   5.662  0.00  0.00    +0.077 C 
ENDBRANCH  15  17
BRANCH  15  20
ATOM     19  O   UNL     1     -32.530  25.915   3.319  0.00  0.00    -0.291 OA
ATOM     20  C   UNL     1     -33.305  26.681   3.885  0.00  0.00    +0.176 C 
ATOM     21  C   UNL     1     -34.077  27.725   3.120  0.00  0.00    +0.077 C 
ENDBRANCH  15  20
ENDBRANCH   1  14
TORSDOF 6
ENDMDL
MODEL 3
REMARK VINA RESULT:      -5.7      2.838      6.099
REMARK  Name = 5464105
REMARK  6 active torsions:
REMARK  status: ('A' for Active; 'I' for Inactive)
REMARK    1  A    between atoms: C_1  and  C_14
REMARK    2  A    between atoms: C_3  and  N_9
REMARK    3  A    between atoms: C_5  and  O_10
REMARK    4  A    between atoms: C_6  and  O_12
REMARK    5  A    between atoms: C_15  and  C_17
REMARK    6  A    between atoms: C_15  and  C_20
REMARK                            x       y       z     vdW  Elec       q    Type
REMARK                         _______ _______ _______ _____ _____    ______ ____
ROOT
ATOM      1  C   UNL     1     -34.865  24.908   2.385  0.00  0.00    +0.005 C 
ATOM      2  C   UNL     1     -33.841  25.441   3.152  0.00  0.00    +0.027 C 
ATOM      3  C   UNL     1     -33.884  26.789   3.510  0.00  0.00    +0.179 C 
ATOM      4  C   UNL     1     -35.931  25.689   1.966  0.00  0.00    +0.040 C 
ATOM      5  C   UNL     1     -34.951  27.586   3.097  0.00  0.00    +0.190 C 
ATOM      6  C   UNL     1     -35.974  27.037   2.325  0.00  0.00    +0.169 C 
ENDROOT
BRANCH   3   9
ATOM      7  O   UNL     1     -33.103  27.798   5.431  0.00  0.00    -0.126 OA
ATOM      8  O   UNL     1     -31.666  27.327   3.841  0.00  0.00    -0.126 OA
ATOM      9  N   UNL     1     -32.832  27.331   4.300  0.00  0.00    +0.061 N 
ENDBRANCH   3   9
BRANCH   5  10
ATOM     10  O   UNL     1     -35.004  28.906   3.441  0.00  0.00    -0.502 OA
ATOM     11  H   UNL     1     -35.736  29.235   3.924  0.00  0.00    +0.292 HD
ENDBRANCH   5  10
BRANCH   6  12
ATOM     12  O   UNL     1     -37.022  27.805   1.914  0.00  0.00    -0.503 OA
ATOM     13  H   UNL     1     -37.556  28.246   2.545  0.00  0.00    +0.292 HD
ENDBRANCH   6  12
BRANCH   1  14
ATOM     14  C   UNL     1     -34.820  23.487   2.007  0.00  0.00    +0.006 C 
ATOM     15  C   UNL     1     -35.364  22.459   2.686  0.00  0.00    +0.069 C 
BRANCH  15  17
ATOM     16  O   UNL     1     -35.922  20.158   2.665  0.00  0.00    -0.291 OA
ATOM     17  C   UNL     1     -35.236  21.054   2.173  0.00  0.00    +0.176 C 
ATOM     18  C   UNL     1     -34.258  20.746   1.067  0.00  0.00    +0.077 C 
ENDBRANCH  15  17
BRANCH  15  20
ATOM     19  O   UNL     1     -37.246  23.109   3.990  0.00  0.00    -0.291 OA
ATOM     20  C   UNL     1     -36.081  22.719   3.976  0.00  0.00    +0.176 C 
ATOM     21  C   UNL     1     -35.310  22.505   5.251  0.00  0.00    +0.077 C 
ENDBRANCH  15  20
ENDBRANCH   1  14
TORSDOF 6
ENDMDL
MODEL 4
REMARK VINA RESULT:      -5.7      3.217      6.061
REMARK  Name = 5464105
REMARK  6 active torsions:
REMARK  status: ('A' for Active; 'I' for Inactive)
REMARK    1  A    between atoms: C_1  and  C_14
REMARK    2  A    between atoms: C_3  and  N_9
REMARK    3  A    between atoms: C_5  and  O_10
REMARK    4  A    between atoms: C_6  and  O_12
REMARK    5  A    between atoms: C_15  and  C_17
REMARK    6  A    between atoms: C_15  and  C_20
REMARK                            x       y       z     vdW  Elec       q    Type
REMARK                         _______ _______ _______ _____ _____    ______ ____
ROOT
ATOM      1  C   UNL     1     -35.827  22.900   3.559  0.00  0.00    +0.005 C 
ATOM      2  C   UNL     1     -34.779  23.647   4.073  0.00  0.00    +0.027 C 
ATOM      3  C   UNL     1     -35.036  24.909   4.609  0.00  0.00    +0.179 C 
ATOM      4  C   UNL     1     -37.127  23.383   3.567  0.00  0.00    +0.040 C 
ATOM      5  C   UNL     1     -36.339  25.407   4.625  0.00  0.00    +0.190 C 
ATOM      6  C   UNL     1     -37.384  24.645   4.103  0.00  0.00    +0.169 C 
ENDROOT
BRANCH   3   9
ATOM      7  O   UNL     1     -32.970  25.912   4.405  0.00  0.00    -0.126 OA
ATOM      8  O   UNL     1     -34.029  26.082   6.320  0.00  0.00    -0.126 OA
ATOM      9  N   UNL     1     -33.959  25.672   5.138  0.00  0.00    +0.061 N 
ENDBRANCH   3   9
BRANCH   5  10
ATOM     10  O   UNL     1     -36.603  26.641   5.146  0.00  0.00    -0.502 OA
ATOM     11  H   UNL     1     -36.062  27.371   4.920  0.00  0.00    +0.292 HD
ENDBRANCH   5  10
BRANCH   6  12
ATOM     12  O   UNL     1     -38.661  25.121   4.112  0.00  0.00    -0.503 OA
ATOM     13  H   UNL     1     -38.817  26.045   4.134  0.00  0.00    +0.292 HD
ENDBRANCH   6  12
BRANCH   1  14
ATOM     14  C   UNL     1     -35.557  21.569   2.993  0.00  0.00    +0.006 C 
ATOM     15  C   UNL     1     -35.306  21.283   1.702  0.00  0.00    +0.069 C 
BRANCH  15  17
ATOM     16  O   UNL     1     -35.945  19.216   0.737  0.00  0.00    -0.291 OA
ATOM     17  C   UNL     1     -35.046  19.868   1.271  0.00  0.00    +0.176 C 
ATOM     18  C   UNL     1     -33.691  19.249   1.506  0.00  0.00    +0.077 C 
ENDBRANCH  15  17
BRANCH  15  20
ATOM     19  O   UNL     1     -36.344  22.728   0.120  0.00  0.00    -0.291 OA
ATOM     20  C   UNL     1     -35.308  22.382   0.684  0.00  0.00    +0.176 C 
ATOM     21  C   UNL     1     -33.986  23.029   0.361  0.00  0.00    +0.077 C 
ENDBRANCH  15  20
ENDBRANCH   1  14
TORSDOF 6
ENDMDL
MODEL 5
REMARK VINA RESULT:      -5.5      3.492      6.361
REMARK  Name = 5464105
REMARK  6 active torsions:
REMARK  status: ('A' for Active; 'I' for Inactive)
REMARK    1  A    between atoms: C_1  and  C_14
REMARK    2  A    between atoms: C_3  and  N_9
REMARK    3  A    between atoms: C_5  and  O_10
REMARK    4  A    between atoms: C_6  and  O_12
REMARK    5  A    between atoms: C_15  and  C_17
REMARK    6  A    between atoms: C_15  and  C_20
REMARK                            x       y       z     vdW  Elec       q    Type
REMARK                         _______ _______ _______ _____ _____    ______ ____
ROOT
ATOM      1  C   UNL     1     -35.938  22.744   3.472  0.00  0.00    +0.005 C 
ATOM      2  C   UNL     1     -37.150  23.344   3.169  0.00  0.00    +0.027 C 
ATOM      3  C   UNL     1     -37.452  24.592   3.716  0.00  0.00    +0.179 C 
ATOM      4  C   UNL     1     -35.020  23.360   4.310  0.00  0.00    +0.040 C 
ATOM      5  C   UNL     1     -36.537  25.223   4.559  0.00  0.00    +0.190 C 
ATOM      6  C   UNL     1     -35.322  24.607   4.857  0.00  0.00    +0.169 C 
ENDROOT
BRANCH   3   9
ATOM      7  O   UNL     1     -38.692  26.328   2.842  0.00  0.00    -0.126 OA
ATOM      8  O   UNL     1     -39.757  24.606   3.690  0.00  0.00    -0.126 OA
ATOM      9  N   UNL     1     -38.695  25.206   3.401  0.00  0.00    +0.061 N 
ENDBRANCH   3   9
BRANCH   5  10
ATOM     10  O   UNL     1     -36.821  26.443   5.101  0.00  0.00    -0.502 OA
ATOM     11  H   UNL     1     -36.167  26.902   5.590  0.00  0.00    +0.292 HD
ENDBRANCH   5  10
BRANCH   6  12
ATOM     12  O   UNL     1     -34.420  25.212   5.680  0.00  0.00    -0.503 OA
ATOM     13  H   UNL     1     -34.259  24.865   6.535  0.00  0.00    +0.292 HD
ENDBRANCH   6  12
BRANCH   1  14
ATOM     14  C   UNL     1     -35.618  21.429   2.896  0.00  0.00    +0.006 C 
ATOM     15  C   UNL     1     -35.253  21.178   1.625  0.00  0.00    +0.069 C 
BRANCH  15  17
ATOM     16  O   UNL     1     -35.819  19.125   0.587  0.00  0.00    -0.291 OA
ATOM     17  C   UNL     1     -34.957  19.775   1.180  0.00  0.00    +0.176 C 
ATOM     18  C   UNL     1     -33.609  19.164   1.472  0.00  0.00    +0.077 C 
ENDBRANCH  15  17
BRANCH  15  20
ATOM     19  O   UNL     1     -36.122  22.618  -0.059  0.00  0.00    -0.291 OA
ATOM     20  C   UNL     1     -35.163  22.305   0.642  0.00  0.00    +0.176 C 
ATOM     21  C   UNL     1     -33.843  23.022   0.530  0.00  0.00    +0.077 C 
ENDBRANCH  15  20
ENDBRANCH   1  14
TORSDOF 6
ENDMDL
MODEL 6
REMARK VINA RESULT:      -5.5      2.949      4.983
REMARK  Name = 5464105
REMARK  6 active torsions:
REMARK  status: ('A' for Active; 'I' for Inactive)
REMARK    1  A    between atoms: C_1  and  C_14
REMARK    2  A    between atoms: C_3  and  N_9
REMARK    3  A    between atoms: C_5  and  O_10
REMARK    4  A    between atoms: C_6  and  O_12
REMARK    5  A    between atoms: C_15  and  C_17
REMARK    6  A    between atoms: C_15  and  C_20
REMARK                            x       y       z     vdW  Elec       q    Type
REMARK                         _______ _______ _______ _____ _____    ______ ____
ROOT
ATOM      1  C   UNL     1     -36.294  23.343   2.455  0.00  0.00    +0.005 C 
ATOM      2  C   UNL     1     -37.556  23.899   2.315  0.00  0.00    +0.027 C 
ATOM      3  C   UNL     1     -38.659  23.062   2.145  0.00  0.00    +0.179 C 
ATOM      4  C   UNL     1     -36.107  21.969   2.427  0.00  0.00    +0.040 C 
ATOM      5  C   UNL     1     -38.485  21.678   2.116  0.00  0.00    +0.190 C 
ATOM      6  C   UNL     1     -37.210  21.132   2.257  0.00  0.00    +0.169 C 
ENDROOT
BRANCH   3   9
ATOM      7  O   UNL     1     -40.260  24.617   2.722  0.00  0.00    -0.126 OA
ATOM      8  O   UNL     1     -40.746  23.145   1.168  0.00  0.00    -0.126 OA
ATOM      9  N   UNL     1     -39.953  23.636   2.005  0.00  0.00    +0.061 N 
ENDBRANCH   3   9
BRANCH   5  10
ATOM     10  O   UNL     1     -39.556  20.848   1.950  0.00  0.00    -0.502 OA
ATOM     11  H   UNL     1     -40.259  21.098   1.383  0.00  0.00    +0.292 HD
ENDBRANCH   5  10
BRANCH   6  12
ATOM     12  O   UNL     1     -37.026  19.782   2.230  0.00  0.00    -0.503 OA
ATOM     13  H   UNL     1     -37.261  19.292   1.466  0.00  0.00    +0.292 HD
ENDBRANCH   6  12
BRANCH   1  14
ATOM     14  C   UNL     1     -35.132  24.226   2.635  0.00  0.00    +0.006 C 
ATOM     15  C   UNL     1     -34.693  24.748   3.796  0.00  0.00    +0.069 C 
BRANCH  15  17
ATOM     16  O   UNL     1     -33.081  26.091   4.895  0.00  0.00    -0.291 OA
ATOM     17  C   UNL     1     -33.484  25.638   3.823  0.00  0.00    +0.176 C 
ATOM     18  C   UNL     1     -32.777  25.982   2.536  0.00  0.00    +0.077 C 
ENDBRANCH  15  17
BRANCH  15  20
ATOM     19  O   UNL     1     -36.259  25.246   5.518  0.00  0.00    -0.291 OA
ATOM     20  C   UNL     1     -35.432  24.457   5.066  0.00  0.00    +0.176 C 
ATOM     21  C   UNL     1     -35.102  23.172   5.780  0.00  0.00    +0.077 C 
ENDBRANCH  15  20
ENDBRANCH   1  14
TORSDOF 6
ENDMDL
MODEL 7
REMARK VINA RESULT:      -5.3      3.117      4.941
REMARK  Name = 5464105
REMARK  6 active torsions:
REMARK  status: ('A' for Active; 'I' for Inactive)
REMARK    1  A    between atoms: C_1  and  C_14
REMARK    2  A    between atoms: C_3  and  N_9
REMARK    3  A    between atoms: C_5  and  O_10
REMARK    4  A    between atoms: C_6  and  O_12
REMARK    5  A    between atoms: C_15  and  C_17
REMARK    6  A    between atoms: C_15  and  C_20
REMARK                            x       y       z     vdW  Elec       q    Type
REMARK                         _______ _______ _______ _____ _____    ______ ____
ROOT
ATOM      1  C   UNL     1     -36.383  22.544   3.453  0.00  0.00    +0.005 C 
ATOM      2  C   UNL     1     -37.615  22.504   2.819  0.00  0.00    +0.027 C 
ATOM      3  C   UNL     1     -37.901  21.457   1.943  0.00  0.00    +0.179 C 
ATOM      4  C   UNL     1     -35.429  21.561   3.233  0.00  0.00    +0.040 C 
ATOM      5  C   UNL     1     -36.951  20.462   1.713  0.00  0.00    +0.190 C 
ATOM      6  C   UNL     1     -35.715  20.514   2.357  0.00  0.00    +0.169 C 
ENDROOT
BRANCH   3   9
ATOM      7  O   UNL     1     -40.195  21.234   1.988  0.00  0.00    -0.126 OA
ATOM      8  O   UNL     1     -39.217  21.572   0.053  0.00  0.00    -0.126 OA
ATOM      9  N   UNL     1     -39.167  21.419   1.296  0.00  0.00    +0.061 N 
ENDBRANCH   3   9
BRANCH   5  10
ATOM     10  O   UNL     1     -37.219  19.432   0.858  0.00  0.00    -0.502 OA
ATOM     11  H   UNL     1     -36.521  18.892   0.542  0.00  0.00    +0.292 HD
ENDBRANCH   5  10
BRANCH   6  12
ATOM     12  O   UNL     1     -34.779  19.549   2.140  0.00  0.00    -0.503 OA
ATOM     13  H   UNL     1     -34.765  19.082   1.327  0.00  0.00    +0.292 HD
ENDBRANCH   6  12
BRANCH   1  14
ATOM     14  C   UNL     1     -36.080  23.648   4.376  0.00  0.00    +0.006 C 
ATOM     15  C   UNL     1     -35.510  24.826   4.059  0.00  0.00    +0.069 C 
BRANCH  15  17
ATOM     16  O   UNL     1     -36.215  26.441   5.641  0.00  0.00    -0.291 OA
ATOM     17  C   UNL     1     -35.262  25.862   5.116  0.00  0.00    +0.176 C 
ATOM     18  C   UNL     1     -33.849  26.198   5.521  0.00  0.00    +0.077 C 
ENDBRANCH  15  17
BRANCH  15  20
ATOM     19  O   UNL     1     -34.013  24.714   2.212  0.00  0.00    -0.291 OA
ATOM     20  C   UNL     1     -35.099  25.093   2.643  0.00  0.00    +0.176 C 
ATOM     21  C   UNL     1     -36.059  25.867   1.778  0.00  0.00    +0.077 C 
ENDBRANCH  15  20
ENDBRANCH   1  14
TORSDOF 6
ENDMDL
MODEL 8
REMARK VINA RESULT:      -5.2      3.528      5.614
REMARK  Name = 5464105
REMARK  6 active torsions:
REMARK  status: ('A' for Active; 'I' for Inactive)
REMARK    1  A    between atoms: C_1  and  C_14
REMARK    2  A    between atoms: C_3  and  N_9
REMARK    3  A    between atoms: C_5  and  O_10
REMARK    4  A    between atoms: C_6  and  O_12
REMARK    5  A    between atoms: C_15  and  C_17
REMARK    6  A    between atoms: C_15  and  C_20
REMARK                            x       y       z     vdW  Elec       q    Type
REMARK                         _______ _______ _______ _____ _____    ______ ____
ROOT
ATOM      1  C   UNL     1     -35.438  22.209   1.961  0.00  0.00    +0.005 C 
ATOM      2  C   UNL     1     -36.814  22.213   1.796  0.00  0.00    +0.027 C 
ATOM      3  C   UNL     1     -37.461  21.041   1.405  0.00  0.00    +0.179 C 
ATOM      4  C   UNL     1     -34.691  21.061   1.743  0.00  0.00    +0.040 C 
ATOM      5  C   UNL     1     -36.723  19.878   1.183  0.00  0.00    +0.190 C 
ATOM      6  C   UNL     1     -35.338  19.888   1.352  0.00  0.00    +0.169 C 
ENDROOT
BRANCH   3   9
ATOM      7  O   UNL     1     -39.582  21.610   2.109  0.00  0.00    -0.126 OA
ATOM      8  O   UNL     1     -39.368  20.495   0.230  0.00  0.00    -0.126 OA
ATOM      9  N   UNL     1     -38.874  21.048   1.240  0.00  0.00    +0.061 N 
ENDBRANCH   3   9
BRANCH   5  10
ATOM     10  O   UNL     1     -37.344  18.725   0.800  0.00  0.00    -0.502 OA
ATOM     11  H   UNL     1     -36.902  17.903   0.888  0.00  0.00    +0.292 HD
ENDBRANCH   5  10
BRANCH   6  12
ATOM     12  O   UNL     1     -34.605  18.760   1.137  0.00  0.00    -0.503 OA
ATOM     13  H   UNL     1     -34.269  18.574   0.282  0.00  0.00    +0.292 HD
ENDBRANCH   6  12
BRANCH   1  14
ATOM     14  C   UNL     1     -34.755  23.445   2.373  0.00  0.00    +0.006 C 
ATOM     15  C   UNL     1     -34.734  23.974   3.611  0.00  0.00    +0.069 C 
BRANCH  15  17
ATOM     16  O   UNL     1     -33.705  25.559   5.039  0.00  0.00    -0.291 OA
ATOM     17  C   UNL     1     -33.990  25.250   3.881  0.00  0.00    +0.176 C 
ATOM     18  C   UNL     1     -33.607  26.152   2.735  0.00  0.00    +0.077 C 
ENDBRANCH  15  17
BRANCH  15  20
ATOM     19  O   UNL     1     -36.632  23.616   5.003  0.00  0.00    -0.291 OA
ATOM     20  C   UNL     1     -35.479  23.297   4.720  0.00  0.00    +0.176 C 
ATOM     21  C   UNL     1     -34.750  22.228   5.491  0.00  0.00    +0.077 C 
ENDBRANCH  15  20
ENDBRANCH   1  14
TORSDOF 6
ENDMDL
MODEL 9
REMARK VINA RESULT:      -5.2      3.108      6.379
REMARK  Name = 5464105
REMARK  6 active torsions:
REMARK  status: ('A' for Active; 'I' for Inactive)
REMARK    1  A    between atoms: C_1  and  C_14
REMARK    2  A    between atoms: C_3  and  N_9
REMARK    3  A    between atoms: C_5  and  O_10
REMARK    4  A    between atoms: C_6  and  O_12
REMARK    5  A    between atoms: C_15  and  C_17
REMARK    6  A    between atoms: C_15  and  C_20
REMARK                            x       y       z     vdW  Elec       q    Type
REMARK                         _______ _______ _______ _____ _____    ______ ____
ROOT
ATOM      1  C   UNL     1     -34.826  25.077   2.479  0.00  0.00    +0.005 C 
ATOM      2  C   UNL     1     -35.724  25.882   1.796  0.00  0.00    +0.027 C 
ATOM      3  C   UNL     1     -35.817  27.235   2.123  0.00  0.00    +0.179 C 
ATOM      4  C   UNL     1     -34.018  25.592   3.482  0.00  0.00    +0.040 C 
ATOM      5  C   UNL     1     -35.010  27.766   3.129  0.00  0.00    +0.190 C 
ATOM      6  C   UNL     1     -34.111  26.945   3.808  0.00  0.00    +0.169 C 
ENDROOT
BRANCH   3   9
ATOM      7  O   UNL     1     -37.922  27.666   1.285  0.00  0.00    -0.126 OA
ATOM      8  O   UNL     1     -36.340  29.152   0.952  0.00  0.00    -0.126 OA
ATOM      9  N   UNL     1     -36.738  28.059   1.418  0.00  0.00    +0.061 N 
ENDBRANCH   3   9
BRANCH   5  10
ATOM     10  O   UNL     1     -35.092  29.089   3.458  0.00  0.00    -0.502 OA
ATOM     11  H   UNL     1     -34.319  29.560   3.700  0.00  0.00    +0.292 HD
ENDBRANCH   5  10
BRANCH   6  12
ATOM     12  O   UNL     1     -33.317  27.451   4.793  0.00  0.00    -0.503 OA
ATOM     13  H   UNL     1     -32.693  26.900   5.223  0.00  0.00    +0.292 HD
ENDBRANCH   6  12
BRANCH   1  14
ATOM     14  C   UNL     1     -34.727  23.651   2.135  0.00  0.00    +0.006 C 
ATOM     15  C   UNL     1     -35.344  22.631   2.761  0.00  0.00    +0.069 C 
BRANCH  15  17
ATOM     16  O   UNL     1     -35.641  20.287   2.930  0.00  0.00    -0.291 OA
ATOM     17  C   UNL     1     -35.146  21.218   2.293  0.00  0.00    +0.176 C 
ATOM     18  C   UNL     1     -34.332  20.945   1.053  0.00  0.00    +0.077 C 
ENDBRANCH  15  17
BRANCH  15  20
ATOM     19  O   UNL     1     -37.394  23.229   3.814  0.00  0.00    -0.291 OA
ATOM     20  C   UNL     1     -36.216  22.907   3.948  0.00  0.00    +0.176 C 
ATOM     21  C   UNL     1     -35.583  22.797   5.311  0.00  0.00    +0.077 C 
ENDBRANCH  15  20
ENDBRANCH   1  14
TORSDOF 6
ENDMDL
