MODEL 1
REMARK VINA RESULT:      -6.8      0.000      0.000
REMARK  Name = 5494414
REMARK  8 active torsions:
REMARK  status: ('A' for Active; 'I' for Inactive)
REMARK    1  A    between atoms: N_1  and  C_12
REMARK    2  A    between atoms: N_2  and  CA_26
REMARK    3  A    between atoms: N_15  and  C_17
REMARK    4  A    between atoms: C_17  and  C_18
REMARK    5  A    between atoms: C_19  and  O_24
REMARK    6  A    between atoms: CA_26  and  C_27
REMARK    7  A    between atoms: CA_26  and  C_29
REMARK    8  A    between atoms: C_29  and  O_30
REMARK                            x       y       z     vdW  Elec       q    Type
REMARK                         _______ _______ _______ _____ _____    ______ ____
ROOT
ATOM      1  N   UNL     1     -31.284  30.927   3.826  0.00  0.00    -0.262 N 
ATOM      2  N   UNL     1     -29.358  28.026   7.058  0.00  0.00    -0.258 N 
ATOM      3  N   UNL     1     -30.133  29.571   5.480  0.00  0.00    -0.311 NA
ATOM      4  N   UNL     1     -33.176  29.764   3.628  0.00  0.00    -0.240 NA
ATOM      5  N   UNL     1     -31.483  27.650   6.147  0.00  0.00    -0.311 NA
ATOM      6  C   UNL     1     -31.167  29.866   4.679  0.00  0.00    +0.220 C 
ATOM      7  C   UNL     1     -32.350  29.157   4.541  0.00  0.00    +0.167 C 
ATOM      8  C   UNL     1     -32.489  28.010   5.314  0.00  0.00    +0.215 C 
ATOM      9  C   UNL     1     -30.360  28.432   6.197  0.00  0.00    +0.202 C 
ATOM     10  C   UNL     1     -32.507  30.821   3.218  0.00  0.00    +0.222 C 
ATOM     11  H   UNL     1     -29.501  27.208   7.587  0.00  0.00    +0.160 HD
ATOM     12  N   UNL     1     -33.656  27.230   5.238  0.00  0.00    -0.302 N 
ATOM     13  H   UNL     1     -34.372  27.513   4.624  0.00  0.00    +0.150 HD
ENDROOT
BRANCH   1  14
ATOM     14  C   UNL     1     -30.309  31.967   3.602  0.00  0.00    +0.077 C 
ATOM     15  C   UNL     1     -29.384  31.642   2.428  0.00  0.00    +0.022 C 
ATOM     16  C   UNL     1     -30.965  33.339   3.441  0.00  0.00    +0.022 C 
ENDBRANCH   1  14
BRANCH  12  17
ATOM     17  C   UNL     1     -33.852  26.038   6.010  0.00  0.00    +0.119 C 
BRANCH  17  18
ATOM     18  C   UNL     1     -34.790  25.100   5.302  0.00  0.00    +0.031 C 
ATOM     19  C   UNL     1     -36.092  25.491   5.018  0.00  0.00    +0.131 C 
ATOM     20  C   UNL     1     -34.332  23.839   4.940  0.00  0.00    +0.000 C 
ATOM     21  C   UNL     1     -36.950  24.610   4.361  0.00  0.00    +0.036 C 
ATOM     22  C   UNL     1     -35.189  22.957   4.283  0.00  0.00    -0.000 C 
ATOM     23  C   UNL     1     -36.498  23.342   3.993  0.00  0.00    +0.003 C 
BRANCH  19  24
ATOM     24  O   UNL     1     -36.550  26.726   5.370  0.00  0.00    -0.506 OA
ATOM     25  H   UNL     1     -37.249  26.807   5.989  0.00  0.00    +0.292 HD
ENDBRANCH  19  24
ENDBRANCH  17  18
ENDBRANCH  12  17
BRANCH   2  26
ATOM     26  CA  UNL     1     -28.108  28.743   7.224  0.00  0.00    +0.109 C 
BRANCH  26  27
ATOM     27  C   UNL     1     -26.960  27.746   7.432  0.00  0.00    +0.023 C 
ATOM     28  C   UNL     1     -27.394  26.299   7.229  0.00  0.00    +0.002 C 
ENDBRANCH  26  27
BRANCH  26  29
ATOM     29  C   UNL     1     -28.234  29.683   8.422  0.00  0.00    +0.157 C 
BRANCH  29  30
ATOM     30  O   UNL     1     -27.017  30.401   8.590  0.00  0.00    -0.380 OA
ATOM     31  H   UNL     1     -26.269  29.785   8.539  0.00  0.00    +0.211 HD
ENDBRANCH  29  30
ENDBRANCH  26  29
ENDBRANCH   2  26
TORSDOF 8
ENDMDL
MODEL 2
REMARK VINA RESULT:      -6.2      5.520      8.299
REMARK  Name = 5494414
REMARK  8 active torsions:
REMARK  status: ('A' for Active; 'I' for Inactive)
REMARK    1  A    between atoms: N_1  and  C_12
REMARK    2  A    between atoms: N_2  and  CA_26
REMARK    3  A    between atoms: N_15  and  C_17
REMARK    4  A    between atoms: C_17  and  C_18
REMARK    5  A    between atoms: C_19  and  O_24
REMARK    6  A    between atoms: CA_26  and  C_27
REMARK    7  A    between atoms: CA_26  and  C_29
REMARK    8  A    between atoms: C_29  and  O_30
REMARK                            x       y       z     vdW  Elec       q    Type
REMARK                         _______ _______ _______ _____ _____    ______ ____
ROOT
ATOM      1  N   UNL     1     -35.374  26.901   1.881  0.00  0.00    -0.262 N 
ATOM      2  N   UNL     1     -36.907  22.957   4.039  0.00  0.00    -0.258 N 
ATOM      3  N   UNL     1     -35.957  24.829   3.005  0.00  0.00    -0.311 NA
ATOM      4  N   UNL     1     -37.412  27.739   1.541  0.00  0.00    -0.240 NA
ATOM      5  N   UNL     1     -38.375  24.600   3.246  0.00  0.00    -0.311 NA
ATOM      6  C   UNL     1     -36.249  25.992   2.405  0.00  0.00    +0.220 C 
ATOM      7  C   UNL     1     -37.506  26.529   2.183  0.00  0.00    +0.167 C 
ATOM      8  C   UNL     1     -38.595  25.787   2.630  0.00  0.00    +0.215 C 
ATOM      9  C   UNL     1     -37.085  24.173   3.408  0.00  0.00    +0.202 C 
ATOM     10  C   UNL     1     -36.120  27.932   1.375  0.00  0.00    +0.222 C 
ATOM     11  H   UNL     1     -37.706  22.466   4.339  0.00  0.00    +0.160 HD
ATOM     12  N   UNL     1     -39.907  26.256   2.446  0.00  0.00    -0.302 N 
ATOM     13  H   UNL     1     -40.039  27.121   1.995  0.00  0.00    +0.150 HD
ENDROOT
BRANCH   1  14
ATOM     14  C   UNL     1     -33.934  26.804   1.862  0.00  0.00    +0.077 C 
ATOM     15  C   UNL     1     -33.325  27.566   0.683  0.00  0.00    +0.022 C 
ATOM     16  C   UNL     1     -33.314  27.233   3.193  0.00  0.00    +0.022 C 
ENDBRANCH   1  14
BRANCH  12  17
ATOM     17  C   UNL     1     -41.064  25.532   2.884  0.00  0.00    +0.119 C 
BRANCH  17  18
ATOM     18  C   UNL     1     -42.275  26.423   2.882  0.00  0.00    +0.031 C 
ATOM     19  C   UNL     1     -42.331  27.534   3.714  0.00  0.00    +0.131 C 
ATOM     20  C   UNL     1     -43.333  26.116   2.036  0.00  0.00    +0.000 C 
ATOM     21  C   UNL     1     -43.461  28.351   3.700  0.00  0.00    +0.036 C 
ATOM     22  C   UNL     1     -44.464  26.932   2.021  0.00  0.00    -0.000 C 
ATOM     23  C   UNL     1     -44.528  28.050   2.853  0.00  0.00    +0.003 C 
BRANCH  19  24
ATOM     24  O   UNL     1     -41.297  27.843   4.547  0.00  0.00    -0.506 OA
ATOM     25  H   UNL     1     -41.461  28.007   5.455  0.00  0.00    +0.292 HD
ENDBRANCH  19  24
ENDBRANCH  17  18
ENDBRANCH  12  17
BRANCH   2  26
ATOM     26  CA  UNL     1     -35.605  22.365   4.283  0.00  0.00    +0.109 C 
BRANCH  26  27
ATOM     27  C   UNL     1     -35.439  21.102   3.429  0.00  0.00    +0.023 C 
ATOM     28  C   UNL     1     -35.088  21.414   1.979  0.00  0.00    +0.002 C 
ENDBRANCH  26  27
BRANCH  26  29
ATOM     29  C   UNL     1     -35.486  22.035   5.771  0.00  0.00    +0.157 C 
BRANCH  29  30
ATOM     30  O   UNL     1     -35.251  20.640   5.928  0.00  0.00    -0.380 OA
ATOM     31  H   UNL     1     -35.640  20.160   5.179  0.00  0.00    +0.211 HD
ENDBRANCH  29  30
ENDBRANCH  26  29
ENDBRANCH   2  26
TORSDOF 8
ENDMDL
MODEL 3
REMARK VINA RESULT:      -6.2      6.221      9.877
REMARK  Name = 5494414
REMARK  8 active torsions:
REMARK  status: ('A' for Active; 'I' for Inactive)
REMARK    1  A    between atoms: N_1  and  C_12
REMARK    2  A    between atoms: N_2  and  CA_26
REMARK    3  A    between atoms: N_15  and  C_17
REMARK    4  A    between atoms: C_17  and  C_18
REMARK    5  A    between atoms: C_19  and  O_24
REMARK    6  A    between atoms: CA_26  and  C_27
REMARK    7  A    between atoms: CA_26  and  C_29
REMARK    8  A    between atoms: C_29  and  O_30
REMARK                            x       y       z     vdW  Elec       q    Type
REMARK                         _______ _______ _______ _____ _____    ______ ____
ROOT
ATOM      1  N   UNL     1     -38.496  21.727   1.153  0.00  0.00    -0.262 N 
ATOM      2  N   UNL     1     -36.574  24.428   4.555  0.00  0.00    -0.258 N 
ATOM      3  N   UNL     1     -37.343  22.987   2.879  0.00  0.00    -0.311 NA
ATOM      4  N   UNL     1     -40.421  22.850   1.079  0.00  0.00    -0.240 NA
ATOM      5  N   UNL     1     -38.727  24.816   3.716  0.00  0.00    -0.311 NA
ATOM      6  C   UNL     1     -38.388  22.724   2.080  0.00  0.00    +0.220 C 
ATOM      7  C   UNL     1     -39.591  23.409   2.020  0.00  0.00    +0.167 C 
ATOM      8  C   UNL     1     -39.742  24.491   2.879  0.00  0.00    +0.215 C 
ATOM      9  C   UNL     1     -37.584  24.063   3.684  0.00  0.00    +0.202 C 
ATOM     10  C   UNL     1     -39.735  21.845   0.579  0.00  0.00    +0.222 C 
ATOM     11  H   UNL     1     -36.725  25.202   5.145  0.00  0.00    +0.160 HD
ATOM     12  N   UNL     1     -40.930  25.243   2.886  0.00  0.00    -0.302 N 
ATOM     13  H   UNL     1     -41.652  24.985   2.269  0.00  0.00    +0.150 HD
ENDROOT
BRANCH   1  14
ATOM     14  C   UNL     1     -37.501  20.734   0.831  0.00  0.00    +0.077 C 
ATOM     15  C   UNL     1     -38.083  19.586   0.003  0.00  0.00    +0.022 C 
ATOM     16  C   UNL     1     -36.274  21.351   0.157  0.00  0.00    +0.022 C 
ENDBRANCH   1  14
BRANCH  12  17
ATOM     17  C   UNL     1     -41.140  26.366   3.751  0.00  0.00    +0.119 C 
BRANCH  17  18
ATOM     18  C   UNL     1     -42.493  26.974   3.506  0.00  0.00    +0.031 C 
ATOM     19  C   UNL     1     -42.824  28.199   4.073  0.00  0.00    +0.131 C 
ATOM     20  C   UNL     1     -43.402  26.293   2.707  0.00  0.00    +0.000 C 
ATOM     21  C   UNL     1     -44.083  28.751   3.836  0.00  0.00    +0.036 C 
ATOM     22  C   UNL     1     -44.661  26.844   2.470  0.00  0.00    -0.000 C 
ATOM     23  C   UNL     1     -45.002  28.073   3.034  0.00  0.00    +0.003 C 
BRANCH  19  24
ATOM     24  O   UNL     1     -41.939  28.875   4.859  0.00  0.00    -0.506 OA
ATOM     25  H   UNL     1     -41.847  28.648   5.763  0.00  0.00    +0.292 HD
ENDBRANCH  19  24
ENDBRANCH  17  18
ENDBRANCH  12  17
BRANCH   2  26
ATOM     26  CA  UNL     1     -35.305  23.731   4.646  0.00  0.00    +0.109 C 
BRANCH  26  27
ATOM     27  C   UNL     1     -35.197  23.022   6.001  0.00  0.00    +0.023 C 
ATOM     28  C   UNL     1     -35.187  21.503   5.872  0.00  0.00    +0.002 C 
ENDBRANCH  26  27
BRANCH  26  29
ATOM     29  C   UNL     1     -34.174  24.744   4.471  0.00  0.00    +0.157 C 
BRANCH  29  30
ATOM     30  O   UNL     1     -34.099  25.573   5.625  0.00  0.00    -0.380 OA
ATOM     31  H   UNL     1     -33.413  25.234   6.223  0.00  0.00    +0.211 HD
ENDBRANCH  29  30
ENDBRANCH  26  29
ENDBRANCH   2  26
TORSDOF 8
ENDMDL
MODEL 4
REMARK VINA RESULT:      -6.1      3.681      8.447
REMARK  Name = 5494414
REMARK  8 active torsions:
REMARK  status: ('A' for Active; 'I' for Inactive)
REMARK    1  A    between atoms: N_1  and  C_12
REMARK    2  A    between atoms: N_2  and  CA_26
REMARK    3  A    between atoms: N_15  and  C_17
REMARK    4  A    between atoms: C_17  and  C_18
REMARK    5  A    between atoms: C_19  and  O_24
REMARK    6  A    between atoms: CA_26  and  C_27
REMARK    7  A    between atoms: CA_26  and  C_29
REMARK    8  A    between atoms: C_29  and  O_30
REMARK                            x       y       z     vdW  Elec       q    Type
REMARK                         _______ _______ _______ _____ _____    ______ ____
ROOT
ATOM      1  N   UNL     1     -38.300  25.947   1.872  0.00  0.00    -0.262 N 
ATOM      2  N   UNL     1     -34.873  23.194   3.674  0.00  0.00    -0.258 N 
ATOM      3  N   UNL     1     -36.692  24.390   2.815  0.00  0.00    -0.311 NA
ATOM      4  N   UNL     1     -36.970  27.702   1.517  0.00  0.00    -0.240 NA
ATOM      5  N   UNL     1     -34.466  25.383   2.947  0.00  0.00    -0.311 NA
ATOM      6  C   UNL     1     -37.055  25.571   2.293  0.00  0.00    +0.220 C 
ATOM      7  C   UNL     1     -36.246  26.672   2.066  0.00  0.00    +0.167 C 
ATOM      8  C   UNL     1     -34.905  26.549   2.414  0.00  0.00    +0.215 C 
ATOM      9  C   UNL     1     -35.363  24.364   3.125  0.00  0.00    +0.202 C 
ATOM     10  C   UNL     1     -38.196  27.235   1.415  0.00  0.00    +0.222 C 
ATOM     11  H   UNL     1     -33.917  23.152   3.904  0.00  0.00    +0.160 HD
ATOM     12  N   UNL     1     -34.012  27.617   2.218  0.00  0.00    -0.302 N 
ATOM     13  H   UNL     1     -34.357  28.453   1.829  0.00  0.00    +0.150 HD
ENDROOT
BRANCH   1  14
ATOM     14  C   UNL     1     -39.500  25.148   1.898  0.00  0.00    +0.077 C 
ATOM     15  C   UNL     1     -40.612  25.810   2.714  0.00  0.00    +0.022 C 
ATOM     16  C   UNL     1     -39.974  24.781   0.491  0.00  0.00    +0.022 C 
ENDBRANCH   1  14
BRANCH  12  17
ATOM     17  C   UNL     1     -32.622  27.546   2.560  0.00  0.00    +0.119 C 
BRANCH  17  18
ATOM     18  C   UNL     1     -32.333  28.390   3.770  0.00  0.00    +0.031 C 
ATOM     19  C   UNL     1     -32.445  27.849   5.045  0.00  0.00    +0.131 C 
ATOM     20  C   UNL     1     -31.953  29.714   3.591  0.00  0.00    +0.000 C 
ATOM     21  C   UNL     1     -32.173  28.644   6.159  0.00  0.00    +0.036 C 
ATOM     22  C   UNL     1     -31.681  30.509   4.704  0.00  0.00    -0.000 C 
ATOM     23  C   UNL     1     -31.791  29.975   5.988  0.00  0.00    +0.003 C 
BRANCH  19  24
ATOM     24  O   UNL     1     -32.818  26.551   5.231  0.00  0.00    -0.506 OA
ATOM     25  H   UNL     1     -33.311  26.107   4.570  0.00  0.00    +0.292 HD
ENDBRANCH  19  24
ENDBRANCH  17  18
ENDBRANCH  12  17
BRANCH   2  26
ATOM     26  CA  UNL     1     -35.694  22.025   3.928  0.00  0.00    +0.109 C 
BRANCH  26  27
ATOM     27  C   UNL     1     -35.267  21.366   5.246  0.00  0.00    +0.023 C 
ATOM     28  C   UNL     1     -35.373  22.311   6.437  0.00  0.00    +0.002 C 
ENDBRANCH  26  27
BRANCH  26  29
ATOM     29  C   UNL     1     -35.539  21.052   2.759  0.00  0.00    +0.157 C 
BRANCH  29  30
ATOM     30  O   UNL     1     -36.524  20.030   2.862  0.00  0.00    -0.380 OA
ATOM     31  H   UNL     1     -36.104  19.163   2.744  0.00  0.00    +0.211 HD
ENDBRANCH  29  30
ENDBRANCH  26  29
ENDBRANCH   2  26
TORSDOF 8
ENDMDL
MODEL 5
REMARK VINA RESULT:      -6.1      5.434      9.425
REMARK  Name = 5494414
REMARK  8 active torsions:
REMARK  status: ('A' for Active; 'I' for Inactive)
REMARK    1  A    between atoms: N_1  and  C_12
REMARK    2  A    between atoms: N_2  and  CA_26
REMARK    3  A    between atoms: N_15  and  C_17
REMARK    4  A    between atoms: C_17  and  C_18
REMARK    5  A    between atoms: C_19  and  O_24
REMARK    6  A    between atoms: CA_26  and  C_27
REMARK    7  A    between atoms: CA_26  and  C_29
REMARK    8  A    between atoms: C_29  and  O_30
REMARK                            x       y       z     vdW  Elec       q    Type
REMARK                         _______ _______ _______ _____ _____    ______ ____
ROOT
ATOM      1  N   UNL     1     -37.762  22.405   2.227  0.00  0.00    -0.262 N 
ATOM      2  N   UNL     1     -36.658  26.949   3.062  0.00  0.00    -0.258 N 
ATOM      3  N   UNL     1     -36.999  24.667   2.676  0.00  0.00    -0.311 NA
ATOM      4  N   UNL     1     -39.937  22.789   1.918  0.00  0.00    -0.240 NA
ATOM      5  N   UNL     1     -38.847  26.259   2.596  0.00  0.00    -0.311 NA
ATOM      6  C   UNL     1     -37.936  23.751   2.390  0.00  0.00    +0.220 C 
ATOM      7  C   UNL     1     -39.290  23.968   2.196  0.00  0.00    +0.167 C 
ATOM      8  C   UNL     1     -39.739  25.280   2.308  0.00  0.00    +0.215 C 
ATOM      9  C   UNL     1     -37.532  25.920   2.767  0.00  0.00    +0.202 C 
ATOM     10  C   UNL     1     -38.993  21.873   1.945  0.00  0.00    +0.222 C 
ATOM     11  H   UNL     1     -37.020  27.862   3.131  0.00  0.00    +0.160 HD
ATOM     12  N   UNL     1     -41.097  25.592   2.127  0.00  0.00    -0.302 N 
ATOM     13  H   UNL     1     -41.724  24.862   1.919  0.00  0.00    +0.150 HD
ENDROOT
BRANCH   1  14
ATOM     14  C   UNL     1     -36.522  21.675   2.328  0.00  0.00    +0.077 C 
ATOM     15  C   UNL     1     -35.912  21.773   3.727  0.00  0.00    +0.022 C 
ATOM     16  C   UNL     1     -36.677  20.221   1.880  0.00  0.00    +0.022 C 
ENDBRANCH   1  14
BRANCH  12  17
ATOM     17  C   UNL     1     -41.614  26.925   2.233  0.00  0.00    +0.119 C 
BRANCH  17  18
ATOM     18  C   UNL     1     -42.901  26.931   3.010  0.00  0.00    +0.031 C 
ATOM     19  C   UNL     1     -43.066  27.793   4.087  0.00  0.00    +0.131 C 
ATOM     20  C   UNL     1     -43.918  26.063   2.633  0.00  0.00    +0.000 C 
ATOM     21  C   UNL     1     -44.266  27.788   4.798  0.00  0.00    +0.036 C 
ATOM     22  C   UNL     1     -45.118  26.057   3.343  0.00  0.00    -0.000 C 
ATOM     23  C   UNL     1     -45.293  26.920   4.425  0.00  0.00    +0.003 C 
BRANCH  19  24
ATOM     24  O   UNL     1     -42.074  28.648   4.464  0.00  0.00    -0.506 OA
ATOM     25  H   UNL     1     -41.291  28.713   3.953  0.00  0.00    +0.292 HD
ENDBRANCH  19  24
ENDBRANCH  17  18
ENDBRANCH  12  17
BRANCH   2  26
ATOM     26  CA  UNL     1     -35.236  26.755   3.274  0.00  0.00    +0.109 C 
BRANCH  26  27
ATOM     27  C   UNL     1     -34.977  26.354   4.731  0.00  0.00    +0.023 C 
ATOM     28  C   UNL     1     -34.128  25.094   4.854  0.00  0.00    +0.002 C 
ENDBRANCH  26  27
BRANCH  26  29
ATOM     29  C   UNL     1     -34.506  28.053   2.930  0.00  0.00    +0.157 C 
BRANCH  29  30
ATOM     30  O   UNL     1     -35.316  29.163   3.297  0.00  0.00    -0.380 OA
ATOM     31  H   UNL     1     -34.750  29.926   3.497  0.00  0.00    +0.211 HD
ENDBRANCH  29  30
ENDBRANCH  26  29
ENDBRANCH   2  26
TORSDOF 8
ENDMDL
MODEL 6
REMARK VINA RESULT:      -6.1      7.441     12.520
REMARK  Name = 5494414
REMARK  8 active torsions:
REMARK  status: ('A' for Active; 'I' for Inactive)
REMARK    1  A    between atoms: N_1  and  C_12
REMARK    2  A    between atoms: N_2  and  CA_26
REMARK    3  A    between atoms: N_15  and  C_17
REMARK    4  A    between atoms: C_17  and  C_18
REMARK    5  A    between atoms: C_19  and  O_24
REMARK    6  A    between atoms: CA_26  and  C_27
REMARK    7  A    between atoms: CA_26  and  C_29
REMARK    8  A    between atoms: C_29  and  O_30
REMARK                            x       y       z     vdW  Elec       q    Type
REMARK                         _______ _______ _______ _____ _____    ______ ____
ROOT
ATOM      1  N   UNL     1     -33.036  18.077  -0.442  0.00  0.00    -0.262 N 
ATOM      2  N   UNL     1     -37.778  18.136  -0.174  0.00  0.00    -0.258 N 
ATOM      3  N   UNL     1     -35.460  17.930  -0.416  0.00  0.00    -0.311 NA
ATOM      4  N   UNL     1     -32.753  19.950   0.734  0.00  0.00    -0.240 NA
ATOM      5  N   UNL     1     -36.448  19.792   0.815  0.00  0.00    -0.311 NA
ATOM      6  C   UNL     1     -34.289  18.506  -0.108  0.00  0.00    +0.220 C 
ATOM      7  C   UNL     1     -34.092  19.669   0.620  0.00  0.00    +0.167 C 
ATOM      8  C   UNL     1     -35.230  20.317   1.089  0.00  0.00    +0.215 C 
ATOM      9  C   UNL     1     -36.516  18.636   0.084  0.00  0.00    +0.202 C 
ATOM     10  C   UNL     1     -32.148  18.976   0.086  0.00  0.00    +0.222 C 
ATOM     11  H   UNL     1     -38.555  18.628   0.178  0.00  0.00    +0.160 HD
ATOM     12  N   UNL     1     -35.124  21.504   1.836  0.00  0.00    -0.302 N 
ATOM     13  H   UNL     1     -34.227  21.864   2.020  0.00  0.00    +0.150 HD
ENDROOT
BRANCH   1  14
ATOM     14  C   UNL     1     -32.701  16.899  -1.205  0.00  0.00    +0.077 C 
ATOM     15  C   UNL     1     -31.452  17.110  -2.065  0.00  0.00    +0.022 C 
ATOM     16  C   UNL     1     -32.573  15.660  -0.319  0.00  0.00    +0.022 C 
ENDBRANCH   1  14
BRANCH  12  17
ATOM     17  C   UNL     1     -36.262  22.213   2.341  0.00  0.00    +0.119 C 
BRANCH  17  18
ATOM     18  C   UNL     1     -35.912  22.931   3.615  0.00  0.00    +0.031 C 
ATOM     19  C   UNL     1     -35.502  22.215   4.733  0.00  0.00    +0.131 C 
ATOM     20  C   UNL     1     -36.007  24.316   3.654  0.00  0.00    +0.000 C 
ATOM     21  C   UNL     1     -35.181  22.895   5.908  0.00  0.00    +0.036 C 
ATOM     22  C   UNL     1     -35.686  24.996   4.828  0.00  0.00    -0.000 C 
ATOM     23  C   UNL     1     -35.273  24.286   5.956  0.00  0.00    +0.003 C 
BRANCH  19  24
ATOM     24  O   UNL     1     -35.406  20.856   4.704  0.00  0.00    -0.506 OA
ATOM     25  H   UNL     1     -34.570  20.448   4.590  0.00  0.00    +0.292 HD
ENDBRANCH  19  24
ENDBRANCH  17  18
ENDBRANCH  12  17
BRANCH   2  26
ATOM     26  CA  UNL     1     -38.019  16.925  -0.935  0.00  0.00    +0.109 C 
BRANCH  26  27
ATOM     27  C   UNL     1     -39.322  17.062  -1.733  0.00  0.00    +0.023 C 
ATOM     28  C   UNL     1     -40.377  16.044  -1.317  0.00  0.00    +0.002 C 
ENDBRANCH  26  27
BRANCH  26  29
ATOM     29  C   UNL     1     -38.096  15.743   0.032  0.00  0.00    +0.157 C 
BRANCH  29  30
ATOM     30  O   UNL     1     -36.789  15.429   0.498  0.00  0.00    -0.380 OA
ATOM     31  H   UNL     1     -36.222  16.214   0.428  0.00  0.00    +0.211 HD
ENDBRANCH  29  30
ENDBRANCH  26  29
ENDBRANCH   2  26
TORSDOF 8
ENDMDL
MODEL 7
REMARK VINA RESULT:      -6.1      3.227      5.845
REMARK  Name = 5494414
REMARK  8 active torsions:
REMARK  status: ('A' for Active; 'I' for Inactive)
REMARK    1  A    between atoms: N_1  and  C_12
REMARK    2  A    between atoms: N_2  and  CA_26
REMARK    3  A    between atoms: N_15  and  C_17
REMARK    4  A    between atoms: C_17  and  C_18
REMARK    5  A    between atoms: C_19  and  O_24
REMARK    6  A    between atoms: CA_26  and  C_27
REMARK    7  A    between atoms: CA_26  and  C_29
REMARK    8  A    between atoms: C_29  and  O_30
REMARK                            x       y       z     vdW  Elec       q    Type
REMARK                         _______ _______ _______ _____ _____    ______ ____
ROOT
ATOM      1  N   UNL     1     -31.509  29.173   3.809  0.00  0.00    -0.262 N 
ATOM      2  N   UNL     1     -35.951  28.829   2.161  0.00  0.00    -0.258 N 
ATOM      3  N   UNL     1     -33.733  29.152   2.833  0.00  0.00    -0.311 NA
ATOM      4  N   UNL     1     -31.733  27.537   5.307  0.00  0.00    -0.240 NA
ATOM      5  N   UNL     1     -35.141  27.448   3.870  0.00  0.00    -0.311 NA
ATOM      6  C   UNL     1     -32.791  28.716   3.682  0.00  0.00    +0.220 C 
ATOM      7  C   UNL     1     -32.910  27.703   4.620  0.00  0.00    +0.167 C 
ATOM      8  C   UNL     1     -34.140  27.060   4.698  0.00  0.00    +0.215 C 
ATOM      9  C   UNL     1     -34.903  28.463   2.984  0.00  0.00    +0.202 C 
ATOM     10  C   UNL     1     -30.915  28.433   4.797  0.00  0.00    +0.222 C 
ATOM     11  H   UNL     1     -36.804  28.345   2.250  0.00  0.00    +0.160 HD
ATOM     12  N   UNL     1     -34.350  26.021   5.621  0.00  0.00    -0.302 N 
ATOM     13  H   UNL     1     -33.607  25.759   6.211  0.00  0.00    +0.150 HD
ENDROOT
BRANCH   1  14
ATOM     14  C   UNL     1     -30.890  30.231   3.049  0.00  0.00    +0.077 C 
ATOM     15  C   UNL     1     -31.186  31.611   3.642  0.00  0.00    +0.022 C 
ATOM     16  C   UNL     1     -29.388  30.004   2.871  0.00  0.00    +0.022 C 
ENDBRANCH   1  14
BRANCH  12  17
ATOM     17  C   UNL     1     -35.597  25.326   5.745  0.00  0.00    +0.119 C 
BRANCH  17  18
ATOM     18  C   UNL     1     -35.477  23.927   5.206  0.00  0.00    +0.031 C 
ATOM     19  C   UNL     1     -35.597  23.689   3.842  0.00  0.00    +0.131 C 
ATOM     20  C   UNL     1     -35.245  22.883   6.091  0.00  0.00    +0.000 C 
ATOM     21  C   UNL     1     -35.483  22.387   3.357  0.00  0.00    +0.036 C 
ATOM     22  C   UNL     1     -35.131  21.580   5.607  0.00  0.00    -0.000 C 
ATOM     23  C   UNL     1     -35.250  21.332   4.239  0.00  0.00    +0.003 C 
BRANCH  19  24
ATOM     24  O   UNL     1     -35.825  24.708   2.966  0.00  0.00    -0.506 OA
ATOM     25  H   UNL     1     -36.129  25.536   3.280  0.00  0.00    +0.292 HD
ENDBRANCH  19  24
ENDBRANCH  17  18
ENDBRANCH  12  17
BRANCH   2  26
ATOM     26  CA  UNL     1     -35.861  29.886   1.171  0.00  0.00    +0.109 C 
BRANCH  26  27
ATOM     27  C   UNL     1     -36.206  31.234   1.817  0.00  0.00    +0.023 C 
ATOM     28  C   UNL     1     -35.093  32.264   1.660  0.00  0.00    +0.002 C 
ENDBRANCH  26  27
BRANCH  26  29
ATOM     29  C   UNL     1     -36.822  29.571   0.026  0.00  0.00    +0.157 C 
BRANCH  29  30
ATOM     30  O   UNL     1     -37.939  28.849   0.531  0.00  0.00    -0.380 OA
ATOM     31  H   UNL     1     -38.321  29.328   1.283  0.00  0.00    +0.211 HD
ENDBRANCH  29  30
ENDBRANCH  26  29
ENDBRANCH   2  26
TORSDOF 8
ENDMDL
MODEL 8
REMARK VINA RESULT:      -6.0      6.418     10.662
REMARK  Name = 5494414
REMARK  8 active torsions:
REMARK  status: ('A' for Active; 'I' for Inactive)
REMARK    1  A    between atoms: N_1  and  C_12
REMARK    2  A    between atoms: N_2  and  CA_26
REMARK    3  A    between atoms: N_15  and  C_17
REMARK    4  A    between atoms: C_17  and  C_18
REMARK    5  A    between atoms: C_19  and  O_24
REMARK    6  A    between atoms: CA_26  and  C_27
REMARK    7  A    between atoms: CA_26  and  C_29
REMARK    8  A    between atoms: C_29  and  O_30
REMARK                            x       y       z     vdW  Elec       q    Type
REMARK                         _______ _______ _______ _____ _____    ______ ____
ROOT
ATOM      1  N   UNL     1     -38.215  20.123  -0.109  0.00  0.00    -0.262 N 
ATOM      2  N   UNL     1     -33.795  19.518   1.523  0.00  0.00    -0.258 N 
ATOM      3  N   UNL     1     -35.922  19.686   0.563  0.00  0.00    -0.311 NA
ATOM      4  N   UNL     1     -38.825  21.533   1.507  0.00  0.00    -0.240 NA
ATOM      5  N   UNL     1     -35.343  20.914   2.592  0.00  0.00    -0.311 NA
ATOM      6  C   UNL     1     -37.123  20.267   0.700  0.00  0.00    +0.220 C 
ATOM      7  C   UNL     1     -37.522  21.144   1.696  0.00  0.00    +0.167 C 
ATOM      8  C   UNL     1     -36.579  21.464   2.666  0.00  0.00    +0.215 C 
ATOM      9  C   UNL     1     -35.066  20.059   1.559  0.00  0.00    +0.202 C 
ATOM     10  C   UNL     1     -39.211  20.903   0.418  0.00  0.00    +0.222 C 
ATOM     11  H   UNL     1     -33.159  19.774   2.230  0.00  0.00    +0.160 HD
ATOM     12  N   UNL     1     -36.897  22.346   3.714  0.00  0.00    -0.302 N 
ATOM     13  H   UNL     1     -37.802  22.732   3.745  0.00  0.00    +0.150 HD
ENDROOT
BRANCH   1  14
ATOM     14  C   UNL     1     -38.311  19.308  -1.295  0.00  0.00    +0.077 C 
ATOM     15  C   UNL     1     -38.627  17.848  -0.963  0.00  0.00    +0.022 C 
ATOM     16  C   UNL     1     -39.301  19.885  -2.307  0.00  0.00    +0.022 C 
ENDBRANCH   1  14
BRANCH  12  17
ATOM     17  C   UNL     1     -35.965  22.709   4.740  0.00  0.00    +0.119 C 
BRANCH  17  18
ATOM     18  C   UNL     1     -35.494  24.124   4.549  0.00  0.00    +0.031 C 
ATOM     19  C   UNL     1     -36.414  25.157   4.416  0.00  0.00    +0.131 C 
ATOM     20  C   UNL     1     -34.129  24.378   4.507  0.00  0.00    +0.000 C 
ATOM     21  C   UNL     1     -35.961  26.465   4.239  0.00  0.00    +0.036 C 
ATOM     22  C   UNL     1     -33.676  25.685   4.330  0.00  0.00    -0.000 C 
ATOM     23  C   UNL     1     -34.592  26.729   4.196  0.00  0.00    +0.003 C 
BRANCH  19  24
ATOM     24  O   UNL     1     -37.755  24.917   4.455  0.00  0.00    -0.506 OA
ATOM     25  H   UNL     1     -38.355  25.629   4.562  0.00  0.00    +0.292 HD
ENDBRANCH  19  24
ENDBRANCH  17  18
ENDBRANCH  12  17
BRANCH   2  26
ATOM     26  CA  UNL     1     -33.347  18.595   0.497  0.00  0.00    +0.109 C 
BRANCH  26  27
ATOM     27  C   UNL     1     -32.254  17.679   1.063  0.00  0.00    +0.023 C 
ATOM     28  C   UNL     1     -30.848  18.164   0.730  0.00  0.00    +0.002 C 
ENDBRANCH  26  27
BRANCH  26  29
ATOM     29  C   UNL     1     -32.820  19.398  -0.692  0.00  0.00    +0.157 C 
BRANCH  29  30
ATOM     30  O   UNL     1     -33.799  19.410  -1.725  0.00  0.00    -0.380 OA
ATOM     31  H   UNL     1     -33.606  20.131  -2.345  0.00  0.00    +0.211 HD
ENDBRANCH  29  30
ENDBRANCH  26  29
ENDBRANCH   2  26
TORSDOF 8
ENDMDL
MODEL 9
REMARK VINA RESULT:      -5.9      7.247     10.735
REMARK  Name = 5494414
REMARK  8 active torsions:
REMARK  status: ('A' for Active; 'I' for Inactive)
REMARK    1  A    between atoms: N_1  and  C_12
REMARK    2  A    between atoms: N_2  and  CA_26
REMARK    3  A    between atoms: N_15  and  C_17
REMARK    4  A    between atoms: C_17  and  C_18
REMARK    5  A    between atoms: C_19  and  O_24
REMARK    6  A    between atoms: CA_26  and  C_27
REMARK    7  A    between atoms: CA_26  and  C_29
REMARK    8  A    between atoms: C_29  and  O_30
REMARK                            x       y       z     vdW  Elec       q    Type
REMARK                         _______ _______ _______ _____ _____    ______ ____
ROOT
ATOM      1  N   UNL     1     -38.111  20.913   0.455  0.00  0.00    -0.262 N 
ATOM      2  N   UNL     1     -35.118  21.585   4.082  0.00  0.00    -0.258 N 
ATOM      3  N   UNL     1     -36.716  21.398   2.383  0.00  0.00    -0.311 NA
ATOM      4  N   UNL     1     -36.860  19.358  -0.541  0.00  0.00    -0.240 NA
ATOM      5  N   UNL     1     -34.684  20.046   2.371  0.00  0.00    -0.311 NA
ATOM      6  C   UNL     1     -37.005  20.756   1.241  0.00  0.00    +0.220 C 
ATOM      7  C   UNL     1     -36.242  19.789   0.607  0.00  0.00    +0.167 C 
ATOM      8  C   UNL     1     -35.041  19.438   1.214  0.00  0.00    +0.215 C 
ATOM      9  C   UNL     1     -35.522  20.989   2.903  0.00  0.00    +0.202 C 
ATOM     10  C   UNL     1     -37.977  20.052  -0.602  0.00  0.00    +0.222 C 
ATOM     11  H   UNL     1     -34.261  21.305   4.476  0.00  0.00    +0.160 HD
ATOM     12  N   UNL     1     -34.204  18.466   0.639  0.00  0.00    -0.302 N 
ATOM     13  H   UNL     1     -34.486  18.039  -0.202  0.00  0.00    +0.150 HD
ENDROOT
BRANCH   1  14
ATOM     14  C   UNL     1     -39.216  21.811   0.686  0.00  0.00    +0.077 C 
ATOM     15  C   UNL     1     -38.909  23.232   0.209  0.00  0.00    +0.022 C 
ATOM     16  C   UNL     1     -40.518  21.282   0.083  0.00  0.00    +0.022 C 
ENDBRANCH   1  14
BRANCH  12  17
ATOM     17  C   UNL     1     -32.956  18.067   1.220  0.00  0.00    +0.119 C 
BRANCH  17  18
ATOM     18  C   UNL     1     -31.812  18.784   0.557  0.00  0.00    +0.031 C 
ATOM     19  C   UNL     1     -30.564  18.182   0.468  0.00  0.00    +0.131 C 
ATOM     20  C   UNL     1     -32.027  20.054   0.038  0.00  0.00    +0.000 C 
ATOM     21  C   UNL     1     -29.513  18.860  -0.150  0.00  0.00    +0.036 C 
ATOM     22  C   UNL     1     -30.977  20.733  -0.581  0.00  0.00    -0.000 C 
ATOM     23  C   UNL     1     -29.720  20.136  -0.675  0.00  0.00    +0.003 C 
BRANCH  19  24
ATOM     24  O   UNL     1     -30.344  16.936   0.976  0.00  0.00    -0.506 OA
ATOM     25  H   UNL     1     -30.000  16.260   0.425  0.00  0.00    +0.292 HD
ENDBRANCH  19  24
ENDBRANCH  17  18
ENDBRANCH  12  17
BRANCH   2  26
ATOM     26  CA  UNL     1     -35.891  22.603   4.770  0.00  0.00    +0.109 C 
BRANCH  26  27
ATOM     27  C   UNL     1     -35.454  23.995   4.299  0.00  0.00    +0.023 C 
ATOM     28  C   UNL     1     -35.895  25.103   5.248  0.00  0.00    +0.002 C 
ENDBRANCH  26  27
BRANCH  26  29
ATOM     29  C   UNL     1     -35.679  22.447   6.275  0.00  0.00    +0.157 C 
BRANCH  29  30
ATOM     30  O   UNL     1     -34.695  21.447   6.513  0.00  0.00    -0.380 OA
ATOM     31  H   UNL     1     -34.337  21.137   5.666  0.00  0.00    +0.211 HD
ENDBRANCH  29  30
ENDBRANCH  26  29
ENDBRANCH   2  26
TORSDOF 8
ENDMDL
