MODEL 1
REMARK VINA RESULT:      -6.5      0.000      0.000
REMARK  Name = 5281006
REMARK  8 active torsions:
REMARK  status: ('A' for Active; 'I' for Inactive)
REMARK    1  A    between atoms: N_2  and  CA_9
REMARK    2  A    between atoms: C_3  and  CA_21
REMARK    3  A    between atoms: CA_11  and  C_18
REMARK    4  A    between atoms: C_13  and  C_14
REMARK    5  A    between atoms: C_18  and  O_19
REMARK    6  A    between atoms: CA_21  and  C_22
REMARK    7  A    between atoms: CA_21  and  N_30
REMARK    8  A    between atoms: C_27  and  O_28
REMARK                            x       y       z     vdW  Elec       q    Type
REMARK                         _______ _______ _______ _____ _____    ______ ____
ROOT
ATOM      1  O   UNL     1     -34.390  25.761   1.722  0.00  0.00    -0.277 OA
ATOM      2  N   UNL     1     -33.742  26.877   3.649  0.00  0.00    -0.298 N 
ATOM      3  C   UNL     1     -34.601  26.075   2.892  0.00  0.00    +0.206 C 
ATOM      4  H   UNL     1     -33.989  27.080   4.581  0.00  0.00    +0.150 HD
ENDROOT
BRANCH   2   9
ATOM      5  S   UNL     1     -34.189  29.432   2.013  0.00  0.00    -0.114 S 
ATOM      6  O   UNL     1     -31.111  28.015   5.196  0.00  0.00    -0.273 OA
ATOM      7  N   UNL     1     -31.974  29.377   3.475  0.00  0.00    -0.242 N 
ATOM      8  C   UNL     1     -32.548  28.736   2.307  0.00  0.00    +0.155 C 
ATOM      9  CA  UNL     1     -32.495  27.423   3.119  0.00  0.00    +0.178 C 
ATOM     10  C   UNL     1     -31.687  28.249   4.159  0.00  0.00    +0.251 C 
ATOM     11  CA  UNL     1     -31.856  30.724   3.617  0.00  0.00    +0.128 C 
ATOM     12  C   UNL     1     -33.545  31.122   1.759  0.00  0.00    +0.087 C 
ATOM     13  C   UNL     1     -32.536  31.576   2.812  0.00  0.00    +0.009 C 
BRANCH  13  14
ATOM     14  C   UNL     1     -32.414  33.022   2.855  0.00  0.00    -0.007 C 
ATOM     15  C   UNL     1     -33.202  33.834   2.155  0.00  0.00    -0.026 C 
ATOM     16  C   UNL     1     -33.080  35.323   2.195  0.00  0.00    +0.031 C 
ENDBRANCH  13  14
BRANCH  11  18
ATOM     17  OXT UNL     1     -29.861  31.607   4.561  0.00  0.00    -0.244 OA
ATOM     18  C   UNL     1     -30.992  31.195   4.714  0.00  0.00    +0.352 C 
BRANCH  18  19
ATOM     19  O   UNL     1     -31.657  31.092   5.879  0.00  0.00    -0.476 OA
ATOM     20  H   UNL     1     -31.185  31.092   6.690  0.00  0.00    +0.295 HD
ENDBRANCH  18  19
ENDBRANCH  11  18
ENDBRANCH   2   9
BRANCH   3  21
ATOM     21  CA  UNL     1     -35.845  25.647   3.660  0.00  0.00    +0.036 C 
BRANCH  21  22
ATOM     22  C   UNL     1     -35.664  24.265   4.254  0.00  0.00    -0.034 C 
ATOM     23  C   UNL     1     -35.750  23.159   3.428  0.00  0.00    -0.003 C 
ATOM     24  C   UNL     1     -35.419  24.142   5.610  0.00  0.00    -0.003 C 
ATOM     25  C   UNL     1     -35.584  21.887   3.976  0.00  0.00    +0.036 C 
ATOM     26  C   UNL     1     -35.253  22.869   6.158  0.00  0.00    +0.036 C 
ATOM     27  C   UNL     1     -35.336  21.741   5.341  0.00  0.00    +0.134 C 
BRANCH  27  28
ATOM     28  O   UNL     1     -35.173  20.500   5.875  0.00  0.00    -0.506 OA
ATOM     29  H   UNL     1     -34.536  19.916   5.513  0.00  0.00    +0.292 HD
ENDBRANCH  27  28
ENDBRANCH  21  22
BRANCH  21  30
ATOM     30  N   UNL     1     -36.112  26.663   4.683  0.00  0.00    +0.390 N 
ATOM     31  H1  UNL     1     -36.282  27.561   4.232  0.00  0.00    -0.088 HD
ATOM     32  H2  UNL     1     -35.305  26.741   5.303  0.00  0.00    -0.088 HD
ATOM     33  H3  UNL     1     -36.932  26.393   5.225  0.00  0.00    -0.088 HD
ENDBRANCH  21  30
ENDBRANCH   3  21
TORSDOF 8
ENDMDL
MODEL 2
REMARK VINA RESULT:      -6.5      2.502      3.657
REMARK  Name = 5281006
REMARK  8 active torsions:
REMARK  status: ('A' for Active; 'I' for Inactive)
REMARK    1  A    between atoms: N_2  and  CA_9
REMARK    2  A    between atoms: C_3  and  CA_21
REMARK    3  A    between atoms: CA_11  and  C_18
REMARK    4  A    between atoms: C_13  and  C_14
REMARK    5  A    between atoms: C_18  and  O_19
REMARK    6  A    between atoms: CA_21  and  C_22
REMARK    7  A    between atoms: CA_21  and  N_30
REMARK    8  A    between atoms: C_27  and  O_28
REMARK                            x       y       z     vdW  Elec       q    Type
REMARK                         _______ _______ _______ _____ _____    ______ ____
ROOT
ATOM      1  O   UNL     1     -34.320  25.734   1.719  0.00  0.00    -0.277 OA
ATOM      2  N   UNL     1     -33.667  27.325   3.274  0.00  0.00    -0.298 N 
ATOM      3  C   UNL     1     -34.484  26.295   2.801  0.00  0.00    +0.206 C 
ATOM      4  H   UNL     1     -33.869  27.719   4.154  0.00  0.00    +0.150 HD
ENDROOT
BRANCH   2   9
ATOM      5  S   UNL     1     -32.464  29.839   4.554  0.00  0.00    -0.114 S 
ATOM      6  O   UNL     1     -30.781  25.957   2.625  0.00  0.00    -0.273 OA
ATOM      7  N   UNL     1     -30.721  28.165   3.454  0.00  0.00    -0.242 N 
ATOM      8  C   UNL     1     -31.779  29.079   3.064  0.00  0.00    +0.155 C 
ATOM      9  CA  UNL     1     -32.523  27.838   2.523  0.00  0.00    +0.178 C 
ATOM     10  C   UNL     1     -31.198  27.077   2.811  0.00  0.00    +0.251 C 
ATOM     11  CA  UNL     1     -29.663  28.519   4.230  0.00  0.00    +0.128 C 
ATOM     12  C   UNL     1     -30.875  30.610   5.021  0.00  0.00    +0.087 C 
ATOM     13  C   UNL     1     -29.673  29.671   4.945  0.00  0.00    +0.009 C 
BRANCH  13  14
ATOM     14  C   UNL     1     -28.561  30.151   5.744  0.00  0.00    -0.007 C 
ATOM     15  C   UNL     1     -28.434  29.881   7.041  0.00  0.00    -0.026 C 
ATOM     16  C   UNL     1     -27.293  30.375   7.869  0.00  0.00    +0.031 C 
ENDBRANCH  13  14
BRANCH  11  18
ATOM     17  OXT UNL     1     -28.384  26.748   5.166  0.00  0.00    -0.244 OA
ATOM     18  C   UNL     1     -28.541  27.566   4.284  0.00  0.00    +0.352 C 
BRANCH  18  19
ATOM     19  O   UNL     1     -27.745  27.755   3.216  0.00  0.00    -0.476 OA
ATOM     20  H   UNL     1     -27.903  27.280   2.423  0.00  0.00    +0.295 HD
ENDBRANCH  18  19
ENDBRANCH  11  18
ENDBRANCH   2   9
BRANCH   3  21
ATOM     21  CA  UNL     1     -35.621  25.952   3.756  0.00  0.00    +0.036 C 
BRANCH  21  22
ATOM     22  C   UNL     1     -35.505  24.522   4.242  0.00  0.00    -0.034 C 
ATOM     23  C   UNL     1     -35.235  24.284   5.577  0.00  0.00    -0.003 C 
ATOM     24  C   UNL     1     -35.671  23.488   3.339  0.00  0.00    -0.003 C 
ATOM     25  C   UNL     1     -35.127  22.967   6.025  0.00  0.00    +0.036 C 
ATOM     26  C   UNL     1     -35.563  22.171   3.786  0.00  0.00    +0.036 C 
ATOM     27  C   UNL     1     -35.291  21.910   5.129  0.00  0.00    +0.134 C 
BRANCH  27  28
ATOM     28  O   UNL     1     -35.187  20.625   5.566  0.00  0.00    -0.506 OA
ATOM     29  H   UNL     1     -35.617  20.364   6.357  0.00  0.00    +0.292 HD
ENDBRANCH  27  28
ENDBRANCH  21  22
BRANCH  21  30
ATOM     30  N   UNL     1     -35.588  26.920   4.856  0.00  0.00    +0.390 N 
ATOM     31  H1  UNL     1     -35.686  27.863   4.481  0.00  0.00    -0.088 HD
ATOM     32  H2  UNL     1     -34.700  26.841   5.352  0.00  0.00    -0.088 HD
ATOM     33  H3  UNL     1     -36.355  26.729   5.501  0.00  0.00    -0.088 HD
ENDBRANCH  21  30
ENDBRANCH   3  21
TORSDOF 8
ENDMDL
MODEL 3
REMARK VINA RESULT:      -6.4      3.674      9.154
REMARK  Name = 5281006
REMARK  8 active torsions:
REMARK  status: ('A' for Active; 'I' for Inactive)
REMARK    1  A    between atoms: N_2  and  CA_9
REMARK    2  A    between atoms: C_3  and  CA_21
REMARK    3  A    between atoms: CA_11  and  C_18
REMARK    4  A    between atoms: C_13  and  C_14
REMARK    5  A    between atoms: C_18  and  O_19
REMARK    6  A    between atoms: CA_21  and  C_22
REMARK    7  A    between atoms: CA_21  and  N_30
REMARK    8  A    between atoms: C_27  and  O_28
REMARK                            x       y       z     vdW  Elec       q    Type
REMARK                         _______ _______ _______ _____ _____    ______ ____
ROOT
ATOM      1  O   UNL     1     -35.073  30.118   0.016  0.00  0.00    -0.277 OA
ATOM      2  N   UNL     1     -35.981  28.949   1.800  0.00  0.00    -0.298 N 
ATOM      3  C   UNL     1     -35.427  30.078   1.192  0.00  0.00    +0.206 C 
ATOM      4  H   UNL     1     -36.237  29.004   2.750  0.00  0.00    +0.150 HD
ENDROOT
BRANCH   2   9
ATOM      5  S   UNL     1     -34.133  26.710   2.789  0.00  0.00    -0.114 S 
ATOM      6  O   UNL     1     -38.624  27.051   1.632  0.00  0.00    -0.273 OA
ATOM      7  N   UNL     1     -36.590  25.959   2.119  0.00  0.00    -0.242 N 
ATOM      8  C   UNL     1     -35.374  26.454   1.500  0.00  0.00    +0.155 C 
ATOM      9  CA  UNL     1     -36.200  27.692   1.088  0.00  0.00    +0.178 C 
ATOM     10  C   UNL     1     -37.426  26.889   1.607  0.00  0.00    +0.251 C 
ATOM     11  CA  UNL     1     -36.638  24.867   2.926  0.00  0.00    +0.128 C 
ATOM     12  C   UNL     1     -34.121  24.949   3.277  0.00  0.00    +0.087 C 
ATOM     13  C   UNL     1     -35.508  24.335   3.454  0.00  0.00    +0.009 C 
BRANCH  13  14
ATOM     14  C   UNL     1     -35.468  23.136   4.270  0.00  0.00    -0.007 C 
ATOM     15  C   UNL     1     -35.332  23.167   5.594  0.00  0.00    -0.026 C 
ATOM     16  C   UNL     1     -35.288  21.935   6.438  0.00  0.00    +0.031 C 
ENDBRANCH  13  14
BRANCH  11  18
ATOM     17  OXT UNL     1     -38.472  23.380   2.660  0.00  0.00    -0.244 OA
ATOM     18  C   UNL     1     -37.977  24.331   3.226  0.00  0.00    +0.352 C 
BRANCH  18  19
ATOM     19  O   UNL     1     -38.538  25.058   4.210  0.00  0.00    -0.476 OA
ATOM     20  H   UNL     1     -38.512  25.995   4.173  0.00  0.00    +0.295 HD
ENDBRANCH  18  19
ENDBRANCH  11  18
ENDBRANCH   2   9
BRANCH   3  21
ATOM     21  CA  UNL     1     -35.281  31.256   2.148  0.00  0.00    +0.036 C 
BRANCH  21  22
ATOM     22  C   UNL     1     -36.178  32.404   1.732  0.00  0.00    -0.034 C 
ATOM     23  C   UNL     1     -35.609  33.553   1.215  0.00  0.00    -0.003 C 
ATOM     24  C   UNL     1     -37.548  32.275   1.879  0.00  0.00    -0.003 C 
ATOM     25  C   UNL     1     -36.435  34.610   0.833  0.00  0.00    +0.036 C 
ATOM     26  C   UNL     1     -38.375  33.331   1.497  0.00  0.00    +0.036 C 
ATOM     27  C   UNL     1     -37.819  34.499   0.974  0.00  0.00    +0.134 C 
BRANCH  27  28
ATOM     28  O   UNL     1     -38.625  35.530   0.600  0.00  0.00    -0.506 OA
ATOM     29  H   UNL     1     -39.554  35.412   0.576  0.00  0.00    +0.292 HD
ENDBRANCH  27  28
ENDBRANCH  21  22
BRANCH  21  30
ATOM     30  N   UNL     1     -35.581  30.776   3.499  0.00  0.00    +0.390 N 
ATOM     31  H1  UNL     1     -34.970  29.990   3.724  0.00  0.00    -0.088 HD
ATOM     32  H2  UNL     1     -36.554  30.473   3.545  0.00  0.00    -0.088 HD
ATOM     33  H3  UNL     1     -35.428  31.528   4.171  0.00  0.00    -0.088 HD
ENDBRANCH  21  30
ENDBRANCH   3  21
TORSDOF 8
ENDMDL
MODEL 4
REMARK VINA RESULT:      -6.4      3.664      8.563
REMARK  Name = 5281006
REMARK  8 active torsions:
REMARK  status: ('A' for Active; 'I' for Inactive)
REMARK    1  A    between atoms: N_2  and  CA_9
REMARK    2  A    between atoms: C_3  and  CA_21
REMARK    3  A    between atoms: CA_11  and  C_18
REMARK    4  A    between atoms: C_13  and  C_14
REMARK    5  A    between atoms: C_18  and  O_19
REMARK    6  A    between atoms: CA_21  and  C_22
REMARK    7  A    between atoms: CA_21  and  N_30
REMARK    8  A    between atoms: C_27  and  O_28
REMARK                            x       y       z     vdW  Elec       q    Type
REMARK                         _______ _______ _______ _____ _____    ______ ____
ROOT
ATOM      1  O   UNL     1     -37.445  26.905   2.196  0.00  0.00    -0.277 OA
ATOM      2  N   UNL     1     -35.665  25.627   1.438  0.00  0.00    -0.298 N 
ATOM      3  C   UNL     1     -36.239  26.771   1.997  0.00  0.00    +0.206 C 
ATOM      4  H   UNL     1     -34.688  25.603   1.314  0.00  0.00    +0.150 HD
ENDROOT
BRANCH   2   9
ATOM      5  S   UNL     1     -33.983  23.547  -0.061  0.00  0.00    -0.114 S 
ATOM      6  O   UNL     1     -37.258  23.426   3.237  0.00  0.00    -0.273 OA
ATOM      7  N   UNL     1     -35.854  22.567   1.548  0.00  0.00    -0.242 N 
ATOM      8  C   UNL     1     -35.736  23.305   0.304  0.00  0.00    +0.155 C 
ATOM      9  CA  UNL     1     -36.451  24.463   1.033  0.00  0.00    +0.178 C 
ATOM     10  C   UNL     1     -36.674  23.435   2.179  0.00  0.00    +0.251 C 
ATOM     11  CA  UNL     1     -35.240  21.376   1.782  0.00  0.00    +0.128 C 
ATOM     12  C   UNL     1     -33.646  21.754  -0.162  0.00  0.00    +0.087 C 
ATOM     13  C   UNL     1     -34.235  20.937   0.986  0.00  0.00    +0.009 C 
BRANCH  13  14
ATOM     14  C   UNL     1     -33.575  19.653   1.129  0.00  0.00    -0.007 C 
ATOM     15  C   UNL     1     -32.317  19.440   0.749  0.00  0.00    -0.026 C 
ATOM     16  C   UNL     1     -31.633  18.120   0.892  0.00  0.00    +0.031 C 
ENDBRANCH  13  14
BRANCH  11  18
ATOM     17  OXT UNL     1     -35.188  20.710   4.063  0.00  0.00    -0.244 OA
ATOM     18  C   UNL     1     -35.696  20.625   2.965  0.00  0.00    +0.352 C 
BRANCH  18  19
ATOM     19  O   UNL     1     -36.743  19.852   2.625  0.00  0.00    -0.476 OA
ATOM     20  H   UNL     1     -36.858  19.014   3.029  0.00  0.00    +0.295 HD
ENDBRANCH  18  19
ENDBRANCH  11  18
ENDBRANCH   2   9
BRANCH   3  21
ATOM     21  CA  UNL     1     -35.215  27.855   2.316  0.00  0.00    +0.036 C 
BRANCH  21  22
ATOM     22  C   UNL     1     -34.457  27.524   3.585  0.00  0.00    -0.034 C 
ATOM     23  C   UNL     1     -34.977  26.586   4.457  0.00  0.00    -0.003 C 
ATOM     24  C   UNL     1     -33.261  28.170   3.842  0.00  0.00    -0.003 C 
ATOM     25  C   UNL     1     -34.279  26.282   5.626  0.00  0.00    +0.036 C 
ATOM     26  C   UNL     1     -32.562  27.866   5.011  0.00  0.00    +0.036 C 
ATOM     27  C   UNL     1     -33.071  26.923   5.903  0.00  0.00    +0.134 C 
BRANCH  27  28
ATOM     28  O   UNL     1     -32.389  26.625   7.043  0.00  0.00    -0.506 OA
ATOM     29  H   UNL     1     -32.763  26.828   7.878  0.00  0.00    +0.292 HD
ENDBRANCH  27  28
ENDBRANCH  21  22
BRANCH  21  30
ATOM     30  N   UNL     1     -34.330  27.988   1.156  0.00  0.00    +0.390 N 
ATOM     31  H1  UNL     1     -33.370  28.117   1.474  0.00  0.00    -0.088 HD
ATOM     32  H2  UNL     1     -34.616  28.796   0.601  0.00  0.00    -0.088 HD
ATOM     33  H3  UNL     1     -34.389  27.146   0.583  0.00  0.00    -0.088 HD
ENDBRANCH  21  30
ENDBRANCH   3  21
TORSDOF 8
ENDMDL
MODEL 5
REMARK VINA RESULT:      -6.2      4.571      6.793
REMARK  Name = 5281006
REMARK  8 active torsions:
REMARK  status: ('A' for Active; 'I' for Inactive)
REMARK    1  A    between atoms: N_2  and  CA_9
REMARK    2  A    between atoms: C_3  and  CA_21
REMARK    3  A    between atoms: CA_11  and  C_18
REMARK    4  A    between atoms: C_13  and  C_14
REMARK    5  A    between atoms: C_18  and  O_19
REMARK    6  A    between atoms: CA_21  and  C_22
REMARK    7  A    between atoms: CA_21  and  N_30
REMARK    8  A    between atoms: C_27  and  O_28
REMARK                            x       y       z     vdW  Elec       q    Type
REMARK                         _______ _______ _______ _____ _____    ______ ____
ROOT
ATOM      1  O   UNL     1     -35.806  20.239   2.976  0.00  0.00    -0.277 OA
ATOM      2  N   UNL     1     -35.117  22.143   1.846  0.00  0.00    -0.298 N 
ATOM      3  C   UNL     1     -35.383  20.776   1.954  0.00  0.00    +0.206 C 
ATOM      4  H   UNL     1     -34.779  22.490   0.988  0.00  0.00    +0.150 HD
ENDROOT
BRANCH   2   9
ATOM      5  S   UNL     1     -34.043  24.945   1.211  0.00  0.00    -0.114 S 
ATOM      6  O   UNL     1     -37.868  23.223   3.217  0.00  0.00    -0.273 OA
ATOM      7  N   UNL     1     -36.281  24.869   2.638  0.00  0.00    -0.242 N 
ATOM      8  C   UNL     1     -34.871  24.546   2.767  0.00  0.00    +0.155 C 
ATOM      9  CA  UNL     1     -35.321  23.080   2.949  0.00  0.00    +0.178 C 
ATOM     10  C   UNL     1     -36.761  23.662   3.011  0.00  0.00    +0.251 C 
ATOM     11  CA  UNL     1     -36.746  26.086   2.251  0.00  0.00    +0.128 C 
ATOM     12  C   UNL     1     -34.469  26.718   1.314  0.00  0.00    +0.087 C 
ATOM     13  C   UNL     1     -35.928  26.996   1.669  0.00  0.00    +0.009 C 
BRANCH  13  14
ATOM     14  C   UNL     1     -36.331  28.337   1.287  0.00  0.00    -0.007 C 
ATOM     15  C   UNL     1     -35.804  29.432   1.831  0.00  0.00    -0.026 C 
ATOM     16  C   UNL     1     -36.216  30.815   1.444  0.00  0.00    +0.031 C 
ENDBRANCH  13  14
BRANCH  11  18
ATOM     17  OXT UNL     1     -38.981  26.505   1.559  0.00  0.00    -0.244 OA
ATOM     18  C   UNL     1     -38.184  26.334   2.457  0.00  0.00    +0.352 C 
BRANCH  18  19
ATOM     19  O   UNL     1     -38.450  26.337   3.776  0.00  0.00    -0.476 OA
ATOM     20  H   UNL     1     -38.973  25.655   4.150  0.00  0.00    +0.295 HD
ENDBRANCH  18  19
ENDBRANCH  11  18
ENDBRANCH   2   9
BRANCH   3  21
ATOM     21  CA  UNL     1     -35.070  20.006   0.676  0.00  0.00    +0.036 C 
BRANCH  21  22
ATOM     22  C   UNL     1     -33.613  19.595   0.635  0.00  0.00    -0.034 C 
ATOM     23  C   UNL     1     -32.706  20.393  -0.038  0.00  0.00    -0.003 C 
ATOM     24  C   UNL     1     -33.223  18.431   1.272  0.00  0.00    -0.003 C 
ATOM     25  C   UNL     1     -31.364  20.014  -0.076  0.00  0.00    +0.036 C 
ATOM     26  C   UNL     1     -31.882  18.052   1.234  0.00  0.00    +0.036 C 
ATOM     27  C   UNL     1     -30.951  18.843   0.560  0.00  0.00    +0.134 C 
BRANCH  27  28
ATOM     28  O   UNL     1     -29.642  18.474   0.523  0.00  0.00    -0.506 OA
ATOM     29  H   UNL     1     -29.411  17.566   0.546  0.00  0.00    +0.292 HD
ENDBRANCH  27  28
ENDBRANCH  21  22
BRANCH  21  30
ATOM     30  N   UNL     1     -35.976  18.856   0.614  0.00  0.00    +0.390 N 
ATOM     31  H1  UNL     1     -35.650  18.132   1.253  0.00  0.00    -0.088 HD
ATOM     32  H2  UNL     1     -35.993  18.487  -0.338  0.00  0.00    -0.088 HD
ATOM     33  H3  UNL     1     -36.916  19.147   0.881  0.00  0.00    -0.088 HD
ENDBRANCH  21  30
ENDBRANCH   3  21
TORSDOF 8
ENDMDL
MODEL 6
REMARK VINA RESULT:      -6.1      2.737      8.636
REMARK  Name = 5281006
REMARK  8 active torsions:
REMARK  status: ('A' for Active; 'I' for Inactive)
REMARK    1  A    between atoms: N_2  and  CA_9
REMARK    2  A    between atoms: C_3  and  CA_21
REMARK    3  A    between atoms: CA_11  and  C_18
REMARK    4  A    between atoms: C_13  and  C_14
REMARK    5  A    between atoms: C_18  and  O_19
REMARK    6  A    between atoms: CA_21  and  C_22
REMARK    7  A    between atoms: CA_21  and  N_30
REMARK    8  A    between atoms: C_27  and  O_28
REMARK                            x       y       z     vdW  Elec       q    Type
REMARK                         _______ _______ _______ _____ _____    ______ ____
ROOT
ATOM      1  O   UNL     1     -35.306  30.122   0.198  0.00  0.00    -0.277 OA
ATOM      2  N   UNL     1     -36.275  28.884   1.901  0.00  0.00    -0.298 N 
ATOM      3  C   UNL     1     -35.739  30.048   1.345  0.00  0.00    +0.206 C 
ATOM      4  H   UNL     1     -36.601  28.913   2.831  0.00  0.00    +0.150 HD
ENDROOT
BRANCH   2   9
ATOM      5  S   UNL     1     -34.279  26.780   2.899  0.00  0.00    -0.114 S 
ATOM      6  O   UNL     1     -38.753  26.785   1.634  0.00  0.00    -0.273 OA
ATOM      7  N   UNL     1     -36.652  25.850   2.155  0.00  0.00    -0.242 N 
ATOM      8  C   UNL     1     -35.464  26.451   1.576  0.00  0.00    +0.155 C 
ATOM      9  CA  UNL     1     -36.376  27.627   1.163  0.00  0.00    +0.178 C 
ATOM     10  C   UNL     1     -37.546  26.719   1.637  0.00  0.00    +0.251 C 
ATOM     11  CA  UNL     1     -36.631  24.742   2.943  0.00  0.00    +0.128 C 
ATOM     12  C   UNL     1     -34.138  25.018   3.358  0.00  0.00    +0.087 C 
ATOM     13  C   UNL     1     -35.476  24.293   3.490  0.00  0.00    +0.009 C 
BRANCH  13  14
ATOM     14  C   UNL     1     -35.359  23.085   4.287  0.00  0.00    -0.007 C 
ATOM     15  C   UNL     1     -35.365  23.094   5.618  0.00  0.00    -0.026 C 
ATOM     16  C   UNL     1     -35.243  21.855   6.443  0.00  0.00    +0.031 C 
ENDBRANCH  13  14
BRANCH  11  18
ATOM     17  OXT UNL     1     -38.298  23.071   2.667  0.00  0.00    -0.244 OA
ATOM     18  C   UNL     1     -37.930  24.096   3.200  0.00  0.00    +0.352 C 
BRANCH  18  19
ATOM     19  O   UNL     1     -38.616  24.820   4.103  0.00  0.00    -0.476 OA
ATOM     20  H   UNL     1     -39.540  24.694   4.201  0.00  0.00    +0.295 HD
ENDBRANCH  18  19
ENDBRANCH  11  18
ENDBRANCH   2   9
BRANCH   3  21
ATOM     21  CA  UNL     1     -35.725  31.220   2.320  0.00  0.00    +0.036 C 
BRANCH  21  22
ATOM     22  C   UNL     1     -34.304  31.626   2.655  0.00  0.00    -0.034 C 
ATOM     23  C   UNL     1     -33.560  30.835   3.510  0.00  0.00    -0.003 C 
ATOM     24  C   UNL     1     -33.785  32.781   2.097  0.00  0.00    -0.003 C 
ATOM     25  C   UNL     1     -32.252  31.210   3.819  0.00  0.00    +0.036 C 
ATOM     26  C   UNL     1     -32.478  33.156   2.406  0.00  0.00    +0.036 C 
ATOM     27  C   UNL     1     -31.711  32.371   3.267  0.00  0.00    +0.134 C 
BRANCH  27  28
ATOM     28  O   UNL     1     -30.434  32.736   3.567  0.00  0.00    -0.506 OA
ATOM     29  H   UNL     1     -29.772  32.081   3.668  0.00  0.00    +0.292 HD
ENDBRANCH  27  28
ENDBRANCH  21  22
BRANCH  21  30
ATOM     30  N   UNL     1     -36.490  32.314   1.717  0.00  0.00    +0.390 N 
ATOM     31  H1  UNL     1     -35.930  32.760   0.991  0.00  0.00    -0.088 HD
ATOM     32  H2  UNL     1     -36.727  33.000   2.434  0.00  0.00    -0.088 HD
ATOM     33  H3  UNL     1     -37.347  31.944   1.305  0.00  0.00    -0.088 HD
ENDBRANCH  21  30
ENDBRANCH   3  21
TORSDOF 8
ENDMDL
MODEL 7
REMARK VINA RESULT:      -6.0      1.998      2.828
REMARK  Name = 5281006
REMARK  8 active torsions:
REMARK  status: ('A' for Active; 'I' for Inactive)
REMARK    1  A    between atoms: N_2  and  CA_9
REMARK    2  A    between atoms: C_3  and  CA_21
REMARK    3  A    between atoms: CA_11  and  C_18
REMARK    4  A    between atoms: C_13  and  C_14
REMARK    5  A    between atoms: C_18  and  O_19
REMARK    6  A    between atoms: CA_21  and  C_22
REMARK    7  A    between atoms: CA_21  and  N_30
REMARK    8  A    between atoms: C_27  and  O_28
REMARK                            x       y       z     vdW  Elec       q    Type
REMARK                         _______ _______ _______ _____ _____    ______ ____
ROOT
ATOM      1  O   UNL     1     -35.921  26.419   1.579  0.00  0.00    -0.277 OA
ATOM      2  N   UNL     1     -34.107  26.685   2.998  0.00  0.00    -0.298 N 
ATOM      3  C   UNL     1     -35.435  26.364   2.707  0.00  0.00    +0.206 C 
ATOM      4  H   UNL     1     -33.800  26.614   3.932  0.00  0.00    +0.150 HD
ENDROOT
BRANCH   2   9
ATOM      5  S   UNL     1     -33.409  29.662   3.245  0.00  0.00    -0.114 S 
ATOM      6  O   UNL     1     -31.038  25.744   2.439  0.00  0.00    -0.273 OA
ATOM      7  N   UNL     1     -31.414  28.072   2.511  0.00  0.00    -0.242 N 
ATOM      8  C   UNL     1     -32.670  28.586   1.996  0.00  0.00    +0.155 C 
ATOM      9  CA  UNL     1     -33.154  27.120   1.979  0.00  0.00    +0.178 C 
ATOM     10  C   UNL     1     -31.679  26.762   2.314  0.00  0.00    +0.251 C 
ATOM     11  CA  UNL     1     -30.413  28.858   2.988  0.00  0.00    +0.128 C 
ATOM     12  C   UNL     1     -32.002  30.827   3.230  0.00  0.00    +0.087 C 
ATOM     13  C   UNL     1     -30.631  30.160   3.297  0.00  0.00    +0.009 C 
BRANCH  13  14
ATOM     14  C   UNL     1     -29.603  31.080   3.748  0.00  0.00    -0.007 C 
ATOM     15  C   UNL     1     -29.158  31.107   5.002  0.00  0.00    -0.026 C 
ATOM     16  C   UNL     1     -28.103  32.054   5.474  0.00  0.00    +0.031 C 
ENDBRANCH  13  14
BRANCH  11  18
ATOM     17  OXT UNL     1     -28.177  28.290   2.419  0.00  0.00    -0.244 OA
ATOM     18  C   UNL     1     -29.107  28.206   3.192  0.00  0.00    +0.352 C 
BRANCH  18  19
ATOM     19  O   UNL     1     -29.127  27.523   4.351  0.00  0.00    -0.476 OA
ATOM     20  H   UNL     1     -29.941  27.220   4.704  0.00  0.00    +0.295 HD
ENDBRANCH  18  19
ENDBRANCH  11  18
ENDBRANCH   2   9
BRANCH   3  21
ATOM     21  CA  UNL     1     -36.233  25.959   3.941  0.00  0.00    +0.036 C 
BRANCH  21  22
ATOM     22  C   UNL     1     -35.935  24.527   4.331  0.00  0.00    -0.034 C 
ATOM     23  C   UNL     1     -35.425  24.262   5.589  0.00  0.00    -0.003 C 
ATOM     24  C   UNL     1     -36.177  23.515   3.419  0.00  0.00    -0.003 C 
ATOM     25  C   UNL     1     -35.149  22.943   5.948  0.00  0.00    +0.036 C 
ATOM     26  C   UNL     1     -35.902  22.196   3.777  0.00  0.00    +0.036 C 
ATOM     27  C   UNL     1     -35.387  21.909   5.042  0.00  0.00    +0.134 C 
BRANCH  27  28
ATOM     28  O   UNL     1     -35.119  20.621   5.393  0.00  0.00    -0.506 OA
ATOM     29  H   UNL     1     -34.350  20.199   5.066  0.00  0.00    +0.292 HD
ENDBRANCH  27  28
ENDBRANCH  21  22
BRANCH  21  30
ATOM     30  N   UNL     1     -35.913  26.907   5.011  0.00  0.00    +0.390 N 
ATOM     31  H1  UNL     1     -35.776  27.836   4.613  0.00  0.00    -0.088 HD
ATOM     32  H2  UNL     1     -35.058  26.611   5.484  0.00  0.00    -0.088 HD
ATOM     33  H3  UNL     1     -36.680  26.935   5.683  0.00  0.00    -0.088 HD
ENDBRANCH  21  30
ENDBRANCH   3  21
TORSDOF 8
ENDMDL
MODEL 8
REMARK VINA RESULT:      -5.9      4.056      9.420
REMARK  Name = 5281006
REMARK  8 active torsions:
REMARK  status: ('A' for Active; 'I' for Inactive)
REMARK    1  A    between atoms: N_2  and  CA_9
REMARK    2  A    between atoms: C_3  and  CA_21
REMARK    3  A    between atoms: CA_11  and  C_18
REMARK    4  A    between atoms: C_13  and  C_14
REMARK    5  A    between atoms: C_18  and  O_19
REMARK    6  A    between atoms: CA_21  and  C_22
REMARK    7  A    between atoms: CA_21  and  N_30
REMARK    8  A    between atoms: C_27  and  O_28
REMARK                            x       y       z     vdW  Elec       q    Type
REMARK                         _______ _______ _______ _____ _____    ______ ____
ROOT
ATOM      1  O   UNL     1     -37.457  27.044   2.075  0.00  0.00    -0.277 OA
ATOM      2  N   UNL     1     -35.675  25.646   1.581  0.00  0.00    -0.298 N 
ATOM      3  C   UNL     1     -36.246  26.847   2.008  0.00  0.00    +0.206 C 
ATOM      4  H   UNL     1     -34.692  25.574   1.558  0.00  0.00    +0.150 HD
ENDROOT
BRANCH   2   9
ATOM      5  S   UNL     1     -34.030  23.595   0.001  0.00  0.00    -0.114 S 
ATOM      6  O   UNL     1     -37.232  23.410   3.367  0.00  0.00    -0.273 OA
ATOM      7  N   UNL     1     -35.866  22.584   1.630  0.00  0.00    -0.242 N 
ATOM      8  C   UNL     1     -35.774  23.348   0.399  0.00  0.00    +0.155 C 
ATOM      9  CA  UNL     1     -36.471  24.492   1.169  0.00  0.00    +0.178 C 
ATOM     10  C   UNL     1     -36.671  23.440   2.297  0.00  0.00    +0.251 C 
ATOM     11  CA  UNL     1     -35.250  21.389   1.826  0.00  0.00    +0.128 C 
ATOM     12  C   UNL     1     -33.698  21.805  -0.144  0.00  0.00    +0.087 C 
ATOM     13  C   UNL     1     -34.263  20.965   0.999  0.00  0.00    +0.009 C 
BRANCH  13  14
ATOM     14  C   UNL     1     -33.603  19.676   1.101  0.00  0.00    -0.007 C 
ATOM     15  C   UNL     1     -32.347  19.476   0.708  0.00  0.00    -0.026 C 
ATOM     16  C   UNL     1     -31.662  18.152   0.808  0.00  0.00    +0.031 C 
ENDBRANCH  13  14
BRANCH  11  18
ATOM     17  OXT UNL     1     -35.162  20.691   4.096  0.00  0.00    -0.244 OA
ATOM     18  C   UNL     1     -35.681  20.613   3.003  0.00  0.00    +0.352 C 
BRANCH  18  19
ATOM     19  O   UNL     1     -36.719  19.828   2.662  0.00  0.00    -0.476 OA
ATOM     20  H   UNL     1     -37.565  20.207   2.518  0.00  0.00    +0.295 HD
ENDBRANCH  18  19
ENDBRANCH  11  18
ENDBRANCH   2   9
BRANCH   3  21
ATOM     21  CA  UNL     1     -35.208  27.905   2.364  0.00  0.00    +0.036 C 
BRANCH  21  22
ATOM     22  C   UNL     1     -35.555  29.237   1.731  0.00  0.00    -0.034 C 
ATOM     23  C   UNL     1     -35.795  29.295   0.370  0.00  0.00    -0.003 C 
ATOM     24  C   UNL     1     -35.624  30.364   2.530  0.00  0.00    -0.003 C 
ATOM     25  C   UNL     1     -36.114  30.522  -0.212  0.00  0.00    +0.036 C 
ATOM     26  C   UNL     1     -35.943  31.591   1.947  0.00  0.00    +0.036 C 
ATOM     27  C   UNL     1     -36.187  31.671   0.576  0.00  0.00    +0.134 C 
BRANCH  27  28
ATOM     28  O   UNL     1     -36.500  32.867   0.007  0.00  0.00    -0.506 OA
ATOM     29  H   UNL     1     -36.077  33.649   0.302  0.00  0.00    +0.292 HD
ENDBRANCH  27  28
ENDBRANCH  21  22
BRANCH  21  30
ATOM     30  N   UNL     1     -35.133  27.985   3.825  0.00  0.00    +0.390 N 
ATOM     31  H1  UNL     1     -34.196  28.278   4.102  0.00  0.00    -0.088 HD
ATOM     32  H2  UNL     1     -35.334  27.068   4.227  0.00  0.00    -0.088 HD
ATOM     33  H3  UNL     1     -35.815  28.662   4.165  0.00  0.00    -0.088 HD
ENDBRANCH  21  30
ENDBRANCH   3  21
TORSDOF 8
ENDMDL
MODEL 9
REMARK VINA RESULT:      -5.9      4.198      6.151
REMARK  Name = 5281006
REMARK  8 active torsions:
REMARK  status: ('A' for Active; 'I' for Inactive)
REMARK    1  A    between atoms: N_2  and  CA_9
REMARK    2  A    between atoms: C_3  and  CA_21
REMARK    3  A    between atoms: CA_11  and  C_18
REMARK    4  A    between atoms: C_13  and  C_14
REMARK    5  A    between atoms: C_18  and  O_19
REMARK    6  A    between atoms: CA_21  and  C_22
REMARK    7  A    between atoms: CA_21  and  N_30
REMARK    8  A    between atoms: C_27  and  O_28
REMARK                            x       y       z     vdW  Elec       q    Type
REMARK                         _______ _______ _______ _____ _____    ______ ____
ROOT
ATOM      1  O   UNL     1     -38.313  22.498   1.069  0.00  0.00    -0.277 OA
ATOM      2  N   UNL     1     -36.809  22.669   2.826  0.00  0.00    -0.298 N 
ATOM      3  C   UNL     1     -37.378  22.034   1.718  0.00  0.00    +0.206 C 
ATOM      4  H   UNL     1     -36.061  22.225   3.289  0.00  0.00    +0.150 HD
ENDROOT
BRANCH   2   9
ATOM      5  S   UNL     1     -35.112  23.697   5.164  0.00  0.00    -0.114 S 
ATOM      6  O   UNL     1     -36.985  25.563   1.339  0.00  0.00    -0.273 OA
ATOM      7  N   UNL     1     -35.981  25.551   3.473  0.00  0.00    -0.242 N 
ATOM      8  C   UNL     1     -36.495  24.635   4.475  0.00  0.00    +0.155 C 
ATOM      9  CA  UNL     1     -37.273  23.962   3.323  0.00  0.00    +0.178 C 
ATOM     10  C   UNL     1     -36.793  25.167   2.465  0.00  0.00    +0.251 C 
ATOM     11  CA  UNL     1     -34.983  26.444   3.706  0.00  0.00    +0.128 C 
ATOM     12  C   UNL     1     -34.277  25.192   5.803  0.00  0.00    +0.087 C 
ATOM     13  C   UNL     1     -34.191  26.341   4.802  0.00  0.00    +0.009 C 
BRANCH  13  14
ATOM     14  C   UNL     1     -33.151  27.289   5.155  0.00  0.00    -0.007 C 
ATOM     15  C   UNL     1     -32.639  27.376   6.381  0.00  0.00    -0.026 C 
ATOM     16  C   UNL     1     -31.569  28.351   6.751  0.00  0.00    +0.031 C 
ENDBRANCH  13  14
BRANCH  11  18
ATOM     17  OXT UNL     1     -34.040  27.383   1.737  0.00  0.00    -0.244 OA
ATOM     18  C   UNL     1     -34.787  27.490   2.687  0.00  0.00    +0.352 C 
BRANCH  18  19
ATOM     19  O   UNL     1     -35.560  28.551   2.983  0.00  0.00    -0.476 OA
ATOM     20  H   UNL     1     -35.844  28.692   3.865  0.00  0.00    +0.295 HD
ENDBRANCH  18  19
ENDBRANCH  11  18
ENDBRANCH   2   9
BRANCH   3  21
ATOM     21  CA  UNL     1     -36.734  20.688   1.409  0.00  0.00    +0.036 C 
BRANCH  21  22
ATOM     22  C   UNL     1     -35.318  20.870   0.904  0.00  0.00    -0.034 C 
ATOM     23  C   UNL     1     -34.363  19.919   1.215  0.00  0.00    -0.003 C 
ATOM     24  C   UNL     1     -35.012  21.984   0.143  0.00  0.00    -0.003 C 
ATOM     25  C   UNL     1     -33.058  20.087   0.750  0.00  0.00    +0.036 C 
ATOM     26  C   UNL     1     -33.708  22.153  -0.322  0.00  0.00    +0.036 C 
ATOM     27  C   UNL     1     -32.730  21.205  -0.018  0.00  0.00    +0.134 C 
BRANCH  27  28
ATOM     28  O   UNL     1     -31.458  21.368  -0.473  0.00  0.00    -0.506 OA
ATOM     29  H   UNL     1     -31.309  21.688  -1.341  0.00  0.00    +0.292 HD
ENDBRANCH  27  28
ENDBRANCH  21  22
BRANCH  21  30
ATOM     30  N   UNL     1     -36.791  19.875   2.627  0.00  0.00    +0.390 N 
ATOM     31  H1  UNL     1     -36.128  20.240   3.311  0.00  0.00    -0.088 HD
ATOM     32  H2  UNL     1     -36.551  18.909   2.403  0.00  0.00    -0.088 HD
ATOM     33  H3  UNL     1     -37.733  19.909   3.016  0.00  0.00    -0.088 HD
ENDBRANCH  21  30
ENDBRANCH   3  21
TORSDOF 8
ENDMDL
