MODEL 1
REMARK VINA RESULT:      -5.4      0.000      0.000
REMARK  Name = 5323714
REMARK  4 active torsions:
REMARK  status: ('A' for Active; 'I' for Inactive)
REMARK    1  A    between atoms: C_2  and  C_10
REMARK    2  A    between atoms: C_4  and  N_8
REMARK    3  A    between atoms: N_9  and  C_10
REMARK    4  A    between atoms: N_9  and  N_13
REMARK                            x       y       z     vdW  Elec       q    Type
REMARK                         _______ _______ _______ _____ _____    ______ ____
ROOT
ATOM      1  O   UNL     1     -36.064  23.162   3.855  0.00  0.00    -0.436 OA
ATOM      2  C   UNL     1     -35.896  23.834   5.008  0.00  0.00    +0.144 C 
ATOM      3  C   UNL     1     -35.370  23.064   5.991  0.00  0.00    +0.040 C 
ATOM      4  C   UNL     1     -35.625  21.901   4.105  0.00  0.00    +0.289 C 
ATOM      5  C   UNL     1     -35.187  21.789   5.404  0.00  0.00    +0.066 C 
ENDROOT
BRANCH   4   8
ATOM      6  O   UNL     1     -34.810  20.130   2.871  0.00  0.00    -0.123 OA
ATOM      7  O   UNL     1     -36.671  21.093   2.216  0.00  0.00    -0.123 OA
ATOM      8  N   UNL     1     -35.705  21.013   3.030  0.00  0.00    +0.093 N 
ENDBRANCH   4   8
BRANCH   2   9
ATOM      9  C   UNL     1     -36.296  25.232   5.016  0.00  0.00    +0.176 C 
BRANCH   9  10
ATOM     10  N   UNL     1     -35.607  26.139   5.631  0.00  0.00    -0.117 NA
BRANCH  10  13
ATOM     11  O   UNL     1     -32.430  27.209   4.600  0.00  0.00    -0.432 OA
ATOM     12  O   UNL     1     -33.020  26.628   6.736  0.00  0.00    -0.225 OA
ATOM     13  N   UNL     1     -34.524  26.541   4.953  0.00  0.00    -0.169 N 
ATOM     14  C   UNL     1     -34.530  26.915   3.583  0.00  0.00    +0.164 C 
ATOM     15  C   UNL     1     -33.055  27.091   3.307  0.00  0.00    +0.233 C 
ATOM     16  C   UNL     1     -33.313  26.767   5.557  0.00  0.00    +0.420 C 
ENDBRANCH  10  13
ENDBRANCH   9  10
ENDBRANCH   2   9
TORSDOF 4
ENDMDL
MODEL 2
REMARK VINA RESULT:      -5.3      1.933      5.498
REMARK  Name = 5323714
REMARK  4 active torsions:
REMARK  status: ('A' for Active; 'I' for Inactive)
REMARK    1  A    between atoms: C_2  and  C_10
REMARK    2  A    between atoms: C_4  and  N_8
REMARK    3  A    between atoms: N_9  and  C_10
REMARK    4  A    between atoms: N_9  and  N_13
REMARK                            x       y       z     vdW  Elec       q    Type
REMARK                         _______ _______ _______ _____ _____    ______ ____
ROOT
ATOM      1  O   UNL     1     -34.484  26.516   3.924  0.00  0.00    -0.436 OA
ATOM      2  C   UNL     1     -35.244  25.641   4.607  0.00  0.00    +0.144 C 
ATOM      3  C   UNL     1     -34.854  25.506   5.898  0.00  0.00    +0.040 C 
ATOM      4  C   UNL     1     -33.562  26.965   4.815  0.00  0.00    +0.289 C 
ATOM      5  C   UNL     1     -33.747  26.375   6.043  0.00  0.00    +0.066 C 
ENDROOT
BRANCH   4   8
ATOM      6  O   UNL     1     -31.489  27.529   3.975  0.00  0.00    -0.123 OA
ATOM      7  O   UNL     1     -32.989  29.115   4.206  0.00  0.00    -0.123 OA
ATOM      8  N   UNL     1     -32.652  27.900   4.316  0.00  0.00    +0.093 N 
ENDBRANCH   4   8
BRANCH   2   9
ATOM      9  C   UNL     1     -36.325  25.001   3.876  0.00  0.00    +0.176 C 
BRANCH   9  10
ATOM     10  N   UNL     1     -36.933  23.952   4.329  0.00  0.00    -0.117 NA
BRANCH  10  13
ATOM     11  O   UNL     1     -35.160  20.927   4.406  0.00  0.00    -0.432 OA
ATOM     12  O   UNL     1     -35.798  22.152   6.232  0.00  0.00    -0.225 OA
ATOM     13  N   UNL     1     -36.303  22.804   4.049  0.00  0.00    -0.169 N 
ATOM     14  C   UNL     1     -35.985  22.364   2.737  0.00  0.00    +0.164 C 
ATOM     15  C   UNL     1     -35.467  20.969   2.998  0.00  0.00    +0.233 C 
ATOM     16  C   UNL     1     -35.771  21.994   5.020  0.00  0.00    +0.420 C 
ENDBRANCH  10  13
ENDBRANCH   9  10
ENDBRANCH   2   9
TORSDOF 4
ENDMDL
MODEL 3
REMARK VINA RESULT:      -5.3      3.548      5.547
REMARK  Name = 5323714
REMARK  4 active torsions:
REMARK  status: ('A' for Active; 'I' for Inactive)
REMARK    1  A    between atoms: C_2  and  C_10
REMARK    2  A    between atoms: C_4  and  N_8
REMARK    3  A    between atoms: N_9  and  C_10
REMARK    4  A    between atoms: N_9  and  N_13
REMARK                            x       y       z     vdW  Elec       q    Type
REMARK                         _______ _______ _______ _____ _____    ______ ____
ROOT
ATOM      1  O   UNL     1     -33.538  18.885   1.724  0.00  0.00    -0.436 OA
ATOM      2  C   UNL     1     -34.104  20.077   1.459  0.00  0.00    +0.144 C 
ATOM      3  C   UNL     1     -33.440  20.769   0.501  0.00  0.00    +0.040 C 
ATOM      4  C   UNL     1     -32.461  18.805   0.900  0.00  0.00    +0.289 C 
ATOM      5  C   UNL     1     -32.358  19.939   0.127  0.00  0.00    +0.066 C 
ENDROOT
BRANCH   4   8
ATOM      6  O   UNL     1     -32.184  16.540   0.565  0.00  0.00    -0.123 OA
ATOM      7  O   UNL     1     -30.564  17.660   1.536  0.00  0.00    -0.123 OA
ATOM      8  N   UNL     1     -31.712  17.631   1.004  0.00  0.00    +0.093 N 
ENDBRANCH   4   8
BRANCH   2   9
ATOM      9  C   UNL     1     -35.294  20.420   2.219  0.00  0.00    +0.176 C 
BRANCH   9  10
ATOM     10  N   UNL     1     -35.265  20.592   3.501  0.00  0.00    -0.117 NA
BRANCH  10  13
ATOM     11  O   UNL     1     -36.126  23.506   5.252  0.00  0.00    -0.432 OA
ATOM     12  O   UNL     1     -34.954  21.731   6.101  0.00  0.00    -0.225 OA
ATOM     13  N   UNL     1     -35.703  21.796   3.891  0.00  0.00    -0.169 N 
ATOM     14  C   UNL     1     -36.515  22.648   3.096  0.00  0.00    +0.164 C 
ATOM     15  C   UNL     1     -36.548  23.906   3.933  0.00  0.00    +0.233 C 
ATOM     16  C   UNL     1     -35.526  22.272   5.165  0.00  0.00    +0.420 C 
ENDBRANCH  10  13
ENDBRANCH   9  10
ENDBRANCH   2   9
TORSDOF 4
ENDMDL
MODEL 4
REMARK VINA RESULT:      -5.2      2.054      2.927
REMARK  Name = 5323714
REMARK  4 active torsions:
REMARK  status: ('A' for Active; 'I' for Inactive)
REMARK    1  A    between atoms: C_2  and  C_10
REMARK    2  A    between atoms: C_4  and  N_8
REMARK    3  A    between atoms: N_9  and  C_10
REMARK    4  A    between atoms: N_9  and  N_13
REMARK                            x       y       z     vdW  Elec       q    Type
REMARK                         _______ _______ _______ _____ _____    ______ ____
ROOT
ATOM      1  O   UNL     1     -34.497  24.427   4.269  0.00  0.00    -0.436 OA
ATOM      2  C   UNL     1     -34.563  25.770   4.242  0.00  0.00    +0.144 C 
ATOM      3  C   UNL     1     -35.576  26.259   4.998  0.00  0.00    +0.040 C 
ATOM      4  C   UNL     1     -35.513  24.031   5.080  0.00  0.00    +0.289 C 
ATOM      5  C   UNL     1     -36.206  25.120   5.554  0.00  0.00    +0.066 C 
ENDROOT
BRANCH   4   8
ATOM      6  O   UNL     1     -35.484  21.872   4.269  0.00  0.00    -0.123 OA
ATOM      7  O   UNL     1     -35.901  22.182   6.402  0.00  0.00    -0.123 OA
ATOM      8  N   UNL     1     -35.637  22.651   5.257  0.00  0.00    +0.093 N 
ENDBRANCH   4   8
BRANCH   2   9
ATOM      9  C   UNL     1     -33.572  26.459   3.432  0.00  0.00    +0.176 C 
BRANCH   9  10
ATOM     10  N   UNL     1     -32.389  26.732   3.881  0.00  0.00    -0.117 NA
BRANCH  10  13
ATOM     11  O   UNL     1     -32.227  29.331   6.229  0.00  0.00    -0.432 OA
ATOM     12  O   UNL     1     -32.210  27.092   6.707  0.00  0.00    -0.225 OA
ATOM     13  N   UNL     1     -32.316  27.905   4.523  0.00  0.00    -0.169 N 
ATOM     14  C   UNL     1     -32.450  29.171   3.893  0.00  0.00    +0.164 C 
ATOM     15  C   UNL     1     -32.107  30.113   5.025  0.00  0.00    +0.233 C 
ATOM     16  C   UNL     1     -32.245  28.000   5.889  0.00  0.00    +0.420 C 
ENDBRANCH  10  13
ENDBRANCH   9  10
ENDBRANCH   2   9
TORSDOF 4
ENDMDL
MODEL 5
REMARK VINA RESULT:      -5.1      3.652      5.597
REMARK  Name = 5323714
REMARK  4 active torsions:
REMARK  status: ('A' for Active; 'I' for Inactive)
REMARK    1  A    between atoms: C_2  and  C_10
REMARK    2  A    between atoms: C_4  and  N_8
REMARK    3  A    between atoms: N_9  and  C_10
REMARK    4  A    between atoms: N_9  and  N_13
REMARK                            x       y       z     vdW  Elec       q    Type
REMARK                         _______ _______ _______ _____ _____    ______ ____
ROOT
ATOM      1  O   UNL     1     -36.804  23.303   4.254  0.00  0.00    -0.436 OA
ATOM      2  C   UNL     1     -37.027  24.626   4.154  0.00  0.00    +0.144 C 
ATOM      3  C   UNL     1     -36.104  25.364   4.816  0.00  0.00    +0.040 C 
ATOM      4  C   UNL     1     -35.685  23.182   5.015  0.00  0.00    +0.289 C 
ATOM      5  C   UNL     1     -35.216  24.421   5.386  0.00  0.00    +0.066 C 
ENDROOT
BRANCH   4   8
ATOM      6  O   UNL     1     -34.836  21.546   6.402  0.00  0.00    -0.123 OA
ATOM      7  O   UNL     1     -35.298  21.018   4.322  0.00  0.00    -0.123 OA
ATOM      8  N   UNL     1     -35.260  21.874   5.253  0.00  0.00    +0.093 N 
ENDBRANCH   4   8
BRANCH   2   9
ATOM      9  C   UNL     1     -38.186  25.038   3.379  0.00  0.00    +0.176 C 
BRANCH   9  10
ATOM     10  N   UNL     1     -39.367  24.556   3.600  0.00  0.00    -0.117 NA
BRANCH  10  13
ATOM     11  O   UNL     1     -40.763  23.052   0.757  0.00  0.00    -0.432 OA
ATOM     12  O   UNL     1     -39.408  22.021   2.288  0.00  0.00    -0.225 OA
ATOM     13  N   UNL     1     -40.043  24.258   2.484  0.00  0.00    -0.169 N 
ATOM     14  C   UNL     1     -40.750  25.207   1.699  0.00  0.00    +0.164 C 
ATOM     15  C   UNL     1     -41.453  24.316   0.700  0.00  0.00    +0.233 C 
ATOM     16  C   UNL     1     -40.005  23.016   1.903  0.00  0.00    +0.420 C 
ENDBRANCH  10  13
ENDBRANCH   9  10
ENDBRANCH   2   9
TORSDOF 4
ENDMDL
MODEL 6
REMARK VINA RESULT:      -5.0      2.657      5.856
REMARK  Name = 5323714
REMARK  4 active torsions:
REMARK  status: ('A' for Active; 'I' for Inactive)
REMARK    1  A    between atoms: C_2  and  C_10
REMARK    2  A    between atoms: C_4  and  N_8
REMARK    3  A    between atoms: N_9  and  C_10
REMARK    4  A    between atoms: N_9  and  N_13
REMARK                            x       y       z     vdW  Elec       q    Type
REMARK                         _______ _______ _______ _____ _____    ______ ____
ROOT
ATOM      1  O   UNL     1     -35.436  23.780   3.991  0.00  0.00    -0.436 OA
ATOM      2  C   UNL     1     -35.626  22.449   4.009  0.00  0.00    +0.144 C 
ATOM      3  C   UNL     1     -35.384  21.902   5.225  0.00  0.00    +0.040 C 
ATOM      4  C   UNL     1     -35.054  24.107   5.253  0.00  0.00    +0.289 C 
ATOM      5  C   UNL     1     -35.007  22.988   6.050  0.00  0.00    +0.066 C 
ENDROOT
BRANCH   4   8
ATOM      6  O   UNL     1     -33.603  25.882   5.513  0.00  0.00    -0.123 OA
ATOM      7  O   UNL     1     -35.761  26.270   5.624  0.00  0.00    -0.123 OA
ATOM      8  N   UNL     1     -34.799  25.463   5.470  0.00  0.00    +0.093 N 
ENDBRANCH   4   8
BRANCH   2   9
ATOM      9  C   UNL     1     -36.044  21.830   2.762  0.00  0.00    +0.176 C 
BRANCH   9  10
ATOM     10  N   UNL     1     -36.623  22.504   1.821  0.00  0.00    -0.117 NA
BRANCH  10  13
ATOM     11  O   UNL     1     -40.121  22.348   2.026  0.00  0.00    -0.432 OA
ATOM     12  O   UNL     1     -38.781  23.846   3.124  0.00  0.00    -0.225 OA
ATOM     13  N   UNL     1     -37.925  22.223   1.682  0.00  0.00    -0.169 N 
ATOM     14  C   UNL     1     -38.430  21.113   0.953  0.00  0.00    +0.164 C 
ATOM     15  C   UNL     1     -39.917  21.386   0.973  0.00  0.00    +0.233 C 
ATOM     16  C   UNL     1     -38.907  22.906   2.352  0.00  0.00    +0.420 C 
ENDBRANCH  10  13
ENDBRANCH   9  10
ENDBRANCH   2   9
TORSDOF 4
ENDMDL
MODEL 7
REMARK VINA RESULT:      -5.0      2.590      5.924
REMARK  Name = 5323714
REMARK  4 active torsions:
REMARK  status: ('A' for Active; 'I' for Inactive)
REMARK    1  A    between atoms: C_2  and  C_10
REMARK    2  A    between atoms: C_4  and  N_8
REMARK    3  A    between atoms: N_9  and  C_10
REMARK    4  A    between atoms: N_9  and  N_13
REMARK                            x       y       z     vdW  Elec       q    Type
REMARK                         _______ _______ _______ _____ _____    ______ ____
ROOT
ATOM      1  O   UNL     1     -35.271  23.255   4.042  0.00  0.00    -0.436 OA
ATOM      2  C   UNL     1     -35.442  21.924   4.142  0.00  0.00    +0.144 C 
ATOM      3  C   UNL     1     -35.346  21.478   5.418  0.00  0.00    +0.040 C 
ATOM      4  C   UNL     1     -35.054  23.687   5.312  0.00  0.00    +0.289 C 
ATOM      5  C   UNL     1     -35.091  22.633   6.195  0.00  0.00    +0.066 C 
ENDROOT
BRANCH   4   8
ATOM      6  O   UNL     1     -33.694  25.549   5.257  0.00  0.00    -0.123 OA
ATOM      7  O   UNL     1     -35.812  25.816   5.772  0.00  0.00    -0.123 OA
ATOM      8  N   UNL     1     -34.847  25.061   5.451  0.00  0.00    +0.093 N 
ENDBRANCH   4   8
BRANCH   2   9
ATOM      9  C   UNL     1     -35.693  21.202   2.905  0.00  0.00    +0.176 C 
BRANCH   9  10
ATOM     10  N   UNL     1     -35.027  20.139   2.584  0.00  0.00    -0.117 NA
BRANCH  10  13
ATOM     11  O   UNL     1     -32.701  19.848  -0.023  0.00  0.00    -0.432 OA
ATOM     12  O   UNL     1     -32.998  18.346   1.680  0.00  0.00    -0.225 OA
ATOM     13  N   UNL     1     -34.279  20.287   1.484  0.00  0.00    -0.169 N 
ATOM     14  C   UNL     1     -34.292  21.442   0.657  0.00  0.00    +0.164 C 
ATOM     15  C   UNL     1     -33.426  20.999  -0.500  0.00  0.00    +0.233 C 
ATOM     16  C   UNL     1     -33.311  19.387   1.118  0.00  0.00    +0.420 C 
ENDBRANCH  10  13
ENDBRANCH   9  10
ENDBRANCH   2   9
TORSDOF 4
ENDMDL
MODEL 8
REMARK VINA RESULT:      -5.0      2.564      3.186
REMARK  Name = 5323714
REMARK  4 active torsions:
REMARK  status: ('A' for Active; 'I' for Inactive)
REMARK    1  A    between atoms: C_2  and  C_10
REMARK    2  A    between atoms: C_4  and  N_8
REMARK    3  A    between atoms: N_9  and  C_10
REMARK    4  A    between atoms: N_9  and  N_13
REMARK                            x       y       z     vdW  Elec       q    Type
REMARK                         _______ _______ _______ _____ _____    ______ ____
ROOT
ATOM      1  O   UNL     1     -37.986  22.799   3.114  0.00  0.00    -0.436 OA
ATOM      2  C   UNL     1     -36.679  22.534   3.288  0.00  0.00    +0.144 C 
ATOM      3  C   UNL     1     -36.235  21.540   2.481  0.00  0.00    +0.040 C 
ATOM      4  C   UNL     1     -38.405  21.938   2.150  0.00  0.00    +0.289 C 
ATOM      5  C   UNL     1     -37.365  21.143   1.727  0.00  0.00    +0.066 C 
ENDROOT
BRANCH   4   8
ATOM      6  O   UNL     1     -40.355  23.147   1.914  0.00  0.00    -0.123 OA
ATOM      7  O   UNL     1     -40.372  21.019   1.374  0.00  0.00    -0.123 OA
ATOM      8  N   UNL     1     -39.753  22.037   1.801  0.00  0.00    +0.093 N 
ENDBRANCH   4   8
BRANCH   2   9
ATOM      9  C   UNL     1     -35.976  23.327   4.283  0.00  0.00    +0.176 C 
BRANCH   9  10
ATOM     10  N   UNL     1     -36.482  24.409   4.781  0.00  0.00    -0.117 NA
BRANCH  10  13
ATOM     11  O   UNL     1     -34.651  27.348   4.223  0.00  0.00    -0.432 OA
ATOM     12  O   UNL     1     -34.445  25.965   6.037  0.00  0.00    -0.225 OA
ATOM     13  N   UNL     1     -35.935  25.530   4.295  0.00  0.00    -0.169 N 
ATOM     14  C   UNL     1     -36.383  26.197   3.123  0.00  0.00    +0.164 C 
ATOM     15  C   UNL     1     -35.321  27.259   2.950  0.00  0.00    +0.233 C 
ATOM     16  C   UNL     1     -34.965  26.233   4.963  0.00  0.00    +0.420 C 
ENDBRANCH  10  13
ENDBRANCH   9  10
ENDBRANCH   2   9
TORSDOF 4
ENDMDL
MODEL 9
REMARK VINA RESULT:      -4.9      4.246      5.600
REMARK  Name = 5323714
REMARK  4 active torsions:
REMARK  status: ('A' for Active; 'I' for Inactive)
REMARK    1  A    between atoms: C_2  and  C_10
REMARK    2  A    between atoms: C_4  and  N_8
REMARK    3  A    between atoms: N_9  and  C_10
REMARK    4  A    between atoms: N_9  and  N_13
REMARK                            x       y       z     vdW  Elec       q    Type
REMARK                         _______ _______ _______ _____ _____    ______ ____
ROOT
ATOM      1  O   UNL     1     -36.818  23.091   4.072  0.00  0.00    -0.436 OA
ATOM      2  C   UNL     1     -37.198  24.378   3.989  0.00  0.00    +0.144 C 
ATOM      3  C   UNL     1     -36.444  25.197   4.761  0.00  0.00    +0.040 C 
ATOM      4  C   UNL     1     -35.770  23.078   4.936  0.00  0.00    +0.289 C 
ATOM      5  C   UNL     1     -35.500  24.349   5.388  0.00  0.00    +0.066 C 
ENDROOT
BRANCH   4   8
ATOM      6  O   UNL     1     -35.251  20.929   4.280  0.00  0.00    -0.123 OA
ATOM      7  O   UNL     1     -34.650  21.583   6.288  0.00  0.00    -0.123 OA
ATOM      8  N   UNL     1     -35.205  21.824   5.177  0.00  0.00    +0.093 N 
ENDBRANCH   4   8
BRANCH   2   9
ATOM      9  C   UNL     1     -38.322  24.675   3.115  0.00  0.00    +0.176 C 
BRANCH   9  10
ATOM     10  N   UNL     1     -39.533  24.769   3.563  0.00  0.00    -0.117 NA
BRANCH  10  13
ATOM     11  O   UNL     1     -42.025  26.352   1.669  0.00  0.00    -0.432 OA
ATOM     12  O   UNL     1     -41.197  27.086   3.674  0.00  0.00    -0.225 OA
ATOM     13  N   UNL     1     -40.420  25.148   2.634  0.00  0.00    -0.169 N 
ATOM     14  C   UNL     1     -40.765  24.373   1.495  0.00  0.00    +0.164 C 
ATOM     15  C   UNL     1     -41.639  25.335   0.723  0.00  0.00    +0.233 C 
ATOM     16  C   UNL     1     -41.195  26.271   2.763  0.00  0.00    +0.420 C 
ENDBRANCH  10  13
ENDBRANCH   9  10
ENDBRANCH   2   9
TORSDOF 4
ENDMDL
