MODEL 1
REMARK VINA RESULT:      -7.8      0.000      0.000
REMARK  Name = 56931136
REMARK  5 active torsions:
REMARK  status: ('A' for Active; 'I' for Inactive)
REMARK    1  A    between atoms: N_2  and  C_29
REMARK    2  A    between atoms: C_3  and  C_15
REMARK    3  A    between atoms: C_3  and  O_36
REMARK    4  A    between atoms: N_14  and  C_21
REMARK    5  A    between atoms: C_22  and  O_26
REMARK                            x       y       z     vdW  Elec       q    Type
REMARK                         _______ _______ _______ _____ _____    ______ ____
ROOT
ATOM      1  O   UNL     1     -36.410  21.441  -1.635  0.00  0.00    -0.270 OA
ATOM      2  N   UNL     1     -35.828  21.095   0.640  0.00  0.00    -0.230 N 
ATOM      3  C   UNL     1     -36.548  21.217   1.934  0.00  0.00    +0.195 C 
ATOM      4  C   UNL     1     -37.919  21.666   1.496  0.00  0.00    +0.028 C 
ATOM      5  C   UNL     1     -37.969  21.792   0.113  0.00  0.00    +0.054 C 
ATOM      6  C   UNL     1     -36.664  21.432  -0.443  0.00  0.00    +0.255 C 
ATOM      7  C   UNL     1     -39.047  21.932   2.259  0.00  0.00    +0.000 C 
ATOM      8  C   UNL     1     -39.111  22.191  -0.559  0.00  0.00    +0.004 C 
ATOM      9  C   UNL     1     -40.214  22.337   1.603  0.00  0.00    -0.000 C 
ATOM     10  C   UNL     1     -40.245  22.466   0.205  0.00  0.00    +0.000 C 
ENDROOT
BRANCH   3  13
ATOM     11  N   UNL     1     -34.663  25.670   3.250  0.00  0.00    -0.302 N 
ATOM     12  N   UNL     1     -34.071  25.014   5.290  0.00  0.00    -0.302 N 
ATOM     13  C   UNL     1     -35.890  22.184   2.859  0.00  0.00    +0.025 C 
ATOM     14  C   UNL     1     -35.655  23.493   2.426  0.00  0.00    +0.016 C 
ATOM     15  C   UNL     1     -35.520  21.767   4.140  0.00  0.00    +0.001 C 
ATOM     16  C   UNL     1     -35.036  24.353   3.334  0.00  0.00    +0.060 C 
ATOM     17  C   UNL     1     -34.656  23.967   4.617  0.00  0.00    +0.060 C 
ATOM     18  C   UNL     1     -34.900  22.648   5.034  0.00  0.00    +0.015 C 
ATOM     19  C   UNL     1     -34.090  26.019   4.442  0.00  0.00    +0.229 C 
ATOM     20  H   UNL     1     -34.784  26.259   2.471  0.00  0.00    +0.150 HD
ATOM     21  H   UNL     1     -33.714  25.011   6.207  0.00  0.00    +0.150 HD
BRANCH  19  23
ATOM     22  O   UNL     1     -32.118  27.095   6.438  0.00  0.00    -0.226 OA
ATOM     23  N   UNL     1     -33.622  27.290   4.640  0.00  0.00    -0.240 N 
ATOM     24  C   UNL     1     -32.694  27.764   5.589  0.00  0.00    +0.404 C 
ATOM     25  H   UNL     1     -33.987  27.973   4.032  0.00  0.00    +0.156 HD
BRANCH  24  26
ATOM     26  O   UNL     1     -32.511  29.112   5.435  0.00  0.00    -0.431 OA
ATOM     27  C   UNL     1     -31.721  29.757   6.441  0.00  0.00    +0.257 C 
ENDBRANCH  24  26
ENDBRANCH  19  23
ENDBRANCH   3  13
BRANCH   2  29
ATOM     28 CL   UNL     1     -32.458  17.281   1.036  0.00  0.00    -0.082 Cl
ATOM     29  C   UNL     1     -34.504  20.679   0.520  0.00  0.00    +0.054 C 
ATOM     30  C   UNL     1     -33.507  21.573   0.126  0.00  0.00    -0.008 C 
ATOM     31  C   UNL     1     -34.179  19.353   0.802  0.00  0.00    +0.026 C 
ATOM     32  C   UNL     1     -32.187  21.137   0.012  0.00  0.00    -0.002 C 
ATOM     33  C   UNL     1     -33.826  22.999  -0.182  0.00  0.00    +0.032 C 
ATOM     34  C   UNL     1     -32.858  18.918   0.689  0.00  0.00    +0.059 C 
ATOM     35  C   UNL     1     -31.862  19.811   0.294  0.00  0.00    +0.011 C 
ENDBRANCH   2  29
BRANCH   3  36
ATOM     36  O   UNL     1     -36.638  19.948   2.564  0.00  0.00    -0.363 OA
ATOM     37  H   UNL     1     -36.624  20.062   3.527  0.00  0.00    +0.213 HD
ENDBRANCH   3  36
TORSDOF 5
ENDMDL
MODEL 2
REMARK VINA RESULT:      -7.6      4.271      6.396
REMARK  Name = 56931136
REMARK  5 active torsions:
REMARK  status: ('A' for Active; 'I' for Inactive)
REMARK    1  A    between atoms: N_2  and  C_29
REMARK    2  A    between atoms: C_3  and  C_15
REMARK    3  A    between atoms: C_3  and  O_36
REMARK    4  A    between atoms: N_14  and  C_21
REMARK    5  A    between atoms: C_22  and  O_26
REMARK                            x       y       z     vdW  Elec       q    Type
REMARK                         _______ _______ _______ _____ _____    ______ ____
ROOT
ATOM      1  O   UNL     1     -35.805  20.081   2.622  0.00  0.00    -0.270 OA
ATOM      2  N   UNL     1     -35.978  22.298   1.789  0.00  0.00    -0.230 N 
ATOM      3  C   UNL     1     -35.870  23.652   2.391  0.00  0.00    +0.195 C 
ATOM      4  C   UNL     1     -35.589  23.338   3.839  0.00  0.00    +0.028 C 
ATOM      5  C   UNL     1     -35.551  21.963   4.038  0.00  0.00    +0.054 C 
ATOM      6  C   UNL     1     -35.789  21.292   2.758  0.00  0.00    +0.255 C 
ATOM      7  C   UNL     1     -35.370  24.200   4.903  0.00  0.00    +0.000 C 
ATOM      8  C   UNL     1     -35.312  21.394   5.276  0.00  0.00    +0.004 C 
ATOM      9  C   UNL     1     -35.126  23.650   6.166  0.00  0.00    -0.000 C 
ATOM     10  C   UNL     1     -35.098  22.258   6.351  0.00  0.00    +0.000 C 
ENDROOT
BRANCH   3  13
ATOM     11  N   UNL     1     -40.348  25.461   3.727  0.00  0.00    -0.302 N 
ATOM     12  N   UNL     1     -40.629  26.632   1.859  0.00  0.00    -0.302 N 
ATOM     13  C   UNL     1     -37.111  24.457   2.202  0.00  0.00    +0.025 C 
ATOM     14  C   UNL     1     -38.083  24.461   3.209  0.00  0.00    +0.016 C 
ATOM     15  C   UNL     1     -37.283  25.191   1.027  0.00  0.00    +0.001 C 
ATOM     16  C   UNL     1     -39.223  25.231   2.977  0.00  0.00    +0.060 C 
ATOM     17  C   UNL     1     -39.422  25.973   1.817  0.00  0.00    +0.060 C 
ATOM     18  C   UNL     1     -38.436  25.957   0.817  0.00  0.00    +0.015 C 
ATOM     19  C   UNL     1     -41.158  26.303   3.016  0.00  0.00    +0.229 C 
ATOM     20  H   UNL     1     -40.539  25.087   4.617  0.00  0.00    +0.150 HD
ATOM     21  H   UNL     1     -41.014  27.221   1.171  0.00  0.00    +0.150 HD
BRANCH  19  23
ATOM     22  O   UNL     1     -41.913  28.786   4.531  0.00  0.00    -0.226 OA
ATOM     23  N   UNL     1     -42.362  26.706   3.531  0.00  0.00    -0.240 N 
ATOM     24  C   UNL     1     -42.684  27.880   4.239  0.00  0.00    +0.404 C 
ATOM     25  H   UNL     1     -43.111  26.083   3.386  0.00  0.00    +0.156 HD
BRANCH  24  26
ATOM     26  O   UNL     1     -44.012  27.880   4.570  0.00  0.00    -0.431 OA
ATOM     27  C   UNL     1     -44.742  26.693   4.241  0.00  0.00    +0.257 C 
ENDBRANCH  24  26
ENDBRANCH  19  23
ENDBRANCH   3  13
BRANCH   2  29
ATOM     28 CL   UNL     1     -34.094  22.155  -2.953  0.00  0.00    -0.082 Cl
ATOM     29  C   UNL     1     -36.215  22.062   0.437  0.00  0.00    +0.054 C 
ATOM     30  C   UNL     1     -37.482  21.686  -0.012  0.00  0.00    -0.008 C 
ATOM     31  C   UNL     1     -35.168  22.208  -0.473  0.00  0.00    +0.026 C 
ATOM     32  C   UNL     1     -37.699  21.454  -1.370  0.00  0.00    -0.002 C 
ATOM     33  C   UNL     1     -38.621  21.523   0.940  0.00  0.00    +0.032 C 
ATOM     34  C   UNL     1     -35.386  21.976  -1.831  0.00  0.00    +0.059 C 
ATOM     35  C   UNL     1     -36.652  21.600  -2.280  0.00  0.00    +0.011 C 
ENDBRANCH   2  29
BRANCH   3  36
ATOM     36  O   UNL     1     -34.767  24.348   1.830  0.00  0.00    -0.363 OA
ATOM     37  H   UNL     1     -34.097  24.501   2.515  0.00  0.00    +0.213 HD
ENDBRANCH   3  36
TORSDOF 5
ENDMDL
MODEL 3
REMARK VINA RESULT:      -7.4      3.805      7.912
REMARK  Name = 56931136
REMARK  5 active torsions:
REMARK  status: ('A' for Active; 'I' for Inactive)
REMARK    1  A    between atoms: N_2  and  C_29
REMARK    2  A    between atoms: C_3  and  C_15
REMARK    3  A    between atoms: C_3  and  O_36
REMARK    4  A    between atoms: N_14  and  C_21
REMARK    5  A    between atoms: C_22  and  O_26
REMARK                            x       y       z     vdW  Elec       q    Type
REMARK                         _______ _______ _______ _____ _____    ______ ____
ROOT
ATOM      1  O   UNL     1     -36.176  27.627   1.857  0.00  0.00    -0.270 OA
ATOM      2  N   UNL     1     -37.598  25.772   2.273  0.00  0.00    -0.230 N 
ATOM      3  C   UNL     1     -37.629  24.684   3.284  0.00  0.00    +0.195 C 
ATOM      4  C   UNL     1     -36.422  25.000   4.132  0.00  0.00    +0.028 C 
ATOM      5  C   UNL     1     -35.776  26.134   3.652  0.00  0.00    +0.054 C 
ATOM      6  C   UNL     1     -36.505  26.636   2.486  0.00  0.00    +0.255 C 
ATOM      7  C   UNL     1     -35.935  24.346   5.254  0.00  0.00    +0.000 C 
ATOM      8  C   UNL     1     -34.637  26.650   4.243  0.00  0.00    +0.004 C 
ATOM      9  C   UNL     1     -34.783  24.848   5.869  0.00  0.00    -0.000 C 
ATOM     10  C   UNL     1     -34.139  25.990   5.367  0.00  0.00    +0.000 C 
ENDROOT
BRANCH   3  13
ATOM     11  N   UNL     1     -35.292  20.628   1.495  0.00  0.00    -0.302 N 
ATOM     12  N   UNL     1     -37.169  19.575   0.940  0.00  0.00    -0.302 N 
ATOM     13  C   UNL     1     -37.560  23.330   2.662  0.00  0.00    +0.025 C 
ATOM     14  C   UNL     1     -36.310  22.744   2.436  0.00  0.00    +0.016 C 
ATOM     15  C   UNL     1     -38.742  22.672   2.315  0.00  0.00    +0.001 C 
ATOM     16  C   UNL     1     -36.308  21.478   1.851  0.00  0.00    +0.060 C 
ATOM     17  C   UNL     1     -37.469  20.797   1.495  0.00  0.00    +0.060 C 
ATOM     18  C   UNL     1     -38.715  21.401   1.729  0.00  0.00    +0.015 C 
ATOM     19  C   UNL     1     -35.856  19.505   0.955  0.00  0.00    +0.229 C 
ATOM     20  H   UNL     1     -34.329  20.796   1.607  0.00  0.00    +0.150 HD
ATOM     21  H   UNL     1     -37.800  18.898   0.604  0.00  0.00    +0.150 HD
BRANCH  19  23
ATOM     22  O   UNL     1     -33.002  18.807   1.587  0.00  0.00    -0.226 OA
ATOM     23  N   UNL     1     -35.066  18.478   0.510  0.00  0.00    -0.240 N 
ATOM     24  C   UNL     1     -33.727  18.178   0.826  0.00  0.00    +0.404 C 
ATOM     25  H   UNL     1     -35.498  17.860  -0.124  0.00  0.00    +0.156 HD
BRANCH  24  26
ATOM     26  O   UNL     1     -33.325  17.055   0.153  0.00  0.00    -0.431 OA
ATOM     27  C   UNL     1     -34.357  16.117  -0.176  0.00  0.00    +0.257 C 
ENDBRANCH  24  26
ENDBRANCH  19  23
ENDBRANCH   3  13
BRANCH   2  29
ATOM     28 CL   UNL     1     -42.306  27.252   0.967  0.00  0.00    -0.082 Cl
ATOM     29  C   UNL     1     -38.544  25.924   1.262  0.00  0.00    +0.054 C 
ATOM     30  C   UNL     1     -38.251  25.559  -0.052  0.00  0.00    -0.008 C 
ATOM     31  C   UNL     1     -39.798  26.447   1.577  0.00  0.00    +0.026 C 
ATOM     32  C   UNL     1     -39.212  25.719  -1.050  0.00  0.00    -0.002 C 
ATOM     33  C   UNL     1     -36.917  24.996  -0.418  0.00  0.00    +0.032 C 
ATOM     34  C   UNL     1     -40.759  26.606   0.578  0.00  0.00    +0.059 C 
ATOM     35  C   UNL     1     -40.466  26.241  -0.735  0.00  0.00    +0.011 C 
ENDBRANCH   2  29
BRANCH   3  36
ATOM     36  O   UNL     1     -38.806  24.782   4.072  0.00  0.00    -0.363 OA
ATOM     37  H   UNL     1     -39.179  25.673   3.986  0.00  0.00    +0.213 HD
ENDBRANCH   3  36
TORSDOF 5
ENDMDL
MODEL 4
REMARK VINA RESULT:      -7.3      1.947      2.308
REMARK  Name = 56931136
REMARK  5 active torsions:
REMARK  status: ('A' for Active; 'I' for Inactive)
REMARK    1  A    between atoms: N_2  and  C_29
REMARK    2  A    between atoms: C_3  and  C_15
REMARK    3  A    between atoms: C_3  and  O_36
REMARK    4  A    between atoms: N_14  and  C_21
REMARK    5  A    between atoms: C_22  and  O_26
REMARK                            x       y       z     vdW  Elec       q    Type
REMARK                         _______ _______ _______ _____ _____    ______ ____
ROOT
ATOM      1  O   UNL     1     -37.462  24.014  -0.934  0.00  0.00    -0.270 OA
ATOM      2  N   UNL     1     -36.741  23.322   1.219  0.00  0.00    -0.230 N 
ATOM      3  C   UNL     1     -37.250  23.507   2.602  0.00  0.00    +0.195 C 
ATOM      4  C   UNL     1     -38.491  24.335   2.378  0.00  0.00    +0.028 C 
ATOM      5  C   UNL     1     -38.661  24.596   1.024  0.00  0.00    +0.054 C 
ATOM      6  C   UNL     1     -37.572  23.962   0.278  0.00  0.00    +0.255 C 
ATOM      7  C   UNL     1     -39.412  24.813   3.298  0.00  0.00    +0.000 C 
ATOM      8  C   UNL     1     -39.722  25.337   0.534  0.00  0.00    +0.004 C 
ATOM      9  C   UNL     1     -40.493  25.565   2.829  0.00  0.00    -0.000 C 
ATOM     10  C   UNL     1     -40.646  25.826   1.458  0.00  0.00    +0.000 C 
ENDROOT
BRANCH   3  13
ATOM     11  N   UNL     1     -34.284  27.282   4.040  0.00  0.00    -0.302 N 
ATOM     12  N   UNL     1     -33.498  26.217   5.826  0.00  0.00    -0.302 N 
ATOM     13  C   UNL     1     -36.256  24.181   3.486  0.00  0.00    +0.025 C 
ATOM     14  C   UNL     1     -35.833  25.478   3.176  0.00  0.00    +0.016 C 
ATOM     15  C   UNL     1     -35.765  23.508   4.607  0.00  0.00    +0.001 C 
ATOM     16  C   UNL     1     -34.902  26.057   4.038  0.00  0.00    +0.060 C 
ATOM     17  C   UNL     1     -34.395  25.412   5.162  0.00  0.00    +0.060 C 
ATOM     18  C   UNL     1     -34.832  24.110   5.459  0.00  0.00    +0.015 C 
ATOM     19  C   UNL     1     -33.455  27.329   5.126  0.00  0.00    +0.229 C 
ATOM     20  H   UNL     1     -34.413  27.998   3.378  0.00  0.00    +0.150 HD
ATOM     21  H   UNL     1     -32.996  26.006   6.646  0.00  0.00    +0.150 HD
BRANCH  19  23
ATOM     22  O   UNL     1     -30.714  27.627   6.322  0.00  0.00    -0.226 OA
ATOM     23  N   UNL     1     -32.706  28.448   5.378  0.00  0.00    -0.240 N 
ATOM     24  C   UNL     1     -31.419  28.554   5.942  0.00  0.00    +0.404 C 
ATOM     25  H   UNL     1     -33.128  29.303   5.129  0.00  0.00    +0.156 HD
BRANCH  24  26
ATOM     26  O   UNL     1     -31.044  29.869   6.014  0.00  0.00    -0.431 OA
ATOM     27  C   UNL     1     -31.893  30.803   5.336  0.00  0.00    +0.257 C 
ENDBRANCH  24  26
ENDBRANCH  19  23
ENDBRANCH   3  13
BRANCH   2  29
ATOM     28 CL   UNL     1     -34.537  18.734   0.822  0.00  0.00    -0.082 Cl
ATOM     29  C   UNL     1     -35.599  22.590   0.900  0.00  0.00    +0.054 C 
ATOM     30  C   UNL     1     -34.433  23.231   0.480  0.00  0.00    -0.008 C 
ATOM     31  C   UNL     1     -35.631  21.199   1.006  0.00  0.00    +0.026 C 
ATOM     32  C   UNL     1     -33.300  22.480   0.165  0.00  0.00    -0.002 C 
ATOM     33  C   UNL     1     -34.370  24.718   0.358  0.00  0.00    +0.032 C 
ATOM     34  C   UNL     1     -34.498  20.450   0.691  0.00  0.00    +0.059 C 
ATOM     35  C   UNL     1     -33.332  21.090   0.272  0.00  0.00    +0.011 C 
ENDBRANCH   2  29
BRANCH   3  36
ATOM     36  O   UNL     1     -37.606  22.253   3.163  0.00  0.00    -0.363 OA
ATOM     37  H   UNL     1     -38.445  22.339   3.643  0.00  0.00    +0.213 HD
ENDBRANCH   3  36
TORSDOF 5
ENDMDL
MODEL 5
REMARK VINA RESULT:      -7.2      3.359      6.712
REMARK  Name = 56931136
REMARK  5 active torsions:
REMARK  status: ('A' for Active; 'I' for Inactive)
REMARK    1  A    between atoms: N_2  and  C_29
REMARK    2  A    between atoms: C_3  and  C_15
REMARK    3  A    between atoms: C_3  and  O_36
REMARK    4  A    between atoms: N_14  and  C_21
REMARK    5  A    between atoms: C_22  and  O_26
REMARK                            x       y       z     vdW  Elec       q    Type
REMARK                         _______ _______ _______ _____ _____    ______ ____
ROOT
ATOM      1  O   UNL     1     -39.543  24.401   3.472  0.00  0.00    -0.270 OA
ATOM      2  N   UNL     1     -37.448  23.926   2.462  0.00  0.00    -0.230 N 
ATOM      3  C   UNL     1     -37.012  23.505   1.105  0.00  0.00    +0.195 C 
ATOM      4  C   UNL     1     -38.321  23.417   0.362  0.00  0.00    +0.028 C 
ATOM      5  C   UNL     1     -39.379  23.741   1.203  0.00  0.00    +0.054 C 
ATOM      6  C   UNL     1     -38.848  24.070   2.527  0.00  0.00    +0.255 C 
ATOM      7  C   UNL     1     -38.564  23.087  -0.963  0.00  0.00    +0.000 C 
ATOM      8  C   UNL     1     -40.696  23.742   0.779  0.00  0.00    +0.004 C 
ATOM      9  C   UNL     1     -39.887  23.079  -1.416  0.00  0.00    -0.000 C 
ATOM     10  C   UNL     1     -40.945  23.404  -0.551  0.00  0.00    +0.000 C 
ENDROOT
BRANCH   3  13
ATOM     11  N   UNL     1     -32.985  20.581   0.519  0.00  0.00    -0.302 N 
ATOM     12  N   UNL     1     -34.035  18.715   1.116  0.00  0.00    -0.302 N 
ATOM     13  C   UNL     1     -36.268  22.213   1.125  0.00  0.00    +0.025 C 
ATOM     14  C   UNL     1     -34.917  22.196   0.765  0.00  0.00    +0.016 C 
ATOM     15  C   UNL     1     -36.932  21.043   1.500  0.00  0.00    +0.001 C 
ATOM     16  C   UNL     1     -34.273  20.959   0.801  0.00  0.00    +0.060 C 
ATOM     17  C   UNL     1     -34.908  19.776   1.171  0.00  0.00    +0.060 C 
ATOM     18  C   UNL     1     -36.265  19.813   1.529  0.00  0.00    +0.015 C 
ATOM     19  C   UNL     1     -32.892  19.231   0.721  0.00  0.00    +0.229 C 
ATOM     20  H   UNL     1     -32.258  21.174   0.223  0.00  0.00    +0.150 HD
ATOM     21  H   UNL     1     -34.225  17.772   1.326  0.00  0.00    +0.150 HD
BRANCH  19  23
ATOM     22  O   UNL     1     -32.280  16.299   0.484  0.00  0.00    -0.226 OA
ATOM     23  N   UNL     1     -31.706  18.579   0.514  0.00  0.00    -0.240 N 
ATOM     24  C   UNL     1     -31.452  17.198   0.408  0.00  0.00    +0.404 C 
ATOM     25  H   UNL     1     -30.915  19.161   0.426  0.00  0.00    +0.156 HD
BRANCH  24  26
ATOM     26  O   UNL     1     -30.116  16.980   0.200  0.00  0.00    -0.431 OA
ATOM     27  C   UNL     1     -29.230  17.523   1.186  0.00  0.00    +0.257 C 
ENDBRANCH  24  26
ENDBRANCH  19  23
ENDBRANCH   3  13
BRANCH   2  29
ATOM     28 CL   UNL     1     -34.910  22.029   6.465  0.00  0.00    -0.082 Cl
ATOM     29  C   UNL     1     -36.576  24.165   3.522  0.00  0.00    +0.054 C 
ATOM     30  C   UNL     1     -36.062  25.443   3.750  0.00  0.00    -0.008 C 
ATOM     31  C   UNL     1     -36.220  23.111   4.362  0.00  0.00    +0.026 C 
ATOM     32  C   UNL     1     -35.191  25.662   4.817  0.00  0.00    -0.002 C 
ATOM     33  C   UNL     1     -36.426  26.591   2.867  0.00  0.00    +0.032 C 
ATOM     34  C   UNL     1     -35.349  23.332   5.429  0.00  0.00    +0.059 C 
ATOM     35  C   UNL     1     -34.835  24.607   5.657  0.00  0.00    +0.011 C 
ENDBRANCH   2  29
BRANCH   3  36
ATOM     36  O   UNL     1     -36.197  24.510   0.522  0.00  0.00    -0.363 OA
ATOM     37  H   UNL     1     -36.721  25.316   0.391  0.00  0.00    +0.213 HD
ENDBRANCH   3  36
TORSDOF 5
ENDMDL
MODEL 6
REMARK VINA RESULT:      -7.2      3.514      7.486
REMARK  Name = 56931136
REMARK  5 active torsions:
REMARK  status: ('A' for Active; 'I' for Inactive)
REMARK    1  A    between atoms: N_2  and  C_29
REMARK    2  A    between atoms: C_3  and  C_15
REMARK    3  A    between atoms: C_3  and  O_36
REMARK    4  A    between atoms: N_14  and  C_21
REMARK    5  A    between atoms: C_22  and  O_26
REMARK                            x       y       z     vdW  Elec       q    Type
REMARK                         _______ _______ _______ _____ _____    ______ ____
ROOT
ATOM      1  O   UNL     1     -37.526  24.204   1.726  0.00  0.00    -0.270 OA
ATOM      2  N   UNL     1     -36.750  21.975   1.474  0.00  0.00    -0.230 N 
ATOM      3  C   UNL     1     -35.987  21.030   2.330  0.00  0.00    +0.195 C 
ATOM      4  C   UNL     1     -35.752  21.846   3.576  0.00  0.00    +0.028 C 
ATOM      5  C   UNL     1     -36.309  23.112   3.439  0.00  0.00    +0.054 C 
ATOM      6  C   UNL     1     -36.946  23.209   2.124  0.00  0.00    +0.255 C 
ATOM      7  C   UNL     1     -35.104  21.496   4.752  0.00  0.00    +0.000 C 
ATOM      8  C   UNL     1     -36.241  24.069   4.436  0.00  0.00    +0.004 C 
ATOM      9  C   UNL     1     -35.021  22.446   5.774  0.00  0.00    -0.000 C 
ATOM     10  C   UNL     1     -35.584  23.723   5.617  0.00  0.00    +0.000 C 
ENDROOT
BRANCH   3  13
ATOM     11  N   UNL     1     -32.347  17.745   1.294  0.00  0.00    -0.302 N 
ATOM     12  N   UNL     1     -31.218  19.142  -0.017  0.00  0.00    -0.302 N 
ATOM     13  C   UNL     1     -34.720  20.578   1.686  0.00  0.00    +0.025 C 
ATOM     14  C   UNL     1     -34.261  19.277   1.918  0.00  0.00    +0.016 C 
ATOM     15  C   UNL     1     -34.015  21.459   0.863  0.00  0.00    +0.001 C 
ATOM     16  C   UNL     1     -33.071  18.910   1.290  0.00  0.00    +0.060 C 
ATOM     17  C   UNL     1     -32.346  19.765   0.465  0.00  0.00    +0.060 C 
ATOM     18  C   UNL     1     -32.822  21.068   0.243  0.00  0.00    +0.015 C 
ATOM     19  C   UNL     1     -31.250  17.933   0.499  0.00  0.00    +0.229 C 
ATOM     20  H   UNL     1     -32.575  16.921   1.781  0.00  0.00    +0.150 HD
ATOM     21  H   UNL     1     -30.536  19.518  -0.618  0.00  0.00    +0.150 HD
BRANCH  19  23
ATOM     22  O   UNL     1     -31.653  14.981   0.110  0.00  0.00    -0.226 OA
ATOM     23  N   UNL     1     -30.343  16.922   0.319  0.00  0.00    -0.240 N 
ATOM     24  C   UNL     1     -30.566  15.543   0.139  0.00  0.00    +0.404 C 
ATOM     25  H   UNL     1     -29.398  17.200   0.315  0.00  0.00    +0.156 HD
BRANCH  24  26
ATOM     26  O   UNL     1     -29.372  14.889  -0.004  0.00  0.00    -0.431 OA
ATOM     27  C   UNL     1     -28.219  15.562   0.516  0.00  0.00    +0.257 C 
ENDBRANCH  24  26
ENDBRANCH  19  23
ENDBRANCH   3  13
BRANCH   2  29
ATOM     28 CL   UNL     1     -35.734  21.515  -3.508  0.00  0.00    -0.082 Cl
ATOM     29  C   UNL     1     -37.224  21.665   0.201  0.00  0.00    +0.054 C 
ATOM     30  C   UNL     1     -38.554  21.291   0.006  0.00  0.00    -0.008 C 
ATOM     31  C   UNL     1     -36.352  21.735  -0.886  0.00  0.00    +0.026 C 
ATOM     32  C   UNL     1     -39.010  20.985  -1.277  0.00  0.00    -0.002 C 
ATOM     33  C   UNL     1     -39.510  21.208   1.150  0.00  0.00    +0.032 C 
ATOM     34  C   UNL     1     -36.810  21.430  -2.168  0.00  0.00    +0.059 C 
ATOM     35  C   UNL     1     -38.138  21.055  -2.363  0.00  0.00    +0.011 C 
ENDBRANCH   2  29
BRANCH   3  36
ATOM     36  O   UNL     1     -36.787  19.900   2.642  0.00  0.00    -0.363 OA
ATOM     37  H   UNL     1     -37.220  19.577   1.836  0.00  0.00    +0.213 HD
ENDBRANCH   3  36
TORSDOF 5
ENDMDL
MODEL 7
REMARK VINA RESULT:      -7.1      4.727      6.614
REMARK  Name = 56931136
REMARK  5 active torsions:
REMARK  status: ('A' for Active; 'I' for Inactive)
REMARK    1  A    between atoms: N_2  and  C_29
REMARK    2  A    between atoms: C_3  and  C_15
REMARK    3  A    between atoms: C_3  and  O_36
REMARK    4  A    between atoms: N_14  and  C_21
REMARK    5  A    between atoms: C_22  and  O_26
REMARK                            x       y       z     vdW  Elec       q    Type
REMARK                         _______ _______ _______ _____ _____    ______ ____
ROOT
ATOM      1  O   UNL     1     -33.669  23.386   0.815  0.00  0.00    -0.270 OA
ATOM      2  N   UNL     1     -35.544  23.740   2.228  0.00  0.00    -0.230 N 
ATOM      3  C   UNL     1     -36.758  22.955   2.571  0.00  0.00    +0.195 C 
ATOM      4  C   UNL     1     -36.575  21.706   1.746  0.00  0.00    +0.028 C 
ATOM      5  C   UNL     1     -35.396  21.777   1.013  0.00  0.00    +0.054 C 
ATOM      6  C   UNL     1     -34.731  23.048   1.308  0.00  0.00    +0.255 C 
ATOM      7  C   UNL     1     -37.381  20.581   1.657  0.00  0.00    +0.000 C 
ATOM      8  C   UNL     1     -34.980  20.763   0.169  0.00  0.00    +0.004 C 
ATOM      9  C   UNL     1     -36.983  19.542   0.810  0.00  0.00    -0.000 C 
ATOM     10  C   UNL     1     -35.792  19.633   0.071  0.00  0.00    +0.000 C 
ENDROOT
BRANCH   3  13
ATOM     11  N   UNL     1     -40.683  25.905   3.575  0.00  0.00    -0.302 N 
ATOM     12  N   UNL     1     -41.522  25.786   1.521  0.00  0.00    -0.302 N 
ATOM     13  C   UNL     1     -38.016  23.686   2.243  0.00  0.00    +0.025 C 
ATOM     14  C   UNL     1     -38.650  24.438   3.238  0.00  0.00    +0.016 C 
ATOM     15  C   UNL     1     -38.539  23.608   0.951  0.00  0.00    +0.001 C 
ATOM     16  C   UNL     1     -39.822  25.099   2.874  0.00  0.00    +0.060 C 
ATOM     17  C   UNL     1     -40.368  25.041   1.595  0.00  0.00    +0.060 C 
ATOM     18  C   UNL     1     -39.718  24.282   0.608  0.00  0.00    +0.015 C 
ATOM     19  C   UNL     1     -41.682  26.290   2.724  0.00  0.00    +0.229 C 
ATOM     20  H   UNL     1     -40.597  26.161   4.522  0.00  0.00    +0.150 HD
ATOM     21  H   UNL     1     -42.103  25.913   0.736  0.00  0.00    +0.150 HD
BRANCH  19  23
ATOM     22  O   UNL     1     -41.650  28.563   4.689  0.00  0.00    -0.226 OA
ATOM     23  N   UNL     1     -42.690  27.107   3.163  0.00  0.00    -0.240 N 
ATOM     24  C   UNL     1     -42.642  28.168   4.089  0.00  0.00    +0.404 C 
ATOM     25  H   UNL     1     -43.577  26.927   2.774  0.00  0.00    +0.156 HD
BRANCH  24  26
ATOM     26  O   UNL     1     -43.886  28.720   4.236  0.00  0.00    -0.431 OA
ATOM     27  C   UNL     1     -43.995  29.774   5.200  0.00  0.00    +0.257 C 
ENDBRANCH  24  26
ENDBRANCH  19  23
ENDBRANCH   3  13
BRANCH   2  29
ATOM     28 CL   UNL     1     -33.780  26.399   6.213  0.00  0.00    -0.082 Cl
ATOM     29  C   UNL     1     -35.244  24.989   2.768  0.00  0.00    +0.054 C 
ATOM     30  C   UNL     1     -35.458  26.155   2.033  0.00  0.00    -0.008 C 
ATOM     31  C   UNL     1     -34.726  25.064   4.061  0.00  0.00    +0.026 C 
ATOM     32  C   UNL     1     -35.152  27.396   2.591  0.00  0.00    -0.002 C 
ATOM     33  C   UNL     1     -36.012  26.104   0.647  0.00  0.00    +0.032 C 
ATOM     34  C   UNL     1     -34.421  26.306   4.618  0.00  0.00    +0.059 C 
ATOM     35  C   UNL     1     -34.634  27.472   3.884  0.00  0.00    +0.011 C 
ENDBRANCH   2  29
BRANCH   3  36
ATOM     36  O   UNL     1     -36.751  22.623   3.951  0.00  0.00    -0.363 OA
ATOM     37  H   UNL     1     -35.981  23.030   4.378  0.00  0.00    +0.213 HD
ENDBRANCH   3  36
TORSDOF 5
ENDMDL
MODEL 8
REMARK VINA RESULT:      -7.1      4.329      6.052
REMARK  Name = 56931136
REMARK  5 active torsions:
REMARK  status: ('A' for Active; 'I' for Inactive)
REMARK    1  A    between atoms: N_2  and  C_29
REMARK    2  A    between atoms: C_3  and  C_15
REMARK    3  A    between atoms: C_3  and  O_36
REMARK    4  A    between atoms: N_14  and  C_21
REMARK    5  A    between atoms: C_22  and  O_26
REMARK                            x       y       z     vdW  Elec       q    Type
REMARK                         _______ _______ _______ _____ _____    ______ ____
ROOT
ATOM      1  O   UNL     1     -34.101  22.074   0.491  0.00  0.00    -0.270 OA
ATOM      2  N   UNL     1     -36.093  22.328   1.758  0.00  0.00    -0.230 N 
ATOM      3  C   UNL     1     -37.521  21.981   1.543  0.00  0.00    +0.195 C 
ATOM      4  C   UNL     1     -37.492  21.341   0.177  0.00  0.00    +0.028 C 
ATOM      5  C   UNL     1     -36.198  21.335  -0.329  0.00  0.00    +0.054 C 
ATOM      6  C   UNL     1     -35.302  21.948   0.655  0.00  0.00    +0.255 C 
ATOM      7  C   UNL     1     -38.529  20.793  -0.563  0.00  0.00    +0.000 C 
ATOM      8  C   UNL     1     -35.882  20.807  -1.568  0.00  0.00    +0.004 C 
ATOM      9  C   UNL     1     -38.237  20.253  -1.820  0.00  0.00    -0.000 C 
ATOM     10  C   UNL     1     -36.924  20.261  -2.318  0.00  0.00    +0.000 C 
ENDROOT
BRANCH   3  13
ATOM     11  N   UNL     1     -40.369  25.400   3.846  0.00  0.00    -0.302 N 
ATOM     12  N   UNL     1     -40.898  26.477   1.975  0.00  0.00    -0.302 N 
ATOM     13  C   UNL     1     -38.411  23.176   1.604  0.00  0.00    +0.025 C 
ATOM     14  C   UNL     1     -38.900  23.601   2.844  0.00  0.00    +0.016 C 
ATOM     15  C   UNL     1     -38.740  23.849   0.426  0.00  0.00    +0.001 C 
ATOM     16  C   UNL     1     -39.728  24.724   2.840  0.00  0.00    +0.060 C 
ATOM     17  C   UNL     1     -40.074  25.416   1.683  0.00  0.00    +0.060 C 
ATOM     18  C   UNL     1     -39.573  24.974   0.447  0.00  0.00    +0.015 C 
ATOM     19  C   UNL     1     -41.055  26.439   3.280  0.00  0.00    +0.229 C 
ATOM     20  H   UNL     1     -40.341  25.178   4.804  0.00  0.00    +0.150 HD
ATOM     21  H   UNL     1     -41.287  27.125   1.344  0.00  0.00    +0.150 HD
BRANCH  19  23
ATOM     22  O   UNL     1     -42.393  29.046   2.616  0.00  0.00    -0.226 OA
ATOM     23  N   UNL     1     -41.793  27.290   4.060  0.00  0.00    -0.240 N 
ATOM     24  C   UNL     1     -42.409  28.509   3.717  0.00  0.00    +0.404 C 
ATOM     25  H   UNL     1     -41.909  27.008   4.996  0.00  0.00    +0.156 HD
BRANCH  24  26
ATOM     26  O   UNL     1     -43.048  29.036   4.807  0.00  0.00    -0.431 OA
ATOM     27  C   UNL     1     -44.478  28.945   4.802  0.00  0.00    +0.257 C 
ENDBRANCH  24  26
ENDBRANCH  19  23
ENDBRANCH   3  13
BRANCH   2  29
ATOM     28 CL   UNL     1     -35.039  21.892   6.734  0.00  0.00    -0.082 Cl
ATOM     29  C   UNL     1     -35.603  22.934   2.913  0.00  0.00    +0.054 C 
ATOM     30  C   UNL     1     -35.152  24.254   2.892  0.00  0.00    -0.008 C 
ATOM     31  C   UNL     1     -35.569  22.204   4.101  0.00  0.00    +0.026 C 
ATOM     32  C   UNL     1     -34.666  24.842   4.060  0.00  0.00    -0.002 C 
ATOM     33  C   UNL     1     -35.178  25.059   1.635  0.00  0.00    +0.032 C 
ATOM     34  C   UNL     1     -35.082  22.793   5.268  0.00  0.00    +0.059 C 
ATOM     35  C   UNL     1     -34.631  24.113   5.248  0.00  0.00    +0.011 C 
ENDBRANCH   2  29
BRANCH   3  36
ATOM     36  O   UNL     1     -37.942  21.028   2.508  0.00  0.00    -0.363 OA
ATOM     37  H   UNL     1     -37.232  20.886   3.153  0.00  0.00    +0.213 HD
ENDBRANCH   3  36
TORSDOF 5
ENDMDL
MODEL 9
REMARK VINA RESULT:      -7.0      4.070      7.074
REMARK  Name = 56931136
REMARK  5 active torsions:
REMARK  status: ('A' for Active; 'I' for Inactive)
REMARK    1  A    between atoms: N_2  and  C_29
REMARK    2  A    between atoms: C_3  and  C_15
REMARK    3  A    between atoms: C_3  and  O_36
REMARK    4  A    between atoms: N_14  and  C_21
REMARK    5  A    between atoms: C_22  and  O_26
REMARK                            x       y       z     vdW  Elec       q    Type
REMARK                         _______ _______ _______ _____ _____    ______ ____
ROOT
ATOM      1  O   UNL     1     -38.366  22.894   0.071  0.00  0.00    -0.270 OA
ATOM      2  N   UNL     1     -37.000  21.028   0.608  0.00  0.00    -0.230 N 
ATOM      3  C   UNL     1     -36.088  20.688   1.731  0.00  0.00    +0.195 C 
ATOM      4  C   UNL     1     -36.191  21.910   2.609  0.00  0.00    +0.028 C 
ATOM      5  C   UNL     1     -37.054  22.841   2.043  0.00  0.00    +0.054 C 
ATOM      6  C   UNL     1     -37.577  22.301   0.786  0.00  0.00    +0.255 C 
ATOM      7  C   UNL     1     -35.579  22.179   3.824  0.00  0.00    +0.000 C 
ATOM      8  C   UNL     1     -37.333  24.058   2.639  0.00  0.00    +0.004 C 
ATOM      9  C   UNL     1     -35.844  23.403   4.446  0.00  0.00    -0.000 C 
ATOM     10  C   UNL     1     -36.714  24.335   3.858  0.00  0.00    +0.000 C 
ENDROOT
BRANCH   3  13
ATOM     11  N   UNL     1     -31.955  17.914   1.156  0.00  0.00    -0.302 N 
ATOM     12  N   UNL     1     -30.833  19.494   0.067  0.00  0.00    -0.302 N 
ATOM     13  C   UNL     1     -34.696  20.421   1.270  0.00  0.00    +0.025 C 
ATOM     14  C   UNL     1     -34.116  19.175   1.531  0.00  0.00    +0.016 C 
ATOM     15  C   UNL     1     -33.995  21.417   0.587  0.00  0.00    +0.001 C 
ATOM     16  C   UNL     1     -32.811  18.982   1.077  0.00  0.00    +0.060 C 
ATOM     17  C   UNL     1     -32.087  19.955   0.393  0.00  0.00    +0.060 C 
ATOM     18  C   UNL     1     -32.686  21.200   0.140  0.00  0.00    +0.015 C 
ATOM     19  C   UNL     1     -30.787  18.268   0.539  0.00  0.00    +0.229 C 
ATOM     20  H   UNL     1     -32.147  17.047   1.580  0.00  0.00    +0.150 HD
ATOM     21  H   UNL     1     -30.124  19.977  -0.414  0.00  0.00    +0.150 HD
BRANCH  19  23
ATOM     22  O   UNL     1     -30.768  15.284   0.180  0.00  0.00    -0.226 OA
ATOM     23  N   UNL     1     -29.745  17.382   0.467  0.00  0.00    -0.240 N 
ATOM     24  C   UNL     1     -29.769  15.984   0.298  0.00  0.00    +0.404 C 
ATOM     25  H   UNL     1     -28.847  17.781   0.546  0.00  0.00    +0.156 HD
BRANCH  24  26
ATOM     26  O   UNL     1     -28.493  15.490   0.282  0.00  0.00    -0.431 OA
ATOM     27  C   UNL     1     -27.472  16.367   0.773  0.00  0.00    +0.257 C 
ENDBRANCH  24  26
ENDBRANCH  19  23
ENDBRANCH   3  13
BRANCH   2  29
ATOM     28 CL   UNL     1     -39.220  16.749  -1.070  0.00  0.00    -0.082 Cl
ATOM     29  C   UNL     1     -37.260  20.184  -0.469  0.00  0.00    +0.054 C 
ATOM     30  C   UNL     1     -36.773  20.479  -1.743  0.00  0.00    -0.008 C 
ATOM     31  C   UNL     1     -38.016  19.030  -0.261  0.00  0.00    +0.026 C 
ATOM     32  C   UNL     1     -37.045  19.620  -2.808  0.00  0.00    -0.002 C 
ATOM     33  C   UNL     1     -35.961  21.706  -1.995  0.00  0.00    +0.032 C 
ATOM     34  C   UNL     1     -38.286  18.172  -1.327  0.00  0.00    +0.059 C 
ATOM     35  C   UNL     1     -37.801  18.466  -2.600  0.00  0.00    +0.011 C 
ENDBRANCH   2  29
BRANCH   3  36
ATOM     36  O   UNL     1     -36.580  19.554   2.430  0.00  0.00    -0.363 OA
ATOM     37  H   UNL     1     -37.550  19.566   2.425  0.00  0.00    +0.213 HD
ENDBRANCH   3  36
TORSDOF 5
ENDMDL
