MODEL 1
REMARK VINA RESULT:      -6.7      0.000      0.000
REMARK  Name = 52938427
REMARK  9 active torsions:
REMARK  status: ('A' for Active; 'I' for Inactive)
REMARK    1  A    between atoms: C_4  and  C_11
REMARK    2  A    between atoms: C_5  and  C_22
REMARK    3  A    between atoms: C_6  and  N_15
REMARK    4  A    between atoms: N_15  and  C_18
REMARK    5  A    between atoms: C_18  and  C_19
REMARK    6  A    between atoms: C_19  and  O_20
REMARK    7  A    between atoms: C_25  and  O_30
REMARK    8  A    between atoms: C_26  and  C_29
REMARK    9  A    between atoms: O_30  and  C_31
REMARK                            x       y       z     vdW  Elec       q    Type
REMARK                         _______ _______ _______ _____ _____    ______ ____
ROOT
ATOM      1  O   UNL     1     -34.112  28.151   4.114  0.00  0.00    -0.311 OA
ATOM      2  N   UNL     1     -32.974  26.431   4.989  0.00  0.00    -0.309 NA
ATOM      3  N   UNL     1     -34.959  27.040   4.026  0.00  0.00    -0.007 NA
ATOM      4  C   UNL     1     -34.218  26.065   4.562  0.00  0.00    +0.127 C 
ATOM      5  C   UNL     1     -32.965  27.706   4.692  0.00  0.00    +0.317 C 
ENDROOT
BRANCH   4  11
ATOM      6  C   UNL     1     -35.723  22.027   2.357  0.00  0.00    -0.038 C 
ATOM      7  C   UNL     1     -35.861  23.297   1.493  0.00  0.00    -0.012 C 
ATOM      8  C   UNL     1     -34.952  24.355   2.136  0.00  0.00    +0.025 C 
ATOM      9  C   UNL     1     -35.477  22.635   3.710  0.00  0.00    -0.045 C 
ATOM     10  C   UNL     1     -35.033  23.958   3.578  0.00  0.00    -0.018 C 
ATOM     11  C   UNL     1     -34.689  24.715   4.685  0.00  0.00    +0.073 C 
ATOM     12  C   UNL     1     -35.575  22.043   4.961  0.00  0.00    -0.007 C 
ATOM     13  C   UNL     1     -34.802  24.130   5.948  0.00  0.00    +0.011 C 
ATOM     14  C   UNL     1     -35.242  22.804   6.084  0.00  0.00    +0.000 C 
BRANCH   6  15
ATOM     15  N   UNL     1     -36.915  21.201   2.267  0.00  0.00    +0.389 N 
ATOM     16  H   UNL     1     -36.964  20.594   3.085  0.00  0.00    -0.084 HD
ATOM     17  H   UNL     1     -36.862  20.646   1.413  0.00  0.00    -0.084 HD
BRANCH  15  18
ATOM     18  C   UNL     1     -38.118  22.022   2.211  0.00  0.00    -0.049 C 
BRANCH  18  19
ATOM     19  C   UNL     1     -39.182  21.359   1.351  0.00  0.00    +0.114 C 
BRANCH  19  20
ATOM     20  O   UNL     1     -40.273  20.984   2.180  0.00  0.00    -0.384 OA
ATOM     21  H   UNL     1     -41.099  21.038   1.674  0.00  0.00    +0.210 HD
ENDBRANCH  19  20
ENDBRANCH  18  19
ENDBRANCH  15  18
ENDBRANCH   6  15
ENDBRANCH   4  11
BRANCH   5  22
ATOM     22  C   UNL     1     -31.942  28.694   4.883  0.00  0.00    +0.070 C 
ATOM     23  C   UNL     1     -30.991  28.529   5.890  0.00  0.00    +0.019 C 
ATOM     24  C   UNL     1     -31.899  29.819   4.060  0.00  0.00    +0.009 C 
ATOM     25  C   UNL     1     -29.953  30.615   5.252  0.00  0.00    +0.148 C 
ATOM     26  C   UNL     1     -29.996  29.489   6.075  0.00  0.00    +0.102 C 
ATOM     27  C   UNL     1     -30.904  30.780   4.245  0.00  0.00    +0.038 C 
BRANCH  26  29
ATOM     28  N   UNL     1     -28.245  29.150   7.955  0.00  0.00    -0.191 NA
ATOM     29  C   UNL     1     -29.030  29.302   7.113  0.00  0.00    +0.103 C 
ENDBRANCH  26  29
BRANCH  25  30
ATOM     30  O   UNL     1     -28.992  31.569   5.410  0.00  0.00    -0.478 OA
BRANCH  30  31
ATOM     31  C   UNL     1     -28.245  31.932   4.252  0.00  0.00    +0.166 C 
ATOM     32  C   UNL     1     -27.649  33.317   4.454  0.00  0.00    +0.047 C 
ATOM     33  C   UNL     1     -27.170  30.884   4.001  0.00  0.00    +0.047 C 
ENDBRANCH  30  31
ENDBRANCH  25  30
ENDBRANCH   5  22
TORSDOF 9
ENDMDL
MODEL 2
REMARK VINA RESULT:      -6.7      1.369      1.376
REMARK  Name = 52938427
REMARK  9 active torsions:
REMARK  status: ('A' for Active; 'I' for Inactive)
REMARK    1  A    between atoms: C_4  and  C_11
REMARK    2  A    between atoms: C_5  and  C_22
REMARK    3  A    between atoms: C_6  and  N_15
REMARK    4  A    between atoms: N_15  and  C_18
REMARK    5  A    between atoms: C_18  and  C_19
REMARK    6  A    between atoms: C_19  and  O_20
REMARK    7  A    between atoms: C_25  and  O_30
REMARK    8  A    between atoms: C_26  and  C_29
REMARK    9  A    between atoms: O_30  and  C_31
REMARK                            x       y       z     vdW  Elec       q    Type
REMARK                         _______ _______ _______ _____ _____    ______ ____
ROOT
ATOM      1  O   UNL     1     -34.700  27.581   4.135  0.00  0.00    -0.311 OA
ATOM      2  N   UNL     1     -33.328  25.982   4.896  0.00  0.00    -0.309 NA
ATOM      3  N   UNL     1     -35.443  26.394   4.127  0.00  0.00    -0.007 NA
ATOM      4  C   UNL     1     -34.566  25.497   4.589  0.00  0.00    +0.127 C 
ATOM      5  C   UNL     1     -33.466  27.249   4.601  0.00  0.00    +0.317 C 
ENDROOT
BRANCH   4  11
ATOM      6  C   UNL     1     -35.517  21.229   2.514  0.00  0.00    -0.038 C 
ATOM      7  C   UNL     1     -35.749  22.438   1.585  0.00  0.00    -0.012 C 
ATOM      8  C   UNL     1     -34.992  23.616   2.217  0.00  0.00    +0.025 C 
ATOM      9  C   UNL     1     -35.405  21.917   3.846  0.00  0.00    -0.045 C 
ATOM     10  C   UNL     1     -35.100  23.273   3.670  0.00  0.00    -0.018 C 
ATOM     11  C   UNL     1     -34.894  24.110   4.755  0.00  0.00    +0.073 C 
ATOM     12  C   UNL     1     -35.500  21.371   5.117  0.00  0.00    -0.007 C 
ATOM     13  C   UNL     1     -35.006  23.570   6.038  0.00  0.00    +0.011 C 
ATOM     14  C   UNL     1     -35.307  22.211   6.217  0.00  0.00    +0.000 C 
BRANCH   6  15
ATOM     15  N   UNL     1     -36.608  20.273   2.410  0.00  0.00    +0.389 N 
ATOM     16  H   UNL     1     -37.349  20.541   3.057  0.00  0.00    -0.084 HD
ATOM     17  H   UNL     1     -36.250  19.346   2.639  0.00  0.00    -0.084 HD
BRANCH  15  18
ATOM     18  C   UNL     1     -37.147  20.240   1.056  0.00  0.00    -0.049 C 
BRANCH  18  19
ATOM     19  C   UNL     1     -36.554  19.082   0.270  0.00  0.00    +0.114 C 
BRANCH  19  20
ATOM     20  O   UNL     1     -37.180  17.876   0.687  0.00  0.00    -0.384 OA
ATOM     21  H   UNL     1     -38.110  18.051   0.902  0.00  0.00    +0.210 HD
ENDBRANCH  19  20
ENDBRANCH  18  19
ENDBRANCH  15  18
ENDBRANCH   6  15
ENDBRANCH   4  11
BRANCH   5  22
ATOM     22  C   UNL     1     -32.527  28.330   4.694  0.00  0.00    +0.070 C 
ATOM     23  C   UNL     1     -31.549  28.321   5.688  0.00  0.00    +0.019 C 
ATOM     24  C   UNL     1     -32.594  29.390   3.791  0.00  0.00    +0.009 C 
ATOM     25  C   UNL     1     -30.702  30.432   4.875  0.00  0.00    +0.148 C 
ATOM     26  C   UNL     1     -30.636  29.371   5.779  0.00  0.00    +0.102 C 
ATOM     27  C   UNL     1     -31.681  30.441   3.881  0.00  0.00    +0.038 C 
BRANCH  26  29
ATOM     28  N   UNL     1     -28.830  29.322   7.637  0.00  0.00    -0.191 NA
ATOM     29  C   UNL     1     -29.639  29.343   6.804  0.00  0.00    +0.103 C 
ENDBRANCH  26  29
BRANCH  25  30
ATOM     30  O   UNL     1     -29.823  31.472   4.940  0.00  0.00    -0.478 OA
BRANCH  30  31
ATOM     31  C   UNL     1     -29.045  31.734   3.774  0.00  0.00    +0.166 C 
ATOM     32  C   UNL     1     -28.589  33.186   3.793  0.00  0.00    +0.047 C 
ATOM     33  C   UNL     1     -27.867  30.771   3.731  0.00  0.00    +0.047 C 
ENDBRANCH  30  31
ENDBRANCH  25  30
ENDBRANCH   5  22
TORSDOF 9
ENDMDL
MODEL 3
REMARK VINA RESULT:      -6.7      1.913      2.461
REMARK  Name = 52938427
REMARK  9 active torsions:
REMARK  status: ('A' for Active; 'I' for Inactive)
REMARK    1  A    between atoms: C_4  and  C_11
REMARK    2  A    between atoms: C_5  and  C_22
REMARK    3  A    between atoms: C_6  and  N_15
REMARK    4  A    between atoms: N_15  and  C_18
REMARK    5  A    between atoms: C_18  and  C_19
REMARK    6  A    between atoms: C_19  and  O_20
REMARK    7  A    between atoms: C_25  and  O_30
REMARK    8  A    between atoms: C_26  and  C_29
REMARK    9  A    between atoms: O_30  and  C_31
REMARK                            x       y       z     vdW  Elec       q    Type
REMARK                         _______ _______ _______ _____ _____    ______ ____
ROOT
ATOM      1  O   UNL     1     -34.772  27.348   4.339  0.00  0.00    -0.311 OA
ATOM      2  N   UNL     1     -33.356  25.729   4.964  0.00  0.00    -0.309 NA
ATOM      3  N   UNL     1     -35.509  26.158   4.317  0.00  0.00    -0.007 NA
ATOM      4  C   UNL     1     -34.606  25.249   4.698  0.00  0.00    +0.127 C 
ATOM      5  C   UNL     1     -33.516  27.007   4.730  0.00  0.00    +0.317 C 
ENDROOT
BRANCH   4  11
ATOM      6  C   UNL     1     -35.458  21.025   2.493  0.00  0.00    -0.038 C 
ATOM      7  C   UNL     1     -35.688  22.255   1.591  0.00  0.00    -0.012 C 
ATOM      8  C   UNL     1     -34.960  23.426   2.269  0.00  0.00    +0.025 C 
ATOM      9  C   UNL     1     -35.381  21.678   3.844  0.00  0.00    -0.045 C 
ATOM     10  C   UNL     1     -35.091  23.044   3.711  0.00  0.00    -0.018 C 
ATOM     11  C   UNL     1     -34.918  23.853   4.821  0.00  0.00    +0.073 C 
ATOM     12  C   UNL     1     -35.493  21.098   5.099  0.00  0.00    -0.007 C 
ATOM     13  C   UNL     1     -35.047  23.278   6.087  0.00  0.00    +0.011 C 
ATOM     14  C   UNL     1     -35.332  21.911   6.224  0.00  0.00    +0.000 C 
BRANCH   6  15
ATOM     15  N   UNL     1     -36.533  20.058   2.342  0.00  0.00    +0.389 N 
ATOM     16  H   UNL     1     -37.256  20.252   3.036  0.00  0.00    -0.084 HD
ATOM     17  H   UNL     1     -36.151  19.122   2.477  0.00  0.00    -0.084 HD
BRANCH  15  18
ATOM     18  C   UNL     1     -37.120  20.131   1.010  0.00  0.00    -0.049 C 
BRANCH  18  19
ATOM     19  C   UNL     1     -36.637  18.977   0.147  0.00  0.00    +0.114 C 
BRANCH  19  20
ATOM     20  O   UNL     1     -37.175  17.765   0.657  0.00  0.00    -0.384 OA
ATOM     21  H   UNL     1     -38.000  17.952   1.132  0.00  0.00    +0.210 HD
ENDBRANCH  19  20
ENDBRANCH  18  19
ENDBRANCH  15  18
ENDBRANCH   6  15
ENDBRANCH   4  11
BRANCH   5  22
ATOM     22  C   UNL     1     -32.579  28.090   4.823  0.00  0.00    +0.070 C 
ATOM     23  C   UNL     1     -32.382  28.938   3.733  0.00  0.00    +0.019 C 
ATOM     24  C   UNL     1     -31.865  28.293   6.003  0.00  0.00    +0.009 C 
ATOM     25  C   UNL     1     -30.757  30.195   5.005  0.00  0.00    +0.148 C 
ATOM     26  C   UNL     1     -31.471  29.990   3.823  0.00  0.00    +0.102 C 
ATOM     27  C   UNL     1     -30.954  29.346   6.094  0.00  0.00    +0.038 C 
BRANCH  26  29
ATOM     28  N   UNL     1     -31.131  31.548   1.780  0.00  0.00    -0.191 NA
ATOM     29  C   UNL     1     -31.283  30.850   2.696  0.00  0.00    +0.103 C 
ENDBRANCH  26  29
BRANCH  25  30
ATOM     30  O   UNL     1     -29.860  31.215   5.121  0.00  0.00    -0.478 OA
BRANCH  30  31
ATOM     31  C   UNL     1     -28.514  30.860   5.429  0.00  0.00    +0.166 C 
ATOM     32  C   UNL     1     -27.912  30.109   4.251  0.00  0.00    +0.047 C 
ATOM     33  C   UNL     1     -27.727  32.119   5.760  0.00  0.00    +0.047 C 
ENDBRANCH  30  31
ENDBRANCH  25  30
ENDBRANCH   5  22
TORSDOF 9
ENDMDL
MODEL 4
REMARK VINA RESULT:      -6.7      3.066      4.406
REMARK  Name = 52938427
REMARK  9 active torsions:
REMARK  status: ('A' for Active; 'I' for Inactive)
REMARK    1  A    between atoms: C_4  and  C_11
REMARK    2  A    between atoms: C_5  and  C_22
REMARK    3  A    between atoms: C_6  and  N_15
REMARK    4  A    between atoms: N_15  and  C_18
REMARK    5  A    between atoms: C_18  and  C_19
REMARK    6  A    between atoms: C_19  and  O_20
REMARK    7  A    between atoms: C_25  and  O_30
REMARK    8  A    between atoms: C_26  and  C_29
REMARK    9  A    between atoms: O_30  and  C_31
REMARK                            x       y       z     vdW  Elec       q    Type
REMARK                         _______ _______ _______ _____ _____    ______ ____
ROOT
ATOM      1  O   UNL     1     -32.591  27.689   3.380  0.00  0.00    -0.311 OA
ATOM      2  N   UNL     1     -34.771  27.215   3.586  0.00  0.00    -0.309 NA
ATOM      3  N   UNL     1     -32.663  26.338   3.739  0.00  0.00    -0.007 NA
ATOM      4  C   UNL     1     -33.980  26.132   3.841  0.00  0.00    +0.127 C 
ATOM      5  C   UNL     1     -33.876  28.129   3.313  0.00  0.00    +0.317 C 
ENDROOT
BRANCH   4  11
ATOM      6  C   UNL     1     -35.840  21.911   2.373  0.00  0.00    -0.038 C 
ATOM      7  C   UNL     1     -35.921  23.029   1.314  0.00  0.00    -0.012 C 
ATOM      8  C   UNL     1     -34.918  24.108   1.751  0.00  0.00    +0.025 C 
ATOM      9  C   UNL     1     -35.504  22.712   3.600  0.00  0.00    -0.045 C 
ATOM     10  C   UNL     1     -34.974  23.959   3.239  0.00  0.00    -0.018 C 
ATOM     11  C   UNL     1     -34.538  24.859   4.197  0.00  0.00    +0.073 C 
ATOM     12  C   UNL     1     -35.597  22.342   4.933  0.00  0.00    -0.007 C 
ATOM     13  C   UNL     1     -34.647  24.499   5.542  0.00  0.00    +0.011 C 
ATOM     14  C   UNL     1     -35.172  23.249   5.907  0.00  0.00    +0.000 C 
BRANCH   6  15
ATOM     15  N   UNL     1     -37.089  21.172   2.450  0.00  0.00    +0.389 N 
ATOM     16  H   UNL     1     -37.172  20.751   3.375  0.00  0.00    -0.084 HD
ATOM     17  H   UNL     1     -37.085  20.451   1.728  0.00  0.00    -0.084 HD
BRANCH  15  18
ATOM     18  C   UNL     1     -38.231  22.048   2.221  0.00  0.00    -0.049 C 
BRANCH  18  19
ATOM     19  C   UNL     1     -39.285  21.349   1.379  0.00  0.00    +0.114 C 
BRANCH  19  20
ATOM     20  O   UNL     1     -40.363  20.963   2.220  0.00  0.00    -0.384 OA
ATOM     21  H   UNL     1     -40.181  21.246   3.130  0.00  0.00    +0.210 HD
ENDBRANCH  19  20
ENDBRANCH  18  19
ENDBRANCH  15  18
ENDBRANCH   6  15
ENDBRANCH   4  11
BRANCH   5  22
ATOM     22  C   UNL     1     -34.041  29.509   2.955  0.00  0.00    +0.070 C 
ATOM     23  C   UNL     1     -35.307  30.002   2.638  0.00  0.00    +0.019 C 
ATOM     24  C   UNL     1     -32.934  30.358   2.924  0.00  0.00    +0.009 C 
ATOM     25  C   UNL     1     -34.360  32.192   2.261  0.00  0.00    +0.148 C 
ATOM     26  C   UNL     1     -35.467  31.343   2.291  0.00  0.00    +0.102 C 
ATOM     27  C   UNL     1     -33.095  31.700   2.577  0.00  0.00    +0.038 C 
BRANCH  26  29
ATOM     28  N   UNL     1     -37.834  32.225   1.709  0.00  0.00    -0.191 NA
ATOM     29  C   UNL     1     -36.773  31.829   1.970  0.00  0.00    +0.103 C 
ENDBRANCH  26  29
BRANCH  25  30
ATOM     30  O   UNL     1     -34.488  33.507   1.924  0.00  0.00    -0.478 OA
BRANCH  30  31
ATOM     31  C   UNL     1     -33.328  34.158   1.411  0.00  0.00    +0.166 C 
ATOM     32  C   UNL     1     -33.546  34.483  -0.059  0.00  0.00    +0.047 C 
ATOM     33  C   UNL     1     -33.050  35.409   2.233  0.00  0.00    +0.047 C 
ENDBRANCH  30  31
ENDBRANCH  25  30
ENDBRANCH   5  22
TORSDOF 9
ENDMDL
MODEL 5
REMARK VINA RESULT:      -6.5      2.514      9.959
REMARK  Name = 52938427
REMARK  9 active torsions:
REMARK  status: ('A' for Active; 'I' for Inactive)
REMARK    1  A    between atoms: C_4  and  C_11
REMARK    2  A    between atoms: C_5  and  C_22
REMARK    3  A    between atoms: C_6  and  N_15
REMARK    4  A    between atoms: N_15  and  C_18
REMARK    5  A    between atoms: C_18  and  C_19
REMARK    6  A    between atoms: C_19  and  O_20
REMARK    7  A    between atoms: C_25  and  O_30
REMARK    8  A    between atoms: C_26  and  C_29
REMARK    9  A    between atoms: O_30  and  C_31
REMARK                            x       y       z     vdW  Elec       q    Type
REMARK                         _______ _______ _______ _____ _____    ______ ____
ROOT
ATOM      1  O   UNL     1     -33.386  26.837   6.765  0.00  0.00    -0.311 OA
ATOM      2  N   UNL     1     -32.908  27.663   4.739  0.00  0.00    -0.309 NA
ATOM      3  N   UNL     1     -32.424  27.833   6.969  0.00  0.00    -0.007 NA
ATOM      4  C   UNL     1     -32.193  28.274   5.728  0.00  0.00    +0.127 C 
ATOM      5  C   UNL     1     -33.614  26.801   5.426  0.00  0.00    +0.317 C 
ENDROOT
BRANCH   4  11
ATOM      6  C   UNL     1     -31.327  32.546   3.623  0.00  0.00    -0.038 C 
ATOM      7  C   UNL     1     -32.542  31.799   3.037  0.00  0.00    -0.012 C 
ATOM      8  C   UNL     1     -32.935  30.738   4.076  0.00  0.00    +0.025 C 
ATOM      9  C   UNL     1     -30.679  31.447   4.418  0.00  0.00    -0.045 C 
ATOM     10  C   UNL     1     -31.601  30.424   4.678  0.00  0.00    -0.018 C 
ATOM     11  C   UNL     1     -31.255  29.321   5.441  0.00  0.00    +0.073 C 
ATOM     12  C   UNL     1     -29.391  31.386   4.929  0.00  0.00    -0.007 C 
ATOM     13  C   UNL     1     -29.954  29.246   5.944  0.00  0.00    +0.011 C 
ATOM     14  C   UNL     1     -29.029  30.271   5.689  0.00  0.00    +0.000 C 
BRANCH   6  15
ATOM     15  N   UNL     1     -30.499  33.106   2.567  0.00  0.00    +0.389 N 
ATOM     16  H   UNL     1     -31.030  33.117   1.696  0.00  0.00    -0.084 HD
ATOM     17  H   UNL     1     -29.663  32.529   2.468  0.00  0.00    -0.084 HD
BRANCH  15  18
ATOM     18  C   UNL     1     -30.087  34.466   2.891  0.00  0.00    -0.049 C 
BRANCH  18  19
ATOM     19  C   UNL     1     -31.170  35.461   2.507  0.00  0.00    +0.114 C 
BRANCH  19  20
ATOM     20  O   UNL     1     -31.693  36.049   3.691  0.00  0.00    -0.384 OA
ATOM     21  H   UNL     1     -31.483  35.487   4.452  0.00  0.00    +0.210 HD
ENDBRANCH  19  20
ENDBRANCH  18  19
ENDBRANCH  15  18
ENDBRANCH   6  15
ENDBRANCH   4  11
BRANCH   5  22
ATOM     22  C   UNL     1     -34.582  25.837   4.986  0.00  0.00    +0.070 C 
ATOM     23  C   UNL     1     -34.453  24.499   5.360  0.00  0.00    +0.019 C 
ATOM     24  C   UNL     1     -35.650  26.238   4.184  0.00  0.00    +0.009 C 
ATOM     25  C   UNL     1     -36.463  23.963   4.131  0.00  0.00    +0.148 C 
ATOM     26  C   UNL     1     -35.393  23.562   4.933  0.00  0.00    +0.102 C 
ATOM     27  C   UNL     1     -36.590  25.300   3.757  0.00  0.00    +0.038 C 
BRANCH  26  29
ATOM     28  N   UNL     1     -35.125  21.085   5.648  0.00  0.00    -0.191 NA
ATOM     29  C   UNL     1     -35.245  22.195   5.328  0.00  0.00    +0.103 C 
ENDBRANCH  26  29
BRANCH  25  30
ATOM     30  O   UNL     1     -37.396  23.068   3.699  0.00  0.00    -0.478 OA
BRANCH  30  31
ATOM     31  C   UNL     1     -37.549  22.924   2.289  0.00  0.00    +0.166 C 
ATOM     32  C   UNL     1     -36.448  22.019   1.755  0.00  0.00    +0.047 C 
ATOM     33  C   UNL     1     -38.933  22.369   1.988  0.00  0.00    +0.047 C 
ENDBRANCH  30  31
ENDBRANCH  25  30
ENDBRANCH   5  22
TORSDOF 9
ENDMDL
MODEL 6
REMARK VINA RESULT:      -6.5      4.010     12.213
REMARK  Name = 52938427
REMARK  9 active torsions:
REMARK  status: ('A' for Active; 'I' for Inactive)
REMARK    1  A    between atoms: C_4  and  C_11
REMARK    2  A    between atoms: C_5  and  C_22
REMARK    3  A    between atoms: C_6  and  N_15
REMARK    4  A    between atoms: N_15  and  C_18
REMARK    5  A    between atoms: C_18  and  C_19
REMARK    6  A    between atoms: C_19  and  O_20
REMARK    7  A    between atoms: C_25  and  O_30
REMARK    8  A    between atoms: C_26  and  C_29
REMARK    9  A    between atoms: O_30  and  C_31
REMARK                            x       y       z     vdW  Elec       q    Type
REMARK                         _______ _______ _______ _____ _____    ______ ____
ROOT
ATOM      1  O   UNL     1     -35.109  19.920   0.699  0.00  0.00    -0.311 OA
ATOM      2  N   UNL     1     -36.828  20.494   2.016  0.00  0.00    -0.309 NA
ATOM      3  N   UNL     1     -34.589  20.798   1.657  0.00  0.00    -0.007 NA
ATOM      4  C   UNL     1     -35.662  21.091   2.398  0.00  0.00    +0.127 C 
ATOM      5  C   UNL     1     -36.433  19.796   0.981  0.00  0.00    +0.317 C 
ENDROOT
BRANCH   4  11
ATOM      6  C   UNL     1     -36.496  25.512   4.185  0.00  0.00    -0.038 C 
ATOM      7  C   UNL     1     -36.369  25.475   2.649  0.00  0.00    -0.012 C 
ATOM      8  C   UNL     1     -36.563  24.009   2.237  0.00  0.00    +0.025 C 
ATOM      9  C   UNL     1     -35.955  24.156   4.543  0.00  0.00    -0.045 C 
ATOM     10  C   UNL     1     -36.001  23.303   3.432  0.00  0.00    -0.018 C 
ATOM     11  C   UNL     1     -35.605  21.979   3.524  0.00  0.00    +0.073 C 
ATOM     12  C   UNL     1     -35.516  23.691   5.774  0.00  0.00    -0.007 C 
ATOM     13  C   UNL     1     -35.145  21.510   4.757  0.00  0.00    +0.011 C 
ATOM     14  C   UNL     1     -35.102  22.360   5.873  0.00  0.00    +0.000 C 
BRANCH   6  15
ATOM     15  N   UNL     1     -35.756  26.631   4.745  0.00  0.00    +0.389 N 
ATOM     16  H   UNL     1     -35.432  26.383   5.679  0.00  0.00    -0.084 HD
ATOM     17  H   UNL     1     -36.374  27.442   4.784  0.00  0.00    -0.084 HD
BRANCH  15  18
ATOM     18  C   UNL     1     -34.606  26.966   3.915  0.00  0.00    -0.049 C 
BRANCH  18  19
ATOM     19  C   UNL     1     -33.345  27.065   4.758  0.00  0.00    +0.114 C 
BRANCH  19  20
ATOM     20  O   UNL     1     -33.666  26.734   6.102  0.00  0.00    -0.384 OA
ATOM     21  H   UNL     1     -33.397  25.820   6.284  0.00  0.00    +0.210 HD
ENDBRANCH  19  20
ENDBRANCH  18  19
ENDBRANCH  15  18
ENDBRANCH   6  15
ENDBRANCH   4  11
BRANCH   5  22
ATOM     22  C   UNL     1     -37.175  18.929   0.112  0.00  0.00    +0.070 C 
ATOM     23  C   UNL     1     -36.728  17.629  -0.126  0.00  0.00    +0.019 C 
ATOM     24  C   UNL     1     -38.343  19.387  -0.498  0.00  0.00    +0.009 C 
ATOM     25  C   UNL     1     -38.618  17.244  -1.581  0.00  0.00    +0.148 C 
ATOM     26  C   UNL     1     -37.449  16.786  -0.971  0.00  0.00    +0.102 C 
ATOM     27  C   UNL     1     -39.064  18.544  -1.344  0.00  0.00    +0.038 C 
BRANCH  26  29
ATOM     28  N   UNL     1     -36.591  14.377  -1.390  0.00  0.00    -0.191 NA
ATOM     29  C   UNL     1     -36.976  15.457  -1.202  0.00  0.00    +0.103 C 
ENDBRANCH  26  29
BRANCH  25  30
ATOM     30  O   UNL     1     -39.343  16.443  -2.412  0.00  0.00    -0.478 OA
BRANCH  30  31
ATOM     31  C   UNL     1     -40.710  16.225  -2.070  0.00  0.00    +0.166 C 
ATOM     32  C   UNL     1     -41.459  15.728  -3.297  0.00  0.00    +0.047 C 
ATOM     33  C   UNL     1     -40.786  15.233  -0.919  0.00  0.00    +0.047 C 
ENDBRANCH  30  31
ENDBRANCH  25  30
ENDBRANCH   5  22
TORSDOF 9
ENDMDL
MODEL 7
REMARK VINA RESULT:      -6.5      2.990      3.847
REMARK  Name = 52938427
REMARK  9 active torsions:
REMARK  status: ('A' for Active; 'I' for Inactive)
REMARK    1  A    between atoms: C_4  and  C_11
REMARK    2  A    between atoms: C_5  and  C_22
REMARK    3  A    between atoms: C_6  and  N_15
REMARK    4  A    between atoms: N_15  and  C_18
REMARK    5  A    between atoms: C_18  and  C_19
REMARK    6  A    between atoms: C_19  and  O_20
REMARK    7  A    between atoms: C_25  and  O_30
REMARK    8  A    between atoms: C_26  and  C_29
REMARK    9  A    between atoms: O_30  and  C_31
REMARK                            x       y       z     vdW  Elec       q    Type
REMARK                         _______ _______ _______ _____ _____    ______ ____
ROOT
ATOM      1  O   UNL     1     -32.386  27.616   3.281  0.00  0.00    -0.311 OA
ATOM      2  N   UNL     1     -34.563  27.286   3.695  0.00  0.00    -0.309 NA
ATOM      3  N   UNL     1     -32.520  26.260   3.601  0.00  0.00    -0.007 NA
ATOM      4  C   UNL     1     -33.831  26.141   3.832  0.00  0.00    +0.127 C 
ATOM      5  C   UNL     1     -33.636  28.146   3.360  0.00  0.00    +0.317 C 
ENDROOT
BRANCH   4  11
ATOM      6  C   UNL     1     -35.752  21.931   2.415  0.00  0.00    -0.038 C 
ATOM      7  C   UNL     1     -35.755  23.015   1.319  0.00  0.00    -0.012 C 
ATOM      8  C   UNL     1     -34.740  24.079   1.766  0.00  0.00    +0.025 C 
ATOM      9  C   UNL     1     -35.445  22.760   3.630  0.00  0.00    -0.045 C 
ATOM     10  C   UNL     1     -34.864  23.979   3.255  0.00  0.00    -0.018 C 
ATOM     11  C   UNL     1     -34.442  24.897   4.203  0.00  0.00    +0.073 C 
ATOM     12  C   UNL     1     -35.606  22.436   4.969  0.00  0.00    -0.007 C 
ATOM     13  C   UNL     1     -34.619  24.583   5.552  0.00  0.00    +0.011 C 
ATOM     14  C   UNL     1     -35.196  23.362   5.932  0.00  0.00    +0.000 C 
BRANCH   6  15
ATOM     15  N   UNL     1     -37.026  21.230   2.460  0.00  0.00    +0.389 N 
ATOM     16  H   UNL     1     -37.140  20.805   3.380  0.00  0.00    -0.084 HD
ATOM     17  H   UNL     1     -37.029  20.515   1.733  0.00  0.00    -0.084 HD
BRANCH  15  18
ATOM     18  C   UNL     1     -38.134  22.144   2.216  0.00  0.00    -0.049 C 
BRANCH  18  19
ATOM     19  C   UNL     1     -39.228  21.459   1.413  0.00  0.00    +0.114 C 
BRANCH  19  20
ATOM     20  O   UNL     1     -40.235  21.003   2.306  0.00  0.00    -0.384 OA
ATOM     21  H   UNL     1     -39.827  20.491   3.021  0.00  0.00    +0.210 HD
ENDBRANCH  19  20
ENDBRANCH  18  19
ENDBRANCH  15  18
ENDBRANCH   6  15
ENDBRANCH   4  11
BRANCH   5  22
ATOM     22  C   UNL     1     -33.735  29.547   3.066  0.00  0.00    +0.070 C 
ATOM     23  C   UNL     1     -32.608  30.364   3.169  0.00  0.00    +0.019 C 
ATOM     24  C   UNL     1     -34.959  30.092   2.679  0.00  0.00    +0.009 C 
ATOM     25  C   UNL     1     -33.929  32.271   2.495  0.00  0.00    +0.148 C 
ATOM     26  C   UNL     1     -32.705  31.725   2.883  0.00  0.00    +0.102 C 
ATOM     27  C   UNL     1     -35.055  31.455   2.393  0.00  0.00    +0.038 C 
BRANCH  26  29
ATOM     28  N   UNL     1     -30.591  33.212   3.082  0.00  0.00    -0.191 NA
ATOM     29  C   UNL     1     -31.539  32.546   2.993  0.00  0.00    +0.103 C 
ENDBRANCH  26  29
BRANCH  25  30
ATOM     30  O   UNL     1     -34.052  33.598   2.210  0.00  0.00    -0.478 OA
BRANCH  30  31
ATOM     31  C   UNL     1     -34.615  33.938   0.945  0.00  0.00    +0.166 C 
ATOM     32  C   UNL     1     -35.662  35.026   1.138  0.00  0.00    +0.047 C 
ATOM     33  C   UNL     1     -33.504  34.382   0.005  0.00  0.00    +0.047 C 
ENDBRANCH  30  31
ENDBRANCH  25  30
ENDBRANCH   5  22
TORSDOF 9
ENDMDL
MODEL 8
REMARK VINA RESULT:      -6.4      5.056     10.876
REMARK  Name = 52938427
REMARK  9 active torsions:
REMARK  status: ('A' for Active; 'I' for Inactive)
REMARK    1  A    between atoms: C_4  and  C_11
REMARK    2  A    between atoms: C_5  and  C_22
REMARK    3  A    between atoms: C_6  and  N_15
REMARK    4  A    between atoms: N_15  and  C_18
REMARK    5  A    between atoms: C_18  and  C_19
REMARK    6  A    between atoms: C_19  and  O_20
REMARK    7  A    between atoms: C_25  and  O_30
REMARK    8  A    between atoms: C_26  and  C_29
REMARK    9  A    between atoms: O_30  and  C_31
REMARK                            x       y       z     vdW  Elec       q    Type
REMARK                         _______ _______ _______ _____ _____    ______ ____
ROOT
ATOM      1  O   UNL     1     -36.227  19.647   1.224  0.00  0.00    -0.311 OA
ATOM      2  N   UNL     1     -34.442  20.325   2.394  0.00  0.00    -0.309 NA
ATOM      3  N   UNL     1     -36.696  20.609   2.127  0.00  0.00    -0.007 NA
ATOM      4  C   UNL     1     -35.585  20.962   2.781  0.00  0.00    +0.127 C 
ATOM      5  C   UNL     1     -34.891  19.541   1.448  0.00  0.00    +0.317 C 
ENDROOT
BRANCH   4  11
ATOM      6  C   UNL     1     -36.500  25.520   4.130  0.00  0.00    -0.038 C 
ATOM      7  C   UNL     1     -36.298  25.349   2.610  0.00  0.00    -0.012 C 
ATOM      8  C   UNL     1     -36.473  23.851   2.320  0.00  0.00    +0.025 C 
ATOM      9  C   UNL     1     -35.980  24.202   4.631  0.00  0.00    -0.045 C 
ATOM     10  C   UNL     1     -35.972  23.255   3.598  0.00  0.00    -0.018 C 
ATOM     11  C   UNL     1     -35.582  21.945   3.826  0.00  0.00    +0.073 C 
ATOM     12  C   UNL     1     -35.603  23.848   5.919  0.00  0.00    -0.007 C 
ATOM     13  C   UNL     1     -35.185  21.588   5.116  0.00  0.00    +0.011 C 
ATOM     14  C   UNL     1     -35.196  22.533   6.154  0.00  0.00    +0.000 C 
BRANCH   6  15
ATOM     15  N   UNL     1     -35.787  26.686   4.625  0.00  0.00    +0.389 N 
ATOM     16  H   UNL     1     -35.436  26.490   5.562  0.00  0.00    -0.084 HD
ATOM     17  H   UNL     1     -36.431  27.477   4.643  0.00  0.00    -0.084 HD
BRANCH  15  18
ATOM     18  C   UNL     1     -34.667  27.022   3.756  0.00  0.00    -0.049 C 
BRANCH  18  19
ATOM     19  C   UNL     1     -33.373  27.096   4.551  0.00  0.00    +0.114 C 
BRANCH  19  20
ATOM     20  O   UNL     1     -33.653  26.787   5.910  0.00  0.00    -0.384 OA
ATOM     21  H   UNL     1     -32.831  26.815   6.425  0.00  0.00    +0.210 HD
ENDBRANCH  19  20
ENDBRANCH  18  19
ENDBRANCH  15  18
ENDBRANCH   6  15
ENDBRANCH   4  11
BRANCH   5  22
ATOM     22  C   UNL     1     -34.197  18.597   0.620  0.00  0.00    +0.070 C 
ATOM     23  C   UNL     1     -32.874  18.256   0.907  0.00  0.00    +0.019 C 
ATOM     24  C   UNL     1     -34.844  18.020  -0.473  0.00  0.00    +0.009 C 
ATOM     25  C   UNL     1     -32.847  16.761  -0.991  0.00  0.00    +0.148 C 
ATOM     26  C   UNL     1     -32.200  17.339   0.102  0.00  0.00    +0.102 C 
ATOM     27  C   UNL     1     -34.169  17.102  -1.278  0.00  0.00    +0.038 C 
BRANCH  26  29
ATOM     28  N   UNL     1     -29.745  16.727   0.665  0.00  0.00    -0.191 NA
ATOM     29  C   UNL     1     -30.845  17.001   0.413  0.00  0.00    +0.103 C 
ENDBRANCH  26  29
BRANCH  25  30
ATOM     30  O   UNL     1     -32.212  15.862  -1.795  0.00  0.00    -0.478 OA
BRANCH  30  31
ATOM     31  C   UNL     1     -32.714  14.528  -1.794  0.00  0.00    +0.166 C 
ATOM     32  C   UNL     1     -32.993  14.097  -3.227  0.00  0.00    +0.047 C 
ATOM     33  C   UNL     1     -31.706  13.613  -1.114  0.00  0.00    +0.047 C 
ENDBRANCH  30  31
ENDBRANCH  25  30
ENDBRANCH   5  22
TORSDOF 9
ENDMDL
MODEL 9
REMARK VINA RESULT:      -6.2      5.003     11.038
REMARK  Name = 52938427
REMARK  9 active torsions:
REMARK  status: ('A' for Active; 'I' for Inactive)
REMARK    1  A    between atoms: C_4  and  C_11
REMARK    2  A    between atoms: C_5  and  C_22
REMARK    3  A    between atoms: C_6  and  N_15
REMARK    4  A    between atoms: N_15  and  C_18
REMARK    5  A    between atoms: C_18  and  C_19
REMARK    6  A    between atoms: C_19  and  O_20
REMARK    7  A    between atoms: C_25  and  O_30
REMARK    8  A    between atoms: C_26  and  C_29
REMARK    9  A    between atoms: O_30  and  C_31
REMARK                            x       y       z     vdW  Elec       q    Type
REMARK                         _______ _______ _______ _____ _____    ______ ____
ROOT
ATOM      1  O   UNL     1     -36.200  19.638   1.244  0.00  0.00    -0.311 OA
ATOM      2  N   UNL     1     -34.429  20.298   2.446  0.00  0.00    -0.309 NA
ATOM      3  N   UNL     1     -36.675  20.608   2.135  0.00  0.00    -0.007 NA
ATOM      4  C   UNL     1     -35.572  20.949   2.809  0.00  0.00    +0.127 C 
ATOM      5  C   UNL     1     -34.870  19.516   1.494  0.00  0.00    +0.317 C 
ENDROOT
BRANCH   4  11
ATOM      6  C   UNL     1     -36.500  25.510   4.139  0.00  0.00    -0.038 C 
ATOM      7  C   UNL     1     -36.286  25.335   2.622  0.00  0.00    -0.012 C 
ATOM      8  C   UNL     1     -36.459  23.837   2.334  0.00  0.00    +0.025 C 
ATOM      9  C   UNL     1     -35.983  24.194   4.648  0.00  0.00    -0.045 C 
ATOM     10  C   UNL     1     -35.967  23.244   3.618  0.00  0.00    -0.018 C 
ATOM     11  C   UNL     1     -35.578  21.935   3.852  0.00  0.00    +0.073 C 
ATOM     12  C   UNL     1     -35.616  23.844   5.939  0.00  0.00    -0.007 C 
ATOM     13  C   UNL     1     -35.190  21.582   5.146  0.00  0.00    +0.011 C 
ATOM     14  C   UNL     1     -35.209  22.529   6.181  0.00  0.00    +0.000 C 
BRANCH   6  15
ATOM     15  N   UNL     1     -35.792  26.678   4.636  0.00  0.00    +0.389 N 
ATOM     16  H   UNL     1     -35.473  26.496   5.588  0.00  0.00    -0.084 HD
ATOM     17  H   UNL     1     -36.428  27.476   4.620  0.00  0.00    -0.084 HD
BRANCH  15  18
ATOM     18  C   UNL     1     -34.640  26.988   3.798  0.00  0.00    -0.049 C 
BRANCH  18  19
ATOM     19  C   UNL     1     -33.369  27.037   4.630  0.00  0.00    +0.114 C 
BRANCH  19  20
ATOM     20  O   UNL     1     -33.701  26.793   5.990  0.00  0.00    -0.384 OA
ATOM     21  H   UNL     1     -33.201  26.027   6.313  0.00  0.00    +0.210 HD
ENDBRANCH  19  20
ENDBRANCH  18  19
ENDBRANCH  15  18
ENDBRANCH   6  15
ENDBRANCH   4  11
BRANCH   5  22
ATOM     22  C   UNL     1     -34.171  18.561   0.682  0.00  0.00    +0.070 C 
ATOM     23  C   UNL     1     -34.777  18.039  -0.461  0.00  0.00    +0.019 C 
ATOM     24  C   UNL     1     -32.885  18.154   1.037  0.00  0.00    +0.009 C 
ATOM     25  C   UNL     1     -32.811  16.705  -0.896  0.00  0.00    +0.148 C 
ATOM     26  C   UNL     1     -34.098  17.112  -1.250  0.00  0.00    +0.102 C 
ATOM     27  C   UNL     1     -32.205  17.226   0.247  0.00  0.00    +0.038 C 
BRANCH  26  29
ATOM     28  N   UNL     1     -35.254  16.164  -3.367  0.00  0.00    -0.191 NA
ATOM     29  C   UNL     1     -34.736  16.589  -2.418  0.00  0.00    +0.103 C 
ENDBRANCH  26  29
BRANCH  25  30
ATOM     30  O   UNL     1     -32.124  15.799  -1.648  0.00  0.00    -0.478 OA
BRANCH  30  31
ATOM     31  C   UNL     1     -31.024  15.143  -1.023  0.00  0.00    +0.166 C 
ATOM     32  C   UNL     1     -31.391  13.690  -0.760  0.00  0.00    +0.047 C 
ATOM     33  C   UNL     1     -29.796  15.264  -1.914  0.00  0.00    +0.047 C 
ENDBRANCH  30  31
ENDBRANCH  25  30
ENDBRANCH   5  22
TORSDOF 9
ENDMDL
