MODEL 1
REMARK VINA RESULT:      -7.2      0.000      0.000
REMARK  Name = 52937182
REMARK  6 active torsions:
REMARK  status: ('A' for Active; 'I' for Inactive)
REMARK    1  A    between atoms: C_3  and  O_21
REMARK    2  A    between atoms: C_6  and  O_23
REMARK    3  A    between atoms: C_8  and  C_25
REMARK    4  A    between atoms: C_12  and  C_17
REMARK    5  A    between atoms: C_25  and  C_27
REMARK    6  A    between atoms: C_28  and  O_33
REMARK                            x       y       z     vdW  Elec       q    Type
REMARK                         _______ _______ _______ _____ _____    ______ ____
ROOT
ATOM      1  O   UNL     1     -38.806  23.476   2.809  0.00  0.00    -0.354 OA
ATOM      2  O   UNL     1     -38.369  20.219   0.039  0.00  0.00    -0.293 OA
ATOM      3  C   UNL     1     -36.871  23.311   1.475  0.00  0.00    +0.126 C 
ATOM      4  C   UNL     1     -35.276  21.362   1.799  0.00  0.00    +0.034 C 
ATOM      5  C   UNL     1     -37.944  22.437   0.814  0.00  0.00    +0.112 C 
ATOM      6  C   UNL     1     -36.372  20.378   1.346  0.00  0.00    +0.139 C 
ATOM      7  C   UNL     1     -35.440  22.784   1.240  0.00  0.00    +0.031 C 
ATOM      8  C   UNL     1     -39.227  22.749   1.634  0.00  0.00    +0.103 C 
ATOM      9  C   UNL     1     -35.654  19.283   0.520  0.00  0.00    +0.031 C 
ATOM     10  C   UNL     1     -37.603  20.957   0.671  0.00  0.00    +0.179 C 
ATOM     11  C   UNL     1     -33.938  20.713   1.388  0.00  0.00    +0.003 C 
ATOM     12  C   UNL     1     -37.378  23.383   2.923  0.00  0.00    +0.161 C 
ATOM     13  C   UNL     1     -34.262  19.246   1.159  0.00  0.00    +0.003 C 
ATOM     14  C   UNL     1     -34.339  23.709   1.786  0.00  0.00    +0.003 C 
ATOM     15  C   UNL     1     -40.027  21.543   2.132  0.00  0.00    +0.030 C 
ATOM     16  C   UNL     1     -35.538  19.584  -0.980  0.00  0.00    +0.003 C 
ENDROOT
BRANCH  12  17
ATOM     17  C   UNL     1     -36.902  24.522   3.757  0.00  0.00    -0.003 C 
ATOM     18  C   UNL     1     -36.104  24.487   4.840  0.00  0.00    -0.045 C 
ATOM     19  C   UNL     1     -35.574  23.173   5.352  0.00  0.00    +0.026 C 
ATOM     20  C   UNL     1     -35.662  25.681   5.638  0.00  0.00    +0.026 C 
ENDBRANCH  12  17
BRANCH   3  21
ATOM     21  O   UNL     1     -36.994  24.598   0.845  0.00  0.00    -0.384 OA
ATOM     22  H   UNL     1     -36.739  25.291   1.474  0.00  0.00    +0.210 HD
ENDBRANCH   3  21
BRANCH   6  23
ATOM     23  O   UNL     1     -36.947  19.766   2.510  0.00  0.00    -0.380 OA
ATOM     24  H   UNL     1     -36.711  20.282   3.296  0.00  0.00    +0.211 HD
ENDBRANCH   6  23
BRANCH   8  25
ATOM     25  C   UNL     1     -40.169  23.678   0.856  0.00  0.00    +0.038 C 
BRANCH  25  27
ATOM     26  O   UNL     1     -43.122  24.299   1.009  0.00  0.00    -0.292 OA
ATOM     27  C   UNL     1     -40.850  24.658   1.783  0.00  0.00    +0.095 C 
ATOM     28  C   UNL     1     -40.109  25.999   1.871  0.00  0.00    +0.139 C 
ATOM     29  C   UNL     1     -42.192  25.064   1.218  0.00  0.00    +0.171 C 
ATOM     30  C   UNL     1     -41.063  26.998   1.298  0.00  0.00    +0.002 C 
ATOM     31  C   UNL     1     -42.248  26.507   0.924  0.00  0.00    +0.011 C 
ATOM     32  C   UNL     1     -43.418  27.190   0.335  0.00  0.00    +0.034 C 
BRANCH  28  33
ATOM     33  O   UNL     1     -39.860  26.345   3.226  0.00  0.00    -0.380 OA
ATOM     34  H   UNL     1     -40.098  27.273   3.372  0.00  0.00    +0.211 HD
ENDBRANCH  28  33
ENDBRANCH  25  27
ENDBRANCH   8  25
TORSDOF 6
ENDMDL
MODEL 2
REMARK VINA RESULT:      -6.7      3.008      5.576
REMARK  Name = 52937182
REMARK  6 active torsions:
REMARK  status: ('A' for Active; 'I' for Inactive)
REMARK    1  A    between atoms: C_3  and  O_21
REMARK    2  A    between atoms: C_6  and  O_23
REMARK    3  A    between atoms: C_8  and  C_25
REMARK    4  A    between atoms: C_12  and  C_17
REMARK    5  A    between atoms: C_25  and  C_27
REMARK    6  A    between atoms: C_28  and  O_33
REMARK                            x       y       z     vdW  Elec       q    Type
REMARK                         _______ _______ _______ _____ _____    ______ ____
ROOT
ATOM      1  O   UNL     1     -38.231  27.007   1.318  0.00  0.00    -0.354 OA
ATOM      2  O   UNL     1     -37.377  24.065   4.332  0.00  0.00    -0.293 OA
ATOM      3  C   UNL     1     -36.026  26.236   1.627  0.00  0.00    +0.126 C 
ATOM      4  C   UNL     1     -34.808  26.728   3.800  0.00  0.00    +0.034 C 
ATOM      5  C   UNL     1     -36.954  25.204   2.277  0.00  0.00    +0.112 C 
ATOM      6  C   UNL     1     -35.830  25.872   4.575  0.00  0.00    +0.139 C 
ATOM      7  C   UNL     1     -34.652  26.332   2.323  0.00  0.00    +0.031 C 
ATOM      8  C   UNL     1     -38.376  25.679   1.867  0.00  0.00    +0.103 C 
ATOM      9  C   UNL     1     -35.028  25.138   5.677  0.00  0.00    +0.031 C 
ATOM     10  C   UNL     1     -36.748  24.969   3.770  0.00  0.00    +0.179 C 
ATOM     11  C   UNL     1     -33.487  26.614   4.588  0.00  0.00    +0.003 C 
ATOM     12  C   UNL     1     -36.913  27.490   1.619  0.00  0.00    +0.161 C 
ATOM     13  C   UNL     1     -33.888  26.120   5.967  0.00  0.00    +0.003 C 
ATOM     14  C   UNL     1     -33.660  27.269   1.615  0.00  0.00    +0.003 C 
ATOM     15  C   UNL     1     -39.410  25.783   2.991  0.00  0.00    +0.030 C 
ATOM     16  C   UNL     1     -34.459  23.777   5.258  0.00  0.00    +0.003 C 
ENDROOT
BRANCH  12  17
ATOM     17  C   UNL     1     -36.575  28.561   0.640  0.00  0.00    -0.003 C 
ATOM     18  C   UNL     1     -36.060  29.781   0.882  0.00  0.00    -0.045 C 
ATOM     19  C   UNL     1     -35.755  30.211   2.294  0.00  0.00    +0.026 C 
ATOM     20  C   UNL     1     -35.742  30.817  -0.159  0.00  0.00    +0.026 C 
ENDBRANCH  12  17
BRANCH   3  21
ATOM     21  O   UNL     1     -35.825  25.768   0.282  0.00  0.00    -0.384 OA
ATOM     22  H   UNL     1     -36.614  25.960  -0.249  0.00  0.00    +0.210 HD
ENDBRANCH   3  21
BRANCH   6  23
ATOM     23  O   UNL     1     -36.774  26.749   5.207  0.00  0.00    -0.380 OA
ATOM     24  H   UNL     1     -37.512  26.229   5.560  0.00  0.00    +0.211 HD
ENDBRANCH   6  23
BRANCH   8  25
ATOM     25  C   UNL     1     -38.951  24.801   0.748  0.00  0.00    +0.038 C 
BRANCH  25  27
ATOM     26  O   UNL     1     -37.871  23.211  -1.584  0.00  0.00    -0.292 OA
ATOM     27  C   UNL     1     -38.352  23.414   0.786  0.00  0.00    +0.095 C 
ATOM     28  C   UNL     1     -39.169  22.441   1.645  0.00  0.00    +0.139 C 
ATOM     29  C   UNL     1     -38.422  22.777  -0.582  0.00  0.00    +0.171 C 
ATOM     30  C   UNL     1     -39.665  21.409   0.683  0.00  0.00    +0.002 C 
ATOM     31  C   UNL     1     -39.259  21.564  -0.580  0.00  0.00    +0.011 C 
ATOM     32  C   UNL     1     -39.539  20.746  -1.778  0.00  0.00    +0.034 C 
BRANCH  28  33
ATOM     33  O   UNL     1     -38.339  21.798   2.602  0.00  0.00    -0.380 OA
ATOM     34  H   UNL     1     -38.091  22.432   3.293  0.00  0.00    +0.211 HD
ENDBRANCH  28  33
ENDBRANCH  25  27
ENDBRANCH   8  25
TORSDOF 6
ENDMDL
MODEL 3
REMARK VINA RESULT:      -6.6      2.011      5.642
REMARK  Name = 52937182
REMARK  6 active torsions:
REMARK  status: ('A' for Active; 'I' for Inactive)
REMARK    1  A    between atoms: C_3  and  O_21
REMARK    2  A    between atoms: C_6  and  O_23
REMARK    3  A    between atoms: C_8  and  C_25
REMARK    4  A    between atoms: C_12  and  C_17
REMARK    5  A    between atoms: C_25  and  C_27
REMARK    6  A    between atoms: C_28  and  O_33
REMARK                            x       y       z     vdW  Elec       q    Type
REMARK                         _______ _______ _______ _____ _____    ______ ____
ROOT
ATOM      1  O   UNL     1     -36.388  24.629   1.783  0.00  0.00    -0.354 OA
ATOM      2  O   UNL     1     -34.212  21.187   0.408  0.00  0.00    -0.293 OA
ATOM      3  C   UNL     1     -37.292  22.470   2.060  0.00  0.00    +0.126 C 
ATOM      4  C   UNL     1     -37.928  21.096   0.021  0.00  0.00    +0.034 C 
ATOM      5  C   UNL     1     -35.787  22.296   1.817  0.00  0.00    +0.112 C 
ATOM      6  C   UNL     1     -36.451  21.049  -0.417  0.00  0.00    +0.139 C 
ATOM      7  C   UNL     1     -38.126  21.283   1.534  0.00  0.00    +0.031 C 
ATOM      8  C   UNL     1     -35.242  23.751   1.838  0.00  0.00    +0.103 C 
ATOM      9  C   UNL     1     -36.225  19.639  -1.015  0.00  0.00    +0.031 C 
ATOM     10  C   UNL     1     -35.401  21.469   0.595  0.00  0.00    +0.179 C 
ATOM     11  C   UNL     1     -38.561  19.791  -0.503  0.00  0.00    +0.003 C 
ATOM     12  C   UNL     1     -37.547  23.853   1.443  0.00  0.00    +0.161 C 
ATOM     13  C   UNL     1     -37.608  19.290  -1.576  0.00  0.00    +0.003 C 
ATOM     14  C   UNL     1     -39.623  21.375   1.875  0.00  0.00    +0.003 C 
ATOM     15  C   UNL     1     -34.330  24.153   0.677  0.00  0.00    +0.030 C 
ATOM     16  C   UNL     1     -35.783  18.576  -0.002  0.00  0.00    +0.003 C 
ENDROOT
BRANCH  12  17
ATOM     17  C   UNL     1     -38.755  24.594   1.905  0.00  0.00    -0.003 C 
ATOM     18  C   UNL     1     -39.867  24.893   1.208  0.00  0.00    -0.045 C 
ATOM     19  C   UNL     1     -40.000  24.467  -0.231  0.00  0.00    +0.026 C 
ATOM     20  C   UNL     1     -41.053  25.649   1.739  0.00  0.00    +0.026 C 
ENDBRANCH  12  17
BRANCH   3  21
ATOM     21  O   UNL     1     -37.438  22.534   3.489  0.00  0.00    -0.384 OA
ATOM     22  H   UNL     1     -38.363  22.367   3.728  0.00  0.00    +0.210 HD
ENDBRANCH   3  21
BRANCH   6  23
ATOM     23  O   UNL     1     -36.252  22.020  -1.455  0.00  0.00    -0.380 OA
ATOM     24  H   UNL     1     -35.730  22.760  -1.110  0.00  0.00    +0.211 HD
ENDBRANCH   6  23
BRANCH   8  25
ATOM     25  C   UNL     1     -34.520  24.052   3.158  0.00  0.00    +0.038 C 
BRANCH  25  27
ATOM     26  O   UNL     1     -32.700  26.393   3.744  0.00  0.00    -0.292 OA
ATOM     27  C   UNL     1     -34.918  25.408   3.696  0.00  0.00    +0.095 C 
ATOM     28  C   UNL     1     -35.908  25.312   4.864  0.00  0.00    +0.139 C 
ATOM     29  C   UNL     1     -33.728  26.087   4.332  0.00  0.00    +0.171 C 
ATOM     30  C   UNL     1     -35.168  25.875   6.036  0.00  0.00    +0.002 C 
ATOM     31  C   UNL     1     -33.938  26.325   5.771  0.00  0.00    +0.011 C 
ATOM     32  C   UNL     1     -32.938  26.943   6.665  0.00  0.00    +0.034 C 
BRANCH  28  33
ATOM     33  O   UNL     1     -37.048  26.125   4.623  0.00  0.00    -0.380 OA
ATOM     34  H   UNL     1     -37.852  25.610   4.788  0.00  0.00    +0.211 HD
ENDBRANCH  28  33
ENDBRANCH  25  27
ENDBRANCH   8  25
TORSDOF 6
ENDMDL
MODEL 4
REMARK VINA RESULT:      -6.6      2.232      4.985
REMARK  Name = 52937182
REMARK  6 active torsions:
REMARK  status: ('A' for Active; 'I' for Inactive)
REMARK    1  A    between atoms: C_3  and  O_21
REMARK    2  A    between atoms: C_6  and  O_23
REMARK    3  A    between atoms: C_8  and  C_25
REMARK    4  A    between atoms: C_12  and  C_17
REMARK    5  A    between atoms: C_25  and  C_27
REMARK    6  A    between atoms: C_28  and  O_33
REMARK                            x       y       z     vdW  Elec       q    Type
REMARK                         _______ _______ _______ _____ _____    ______ ____
ROOT
ATOM      1  O   UNL     1     -35.733  21.532   0.245  0.00  0.00    -0.354 OA
ATOM      2  O   UNL     1     -37.022  25.351   1.738  0.00  0.00    -0.293 OA
ATOM      3  C   UNL     1     -36.203  21.808   2.537  0.00  0.00    +0.126 C 
ATOM      4  C   UNL     1     -34.763  23.354   3.945  0.00  0.00    +0.034 C 
ATOM      5  C   UNL     1     -36.883  22.968   1.800  0.00  0.00    +0.112 C 
ATOM      6  C   UNL     1     -35.232  24.563   3.113  0.00  0.00    +0.139 C 
ATOM      7  C   UNL     1     -35.759  22.182   3.966  0.00  0.00    +0.031 C 
ATOM      8  C   UNL     1     -36.691  22.611   0.299  0.00  0.00    +0.103 C 
ATOM      9  C   UNL     1     -35.377  25.740   4.108  0.00  0.00    +0.031 C 
ATOM     10  C   UNL     1     -36.431  24.369   2.202  0.00  0.00    +0.179 C 
ATOM     11  C   UNL     1     -34.468  23.907   5.355  0.00  0.00    +0.003 C 
ATOM     12  C   UNL     1     -35.116  21.397   1.534  0.00  0.00    +0.161 C 
ATOM     13  C   UNL     1     -34.324  25.408   5.170  0.00  0.00    +0.003 C 
ATOM     14  C   UNL     1     -35.188  21.002   4.770  0.00  0.00    +0.003 C 
ATOM     15  C   UNL     1     -36.146  23.723  -0.601  0.00  0.00    +0.030 C 
ATOM     16  C   UNL     1     -36.761  25.863   4.758  0.00  0.00    +0.003 C 
ENDROOT
BRANCH  12  17
ATOM     17  C   UNL     1     -34.569  20.016   1.646  0.00  0.00    -0.003 C 
ATOM     18  C   UNL     1     -33.429  19.524   1.125  0.00  0.00    -0.045 C 
ATOM     19  C   UNL     1     -32.524  20.408   0.307  0.00  0.00    +0.026 C 
ATOM     20  C   UNL     1     -32.937  18.112   1.278  0.00  0.00    +0.026 C 
ENDBRANCH  12  17
BRANCH   3  21
ATOM     21  O   UNL     1     -37.205  20.779   2.625  0.00  0.00    -0.384 OA
ATOM     22  H   UNL     1     -37.132  20.329   3.480  0.00  0.00    +0.210 HD
ENDBRANCH   3  21
BRANCH   6  23
ATOM     23  O   UNL     1     -34.205  24.891   2.166  0.00  0.00    -0.380 OA
ATOM     24  H   UNL     1     -34.082  24.151   1.552  0.00  0.00    +0.211 HD
ENDBRANCH   6  23
BRANCH   8  25
ATOM     25  C   UNL     1     -37.992  22.076  -0.312  0.00  0.00    +0.038 C 
BRANCH  25  27
ATOM     26  O   UNL     1     -40.591  20.817   0.579  0.00  0.00    -0.292 OA
ATOM     27  C   UNL     1     -39.195  22.779   0.274  0.00  0.00    +0.095 C 
ATOM     28  C   UNL     1     -39.561  24.058  -0.489  0.00  0.00    +0.139 C 
ATOM     29  C   UNL     1     -40.433  21.930   0.098  0.00  0.00    +0.171 C 
ATOM     30  C   UNL     1     -40.914  23.784  -1.064  0.00  0.00    +0.002 C 
ATOM     31  C   UNL     1     -41.438  22.596  -0.750  0.00  0.00    +0.011 C 
ATOM     32  C   UNL     1     -42.735  21.998  -1.125  0.00  0.00    +0.034 C 
BRANCH  28  33
ATOM     33  O   UNL     1     -39.668  25.159   0.402  0.00  0.00    -0.380 OA
ATOM     34  H   UNL     1     -39.969  25.941  -0.085  0.00  0.00    +0.211 HD
ENDBRANCH  28  33
ENDBRANCH  25  27
ENDBRANCH   8  25
TORSDOF 6
ENDMDL
MODEL 5
REMARK VINA RESULT:      -6.5      2.761      6.638
REMARK  Name = 52937182
REMARK  6 active torsions:
REMARK  status: ('A' for Active; 'I' for Inactive)
REMARK    1  A    between atoms: C_3  and  O_21
REMARK    2  A    between atoms: C_6  and  O_23
REMARK    3  A    between atoms: C_8  and  C_25
REMARK    4  A    between atoms: C_12  and  C_17
REMARK    5  A    between atoms: C_25  and  C_27
REMARK    6  A    between atoms: C_28  and  O_33
REMARK                            x       y       z     vdW  Elec       q    Type
REMARK                         _______ _______ _______ _____ _____    ______ ____
ROOT
ATOM      1  O   UNL     1     -35.850  20.199  -0.039  0.00  0.00    -0.354 OA
ATOM      2  O   UNL     1     -38.183  23.742   0.650  0.00  0.00    -0.293 OA
ATOM      3  C   UNL     1     -36.270  20.928   2.162  0.00  0.00    +0.126 C 
ATOM      4  C   UNL     1     -35.311  23.138   2.965  0.00  0.00    +0.034 C 
ATOM      5  C   UNL     1     -37.310  21.606   1.261  0.00  0.00    +0.112 C 
ATOM      6  C   UNL     1     -36.172  23.895   1.935  0.00  0.00    +0.139 C 
ATOM      7  C   UNL     1     -35.894  21.781   3.391  0.00  0.00    +0.031 C 
ATOM      8  C   UNL     1     -37.091  20.933  -0.123  0.00  0.00    +0.103 C 
ATOM      9  C   UNL     1     -36.626  25.202   2.630  0.00  0.00    +0.031 C 
ATOM     10  C   UNL     1     -37.295  23.131   1.257  0.00  0.00    +0.179 C 
ATOM     11  C   UNL     1     -35.134  24.107   4.152  0.00  0.00    +0.003 C 
ATOM     12  C   UNL     1     -35.159  20.594   1.155  0.00  0.00    +0.161 C 
ATOM     13  C   UNL     1     -35.471  25.481   3.598  0.00  0.00    +0.003 C 
ATOM     14  C   UNL     1     -34.947  21.072   4.374  0.00  0.00    +0.003 C 
ATOM     15  C   UNL     1     -36.961  21.872  -1.324  0.00  0.00    +0.030 C 
ATOM     16  C   UNL     1     -37.946  25.092   3.402  0.00  0.00    +0.003 C 
ENDROOT
BRANCH  12  17
ATOM     17  C   UNL     1     -34.207  19.509   1.524  0.00  0.00    -0.003 C 
ATOM     18  C   UNL     1     -32.975  19.278   1.034  0.00  0.00    -0.045 C 
ATOM     19  C   UNL     1     -32.397  20.178  -0.027  0.00  0.00    +0.026 C 
ATOM     20  C   UNL     1     -32.065  18.158   1.453  0.00  0.00    +0.026 C 
ENDBRANCH  12  17
BRANCH   3  21
ATOM     21  O   UNL     1     -36.899  19.718   2.619  0.00  0.00    -0.384 OA
ATOM     22  H   UNL     1     -37.611  19.473   2.008  0.00  0.00    +0.210 HD
ENDBRANCH   3  21
BRANCH   6  23
ATOM     23  O   UNL     1     -35.344  24.240   0.814  0.00  0.00    -0.380 OA
ATOM     24  H   UNL     1     -35.418  25.190   0.637  0.00  0.00    +0.211 HD
ENDBRANCH   6  23
BRANCH   8  25
ATOM     25  C   UNL     1     -38.191  19.904  -0.418  0.00  0.00    +0.038 C 
BRANCH  25  27
ATOM     26  O   UNL     1     -39.015  18.636  -3.034  0.00  0.00    -0.292 OA
ATOM     27  C   UNL     1     -37.612  18.661  -1.054  0.00  0.00    +0.095 C 
ATOM     28  C   UNL     1     -37.421  17.519  -0.048  0.00  0.00    +0.139 C 
ATOM     29  C   UNL     1     -38.598  18.069  -2.034  0.00  0.00    +0.171 C 
ATOM     30  C   UNL     1     -38.349  16.442  -0.514  0.00  0.00    +0.002 C 
ATOM     31  C   UNL     1     -39.025  16.717  -1.633  0.00  0.00    +0.011 C 
ATOM     32  C   UNL     1     -40.006  15.901  -2.377  0.00  0.00    +0.034 C 
BRANCH  28  33
ATOM     33  O   UNL     1     -36.092  17.019  -0.104  0.00  0.00    -0.380 OA
ATOM     34  H   UNL     1     -35.695  17.058   0.779  0.00  0.00    +0.211 HD
ENDBRANCH  28  33
ENDBRANCH  25  27
ENDBRANCH   8  25
TORSDOF 6
ENDMDL
MODEL 6
REMARK VINA RESULT:      -6.5      2.944      5.474
REMARK  Name = 52937182
REMARK  6 active torsions:
REMARK  status: ('A' for Active; 'I' for Inactive)
REMARK    1  A    between atoms: C_3  and  O_21
REMARK    2  A    between atoms: C_6  and  O_23
REMARK    3  A    between atoms: C_8  and  C_25
REMARK    4  A    between atoms: C_12  and  C_17
REMARK    5  A    between atoms: C_25  and  C_27
REMARK    6  A    between atoms: C_28  and  O_33
REMARK                            x       y       z     vdW  Elec       q    Type
REMARK                         _______ _______ _______ _____ _____    ______ ____
ROOT
ATOM      1  O   UNL     1     -38.075  27.316   1.334  0.00  0.00    -0.354 OA
ATOM      2  O   UNL     1     -37.354  24.175   4.178  0.00  0.00    -0.293 OA
ATOM      3  C   UNL     1     -35.891  26.490   1.656  0.00  0.00    +0.126 C 
ATOM      4  C   UNL     1     -34.732  26.823   3.891  0.00  0.00    +0.034 C 
ATOM      5  C   UNL     1     -36.854  25.434   2.212  0.00  0.00    +0.112 C 
ATOM      6  C   UNL     1     -35.788  25.937   4.580  0.00  0.00    +0.139 C 
ATOM      7  C   UNL     1     -34.538  26.519   2.396  0.00  0.00    +0.031 C 
ATOM      8  C   UNL     1     -38.255  25.958   1.793  0.00  0.00    +0.103 C 
ATOM      9  C   UNL     1     -35.031  25.121   5.656  0.00  0.00    +0.031 C 
ATOM     10  C   UNL     1     -36.696  25.102   3.693  0.00  0.00    +0.179 C 
ATOM     11  C   UNL     1     -33.436  26.637   4.707  0.00  0.00    +0.003 C 
ATOM     12  C   UNL     1     -36.759  27.756   1.703  0.00  0.00    +0.161 C 
ATOM     13  C   UNL     1     -33.885  26.063   6.040  0.00  0.00    +0.003 C 
ATOM     14  C   UNL     1     -33.511  27.482   1.779  0.00  0.00    +0.003 C 
ATOM     15  C   UNL     1     -39.321  26.008   2.891  0.00  0.00    +0.030 C 
ATOM     16  C   UNL     1     -34.470  23.780   5.167  0.00  0.00    +0.003 C 
ENDROOT
BRANCH  12  17
ATOM     17  C   UNL     1     -36.376  28.881   0.804  0.00  0.00    -0.003 C 
ATOM     18  C   UNL     1     -35.868  30.082   1.140  0.00  0.00    -0.045 C 
ATOM     19  C   UNL     1     -35.622  30.426   2.586  0.00  0.00    +0.026 C 
ATOM     20  C   UNL     1     -35.503  31.176   0.177  0.00  0.00    +0.026 C 
ENDBRANCH  12  17
BRANCH   3  21
ATOM     21  O   UNL     1     -35.657  26.104   0.290  0.00  0.00    -0.384 OA
ATOM     22  H   UNL     1     -36.280  26.571  -0.288  0.00  0.00    +0.210 HD
ENDBRANCH   3  21
BRANCH   6  23
ATOM     23  O   UNL     1     -36.738  26.788   5.238  0.00  0.00    -0.380 OA
ATOM     24  H   UNL     1     -37.152  27.375   4.588  0.00  0.00    +0.211 HD
ENDBRANCH   6  23
BRANCH   8  25
ATOM     25  C   UNL     1     -38.810  25.162   0.604  0.00  0.00    +0.038 C 
BRANCH  25  27
ATOM     26  O   UNL     1     -38.229  22.324   1.464  0.00  0.00    -0.292 OA
ATOM     27  C   UNL     1     -39.808  24.124   1.066  0.00  0.00    +0.095 C 
ATOM     28  C   UNL     1     -41.058  24.072   0.179  0.00  0.00    +0.139 C 
ATOM     29  C   UNL     1     -39.232  22.737   0.899  0.00  0.00    +0.171 C 
ATOM     30  C   UNL     1     -41.028  22.710  -0.439  0.00  0.00    +0.002 C 
ATOM     31  C   UNL     1     -40.016  21.930  -0.052  0.00  0.00    +0.011 C 
ATOM     32  C   UNL     1     -39.678  20.545  -0.441  0.00  0.00    +0.034 C 
BRANCH  28  33
ATOM     33  O   UNL     1     -42.235  24.180   0.967  0.00  0.00    -0.380 OA
ATOM     34  H   UNL     1     -42.896  23.545   0.649  0.00  0.00    +0.211 HD
ENDBRANCH  28  33
ENDBRANCH  25  27
ENDBRANCH   8  25
TORSDOF 6
ENDMDL
MODEL 7
REMARK VINA RESULT:      -6.5      2.730      4.990
REMARK  Name = 52937182
REMARK  6 active torsions:
REMARK  status: ('A' for Active; 'I' for Inactive)
REMARK    1  A    between atoms: C_3  and  O_21
REMARK    2  A    between atoms: C_6  and  O_23
REMARK    3  A    between atoms: C_8  and  C_25
REMARK    4  A    between atoms: C_12  and  C_17
REMARK    5  A    between atoms: C_25  and  C_27
REMARK    6  A    between atoms: C_28  and  O_33
REMARK                            x       y       z     vdW  Elec       q    Type
REMARK                         _______ _______ _______ _____ _____    ______ ____
ROOT
ATOM      1  O   UNL     1     -37.039  24.381   3.216  0.00  0.00    -0.354 OA
ATOM      2  O   UNL     1     -35.886  27.473   0.462  0.00  0.00    -0.293 OA
ATOM      3  C   UNL     1     -35.692  26.172   3.944  0.00  0.00    +0.126 C 
ATOM      4  C   UNL     1     -33.348  26.452   3.007  0.00  0.00    +0.034 C 
ATOM      5  C   UNL     1     -36.362  26.620   2.640  0.00  0.00    +0.112 C 
ATOM      6  C   UNL     1     -33.931  26.706   1.604  0.00  0.00    +0.139 C 
ATOM      7  C   UNL     1     -34.304  26.811   4.157  0.00  0.00    +0.031 C 
ATOM      8  C   UNL     1     -37.367  25.476   2.332  0.00  0.00    +0.103 C 
ATOM      9  C   UNL     1     -33.035  27.789   0.955  0.00  0.00    +0.031 C 
ATOM     10  C   UNL     1     -35.419  26.988   1.498  0.00  0.00    +0.179 C 
ATOM     11  C   UNL     1     -32.029  27.250   3.062  0.00  0.00    +0.003 C 
ATOM     12  C   UNL     1     -35.763  24.643   3.820  0.00  0.00    +0.161 C 
ATOM     13  C   UNL     1     -31.674  27.530   1.611  0.00  0.00    +0.003 C 
ATOM     14  C   UNL     1     -33.665  26.475   5.515  0.00  0.00    +0.003 C 
ATOM     15  C   UNL     1     -37.341  24.910   0.910  0.00  0.00    +0.030 C 
ATOM     16  C   UNL     1     -33.481  29.232   1.217  0.00  0.00    +0.003 C 
ENDROOT
BRANCH  12  17
ATOM     17  C   UNL     1     -35.673  23.850   5.079  0.00  0.00    -0.003 C 
ATOM     18  C   UNL     1     -35.496  22.523   5.218  0.00  0.00    -0.045 C 
ATOM     19  C   UNL     1     -35.363  21.642   4.004  0.00  0.00    +0.026 C 
ATOM     20  C   UNL     1     -35.415  21.786   6.526  0.00  0.00    +0.026 C 
ENDBRANCH  12  17
BRANCH   3  21
ATOM     21  O   UNL     1     -36.568  26.622   4.992  0.00  0.00    -0.384 OA
ATOM     22  H   UNL     1     -36.346  27.536   5.229  0.00  0.00    +0.210 HD
ENDBRANCH   3  21
BRANCH   6  23
ATOM     23  O   UNL     1     -33.814  25.499   0.836  0.00  0.00    -0.380 OA
ATOM     24  H   UNL     1     -32.996  25.523   0.318  0.00  0.00    +0.211 HD
ENDBRANCH   6  23
BRANCH   8  25
ATOM     25  C   UNL     1     -38.804  25.896   2.669  0.00  0.00    +0.038 C 
BRANCH  25  27
ATOM     26  O   UNL     1     -39.618  27.845   0.507  0.00  0.00    -0.292 OA
ATOM     27  C   UNL     1     -39.731  25.635   1.503  0.00  0.00    +0.095 C 
ATOM     28  C   UNL     1     -40.998  24.876   1.916  0.00  0.00    +0.139 C 
ATOM     29  C   UNL     1     -40.288  26.937   0.977  0.00  0.00    +0.171 C 
ATOM     30  C   UNL     1     -42.117  25.832   1.650  0.00  0.00    +0.002 C 
ATOM     31  C   UNL     1     -41.754  27.001   1.116  0.00  0.00    +0.011 C 
ATOM     32  C   UNL     1     -42.576  28.163   0.719  0.00  0.00    +0.034 C 
BRANCH  28  33
ATOM     33  O   UNL     1     -41.185  23.730   1.098  0.00  0.00    -0.380 OA
ATOM     34  H   UNL     1     -40.354  23.234   1.041  0.00  0.00    +0.211 HD
ENDBRANCH  28  33
ENDBRANCH  25  27
ENDBRANCH   8  25
TORSDOF 6
ENDMDL
MODEL 8
REMARK VINA RESULT:      -6.4      1.608      2.219
REMARK  Name = 52937182
REMARK  6 active torsions:
REMARK  status: ('A' for Active; 'I' for Inactive)
REMARK    1  A    between atoms: C_3  and  O_21
REMARK    2  A    between atoms: C_6  and  O_23
REMARK    3  A    between atoms: C_8  and  C_25
REMARK    4  A    between atoms: C_12  and  C_17
REMARK    5  A    between atoms: C_25  and  C_27
REMARK    6  A    between atoms: C_28  and  O_33
REMARK                            x       y       z     vdW  Elec       q    Type
REMARK                         _______ _______ _______ _____ _____    ______ ____
ROOT
ATOM      1  O   UNL     1     -38.772  23.393   2.955  0.00  0.00    -0.354 OA
ATOM      2  O   UNL     1     -38.456  20.175   0.124  0.00  0.00    -0.293 OA
ATOM      3  C   UNL     1     -36.922  23.275   1.500  0.00  0.00    +0.126 C 
ATOM      4  C   UNL     1     -35.278  21.350   1.701  0.00  0.00    +0.034 C 
ATOM      5  C   UNL     1     -38.020  22.391   0.898  0.00  0.00    +0.112 C 
ATOM      6  C   UNL     1     -36.384  20.354   1.304  0.00  0.00    +0.139 C 
ATOM      7  C   UNL     1     -35.500  22.776   1.170  0.00  0.00    +0.031 C 
ATOM      8  C   UNL     1     -39.253  22.672   1.800  0.00  0.00    +0.103 C 
ATOM      9  C   UNL     1     -35.702  19.280   0.422  0.00  0.00    +0.031 C 
ATOM     10  C   UNL     1     -37.665  20.919   0.715  0.00  0.00    +0.179 C 
ATOM     11  C   UNL     1     -33.958  20.729   1.199  0.00  0.00    +0.003 C 
ATOM     12  C   UNL     1     -37.338  23.323   2.978  0.00  0.00    +0.161 C 
ATOM     13  C   UNL     1     -34.272  19.260   0.972  0.00  0.00    +0.003 C 
ATOM     14  C   UNL     1     -34.382  23.713   1.658  0.00  0.00    +0.003 C 
ATOM     15  C   UNL     1     -40.001  21.447   2.333  0.00  0.00    +0.030 C 
ATOM     16  C   UNL     1     -35.685  19.600  -1.078  0.00  0.00    +0.003 C 
ENDROOT
BRANCH  12  17
ATOM     17  C   UNL     1     -36.829  24.460   3.795  0.00  0.00    -0.003 C 
ATOM     18  C   UNL     1     -36.023  24.419   4.872  0.00  0.00    -0.045 C 
ATOM     19  C   UNL     1     -35.519  23.099   5.395  0.00  0.00    +0.026 C 
ATOM     20  C   UNL     1     -35.547  25.613   5.652  0.00  0.00    +0.026 C 
ENDBRANCH  12  17
BRANCH   3  21
ATOM     21  O   UNL     1     -37.104  24.568   0.896  0.00  0.00    -0.384 OA
ATOM     22  H   UNL     1     -36.582  24.620   0.081  0.00  0.00    +0.210 HD
ENDBRANCH   3  21
BRANCH   6  23
ATOM     23  O   UNL     1     -36.875  19.719   2.495  0.00  0.00    -0.380 OA
ATOM     24  H   UNL     1     -37.535  20.289   2.917  0.00  0.00    +0.211 HD
ENDBRANCH   6  23
BRANCH   8  25
ATOM     25  C   UNL     1     -40.257  23.593   1.094  0.00  0.00    +0.038 C 
BRANCH  25  27
ATOM     26  O   UNL     1     -39.224  25.550  -0.965  0.00  0.00    -0.292 OA
ATOM     27  C   UNL     1     -40.206  23.401  -0.405  0.00  0.00    +0.095 C 
ATOM     28  C   UNL     1     -41.503  22.808  -0.968  0.00  0.00    +0.139 C 
ATOM     29  C   UNL     1     -40.132  24.741  -1.100  0.00  0.00    +0.171 C 
ATOM     30  C   UNL     1     -42.055  23.876  -1.857  0.00  0.00    +0.002 C 
ATOM     31  C   UNL     1     -41.306  24.978  -1.958  0.00  0.00    +0.011 C 
ATOM     32  C   UNL     1     -41.529  26.213  -2.738  0.00  0.00    +0.034 C 
BRANCH  28  33
ATOM     33  O   UNL     1     -41.226  21.664  -1.764  0.00  0.00    -0.380 OA
ATOM     34  H   UNL     1     -42.057  21.224  -1.998  0.00  0.00    +0.211 HD
ENDBRANCH  28  33
ENDBRANCH  25  27
ENDBRANCH   8  25
TORSDOF 6
ENDMDL
MODEL 9
REMARK VINA RESULT:      -6.4      2.916      6.698
REMARK  Name = 52937182
REMARK  6 active torsions:
REMARK  status: ('A' for Active; 'I' for Inactive)
REMARK    1  A    between atoms: C_3  and  O_21
REMARK    2  A    between atoms: C_6  and  O_23
REMARK    3  A    between atoms: C_8  and  C_25
REMARK    4  A    between atoms: C_12  and  C_17
REMARK    5  A    between atoms: C_25  and  C_27
REMARK    6  A    between atoms: C_28  and  O_33
REMARK                            x       y       z     vdW  Elec       q    Type
REMARK                         _______ _______ _______ _____ _____    ______ ____
ROOT
ATOM      1  O   UNL     1     -34.344  24.427   3.043  0.00  0.00    -0.354 OA
ATOM      2  O   UNL     1     -38.515  24.634   4.060  0.00  0.00    -0.293 OA
ATOM      3  C   UNL     1     -35.939  24.952   1.390  0.00  0.00    +0.126 C 
ATOM      4  C   UNL     1     -37.666  23.220   0.706  0.00  0.00    +0.034 C 
ATOM      5  C   UNL     1     -36.604  25.207   2.749  0.00  0.00    +0.112 C 
ATOM      6  C   UNL     1     -38.273  23.254   2.122  0.00  0.00    +0.139 C 
ATOM      7  C   UNL     1     -36.943  24.515   0.303  0.00  0.00    +0.031 C 
ATOM      8  C   UNL     1     -35.442  25.026   3.765  0.00  0.00    +0.103 C 
ATOM      9  C   UNL     1     -39.804  23.114   1.938  0.00  0.00    +0.031 C 
ATOM     10  C   UNL     1     -37.860  24.392   3.039  0.00  0.00    +0.179 C 
ATOM     11  C   UNL     1     -38.834  22.872  -0.240  0.00  0.00    +0.003 C 
ATOM     12  C   UNL     1     -34.824  23.967   1.771  0.00  0.00    +0.161 C 
ATOM     13  C   UNL     1     -39.908  22.280   0.656  0.00  0.00    +0.003 C 
ATOM     14  C   UNL     1     -36.322  24.373  -1.097  0.00  0.00    +0.003 C 
ATOM     15  C   UNL     1     -35.722  24.117   4.964  0.00  0.00    +0.030 C 
ATOM     16  C   UNL     1     -40.553  24.441   1.766  0.00  0.00    +0.003 C 
ENDROOT
BRANCH  12  17
ATOM     17  C   UNL     1     -33.661  23.860   0.846  0.00  0.00    -0.003 C 
ATOM     18  C   UNL     1     -33.284  22.807   0.097  0.00  0.00    -0.045 C 
ATOM     19  C   UNL     1     -34.076  21.526   0.133  0.00  0.00    +0.026 C 
ATOM     20  C   UNL     1     -32.093  22.769  -0.819  0.00  0.00    +0.026 C 
ENDBRANCH  12  17
BRANCH   3  21
ATOM     21  O   UNL     1     -35.370  26.215   1.006  0.00  0.00    -0.384 OA
ATOM     22  H   UNL     1     -34.623  26.424   1.589  0.00  0.00    +0.210 HD
ENDBRANCH   3  21
BRANCH   6  23
ATOM     23  O   UNL     1     -37.796  22.113   2.851  0.00  0.00    -0.380 OA
ATOM     24  H   UNL     1     -37.100  22.390   3.465  0.00  0.00    +0.211 HD
ENDBRANCH   6  23
BRANCH   8  25
ATOM     25  C   UNL     1     -34.942  26.382   4.280  0.00  0.00    +0.038 C 
BRANCH  25  27
ATOM     26  O   UNL     1     -33.377  26.825   6.827  0.00  0.00    -0.292 OA
ATOM     27  C   UNL     1     -33.439  26.379   4.442  0.00  0.00    +0.095 C 
ATOM     28  C   UNL     1     -32.725  27.171   3.339  0.00  0.00    +0.139 C 
ATOM     29  C   UNL     1     -33.048  27.134   5.691  0.00  0.00    +0.171 C 
ATOM     30  C   UNL     1     -32.069  28.309   4.053  0.00  0.00    +0.002 C 
ATOM     31  C   UNL     1     -32.226  28.318   5.380  0.00  0.00    +0.011 C 
ATOM     32  C   UNL     1     -31.721  29.267   6.393  0.00  0.00    +0.034 C 
BRANCH  28  33
ATOM     33  O   UNL     1     -31.713  26.381   2.731  0.00  0.00    -0.380 OA
ATOM     34  H   UNL     1     -31.745  26.498   1.770  0.00  0.00    +0.211 HD
ENDBRANCH  28  33
ENDBRANCH  25  27
ENDBRANCH   8  25
TORSDOF 6
ENDMDL
