MODEL 1
REMARK VINA RESULT:      -6.5      0.000      0.000
REMARK  Name = 57346769
REMARK  10 active torsions:
REMARK  status: ('A' for Active; 'I' for Inactive)
REMARK    1  A    between atoms: C_2  and  C_12
REMARK    2  A    between atoms: C_5  and  C_16
REMARK    3  A    between atoms: C_7  and  C_22
REMARK    4  A    between atoms: C_12  and  O_13
REMARK    5  A    between atoms: C_16  and  O_17
REMARK    6  A    between atoms: O_17  and  C_18
REMARK    7  A    between atoms: C_18  and  C_20
REMARK    8  A    between atoms: C_22  and  O_24
REMARK    9  A    between atoms: C_23  and  C_27
REMARK   10  A    between atoms: C_27  and  O_28
REMARK                            x       y       z     vdW  Elec       q    Type
REMARK                         _______ _______ _______ _____ _____    ______ ____
ROOT
ATOM      1  C   UNL     1     -34.840  24.640   2.666  0.00  0.00    +0.042 C 
ATOM      2  C   UNL     1     -35.555  24.157   1.401  0.00  0.00    +0.125 C 
ATOM      3  C   UNL     1     -35.074  23.747   3.863  0.00  0.00    -0.018 C 
ATOM      4  C   UNL     1     -35.372  22.379   3.691  0.00  0.00    +0.002 C 
ATOM      5  C   UNL     1     -35.501  21.834   2.325  0.00  0.00    +0.072 C 
ATOM      6  C   UNL     1     -35.604  22.663   1.273  0.00  0.00    -0.009 C 
ATOM      7  C   UNL     1     -34.931  24.279   5.154  0.00  0.00    +0.030 C 
ATOM      8  C   UNL     1     -35.549  21.582   4.833  0.00  0.00    -0.000 C 
ATOM      9  C   UNL     1     -35.105  23.471   6.274  0.00  0.00    +0.003 C 
ATOM     10  C   UNL     1     -35.417  22.125   6.113  0.00  0.00    +0.000 C 
ENDROOT
BRANCH   2  12
ATOM     11  O   UNL     1     -37.927  23.977   0.961  0.00  0.00    -0.250 OA
ATOM     12  C   UNL     1     -36.979  24.631   1.367  0.00  0.00    +0.318 C 
BRANCH  12  13
ATOM     13  O   UNL     1     -37.074  25.894   1.850  0.00  0.00    -0.480 OA
ATOM     14  H   UNL     1     -36.795  26.084   2.725  0.00  0.00    +0.295 HD
ENDBRANCH  12  13
ENDBRANCH   2  12
BRANCH   5  16
ATOM     15  O   UNL     1     -36.546  19.827   1.618  0.00  0.00    -0.245 OA
ATOM     16  C   UNL     1     -35.541  20.402   1.999  0.00  0.00    +0.341 C 
BRANCH  16  17
ATOM     17  O   UNL     1     -34.306  19.880   2.197  0.00  0.00    -0.449 OA
BRANCH  17  18
ATOM     18  C   UNL     1     -33.677  19.340   1.030  0.00  0.00    +0.169 C 
ATOM     19  C   UNL     1     -32.767  18.193   1.448  0.00  0.00    +0.047 C 
BRANCH  18  20
ATOM     20  C   UNL     1     -32.887  20.448   0.329  0.00  0.00    +0.044 C 
ATOM     21  C   UNL     1     -31.475  20.006  -0.035  0.00  0.00    +0.004 C 
ENDBRANCH  18  20
ENDBRANCH  17  18
ENDBRANCH  16  17
ENDBRANCH   5  16
BRANCH   7  22
ATOM     22  C   UNL     1     -34.582  25.676   5.395  0.00  0.00    +0.140 C 
ATOM     23  C   UNL     1     -33.322  26.061   5.709  0.00  0.00    +0.118 C 
BRANCH  22  24
ATOM     24  O   UNL     1     -35.638  26.563   5.254  0.00  0.00    -0.505 OA
ATOM     25  H   UNL     1     -35.773  27.237   5.890  0.00  0.00    +0.292 HD
ENDBRANCH  22  24
BRANCH  23  27
ATOM     26  O   UNL     1     -32.992  28.387   5.158  0.00  0.00    -0.245 OA
ATOM     27  C   UNL     1     -32.927  27.466   5.953  0.00  0.00    +0.341 C 
BRANCH  27  28
ATOM     28  O   UNL     1     -32.472  27.574   7.223  0.00  0.00    -0.477 OA
ATOM     29  H   UNL     1     -31.572  27.781   7.383  0.00  0.00    +0.295 HD
ENDBRANCH  27  28
ENDBRANCH  23  27
ENDBRANCH   7  22
TORSDOF 10
ENDMDL
MODEL 2
REMARK VINA RESULT:      -6.5      1.917      6.564
REMARK  Name = 57346769
REMARK  10 active torsions:
REMARK  status: ('A' for Active; 'I' for Inactive)
REMARK    1  A    between atoms: C_2  and  C_12
REMARK    2  A    between atoms: C_5  and  C_16
REMARK    3  A    between atoms: C_7  and  C_22
REMARK    4  A    between atoms: C_12  and  O_13
REMARK    5  A    between atoms: C_16  and  O_17
REMARK    6  A    between atoms: O_17  and  C_18
REMARK    7  A    between atoms: C_18  and  C_20
REMARK    8  A    between atoms: C_22  and  O_24
REMARK    9  A    between atoms: C_23  and  C_27
REMARK   10  A    between atoms: C_27  and  O_28
REMARK                            x       y       z     vdW  Elec       q    Type
REMARK                         _______ _______ _______ _____ _____    ______ ____
ROOT
ATOM      1  C   UNL     1     -35.713  23.244   1.857  0.00  0.00    +0.042 C 
ATOM      2  C   UNL     1     -35.195  24.644   1.513  0.00  0.00    +0.125 C 
ATOM      3  C   UNL     1     -35.429  22.835   3.285  0.00  0.00    -0.018 C 
ATOM      4  C   UNL     1     -35.280  23.809   4.295  0.00  0.00    +0.002 C 
ATOM      5  C   UNL     1     -35.359  25.239   3.936  0.00  0.00    +0.072 C 
ATOM      6  C   UNL     1     -35.299  25.618   2.648  0.00  0.00    -0.009 C 
ATOM      7  C   UNL     1     -35.374  21.471   3.609  0.00  0.00    +0.030 C 
ATOM      8  C   UNL     1     -35.050  23.381   5.611  0.00  0.00    -0.000 C 
ATOM      9  C   UNL     1     -35.149  21.066   4.922  0.00  0.00    +0.003 C 
ATOM     10  C   UNL     1     -34.984  22.020   5.921  0.00  0.00    +0.000 C 
ENDROOT
BRANCH   2  12
ATOM     11  O   UNL     1     -32.907  25.429   1.451  0.00  0.00    -0.250 OA
ATOM     12  C   UNL     1     -33.746  24.605   1.121  0.00  0.00    +0.318 C 
BRANCH  12  13
ATOM     13  O   UNL     1     -33.489  23.524   0.344  0.00  0.00    -0.480 OA
ATOM     14  H   UNL     1     -34.147  22.868   0.221  0.00  0.00    +0.295 HD
ENDBRANCH  12  13
ENDBRANCH   2  12
BRANCH   5  16
ATOM     15  O   UNL     1     -36.320  26.351   5.796  0.00  0.00    -0.245 OA
ATOM     16  C   UNL     1     -35.489  26.336   4.905  0.00  0.00    +0.341 C 
BRANCH  16  17
ATOM     17  O   UNL     1     -34.553  27.275   4.621  0.00  0.00    -0.449 OA
BRANCH  17  18
ATOM     18  C   UNL     1     -33.207  26.910   4.942  0.00  0.00    +0.169 C 
ATOM     19  C   UNL     1     -33.016  27.008   6.449  0.00  0.00    +0.047 C 
BRANCH  18  20
ATOM     20  C   UNL     1     -32.245  27.841   4.200  0.00  0.00    +0.044 C 
ATOM     21  C   UNL     1     -32.973  28.976   3.490  0.00  0.00    +0.004 C 
ENDBRANCH  18  20
ENDBRANCH  17  18
ENDBRANCH  16  17
ENDBRANCH   5  16
BRANCH   7  22
ATOM     22  C   UNL     1     -35.562  20.418   2.616  0.00  0.00    +0.140 C 
ATOM     23  C   UNL     1     -34.564  20.019   1.791  0.00  0.00    +0.118 C 
BRANCH  22  24
ATOM     24  O   UNL     1     -36.829  19.857   2.607  0.00  0.00    -0.505 OA
ATOM     25  H   UNL     1     -37.581  20.401   2.480  0.00  0.00    +0.292 HD
ENDBRANCH  22  24
BRANCH  23  27
ATOM     26  O   UNL     1     -35.517  18.921  -0.135  0.00  0.00    -0.245 OA
ATOM     27  C   UNL     1     -34.710  18.951   0.778  0.00  0.00    +0.341 C 
BRANCH  27  28
ATOM     28  O   UNL     1     -33.790  17.989   1.026  0.00  0.00    -0.477 OA
ATOM     29  H   UNL     1     -33.865  17.454   1.791  0.00  0.00    +0.295 HD
ENDBRANCH  27  28
ENDBRANCH  23  27
ENDBRANCH   7  22
TORSDOF 10
ENDMDL
MODEL 3
REMARK VINA RESULT:      -6.2      2.171      7.123
REMARK  Name = 57346769
REMARK  10 active torsions:
REMARK  status: ('A' for Active; 'I' for Inactive)
REMARK    1  A    between atoms: C_2  and  C_12
REMARK    2  A    between atoms: C_5  and  C_16
REMARK    3  A    between atoms: C_7  and  C_22
REMARK    4  A    between atoms: C_12  and  O_13
REMARK    5  A    between atoms: C_16  and  O_17
REMARK    6  A    between atoms: O_17  and  C_18
REMARK    7  A    between atoms: C_18  and  C_20
REMARK    8  A    between atoms: C_22  and  O_24
REMARK    9  A    between atoms: C_23  and  C_27
REMARK   10  A    between atoms: C_27  and  O_28
REMARK                            x       y       z     vdW  Elec       q    Type
REMARK                         _______ _______ _______ _____ _____    ______ ____
ROOT
ATOM      1  C   UNL     1     -34.774  19.954   1.832  0.00  0.00    +0.042 C 
ATOM      2  C   UNL     1     -36.214  20.311   2.209  0.00  0.00    +0.125 C 
ATOM      3  C   UNL     1     -34.084  21.026   1.020  0.00  0.00    -0.018 C 
ATOM      4  C   UNL     1     -34.477  22.376   1.133  0.00  0.00    +0.002 C 
ATOM      5  C   UNL     1     -35.604  22.729   2.019  0.00  0.00    +0.072 C 
ATOM      6  C   UNL     1     -36.414  21.769   2.497  0.00  0.00    -0.009 C 
ATOM      7  C   UNL     1     -33.004  20.674   0.196  0.00  0.00    +0.030 C 
ATOM      8  C   UNL     1     -33.785  23.341   0.384  0.00  0.00    -0.000 C 
ATOM      9  C   UNL     1     -32.327  21.646  -0.536  0.00  0.00    +0.003 C 
ATOM     10  C   UNL     1     -32.720  22.978  -0.444  0.00  0.00    +0.000 C 
ENDROOT
BRANCH   2  12
ATOM     11  O   UNL     1     -37.938  20.747   0.569  0.00  0.00    -0.250 OA
ATOM     12  C   UNL     1     -37.167  19.964   1.102  0.00  0.00    +0.318 C 
BRANCH  12  13
ATOM     13  O   UNL     1     -37.059  18.654   0.771  0.00  0.00    -0.480 OA
ATOM     14  H   UNL     1     -37.625  18.022   1.167  0.00  0.00    +0.295 HD
ENDBRANCH  12  13
ENDBRANCH   2  12
BRANCH   5  16
ATOM     15  O   UNL     1     -36.803  24.770   1.892  0.00  0.00    -0.245 OA
ATOM     16  C   UNL     1     -35.943  24.097   2.433  0.00  0.00    +0.341 C 
BRANCH  16  17
ATOM     17  O   UNL     1     -35.149  24.440   3.477  0.00  0.00    -0.449 OA
BRANCH  17  18
ATOM     18  C   UNL     1     -35.737  24.272   4.772  0.00  0.00    +0.169 C 
ATOM     19  C   UNL     1     -35.954  25.645   5.394  0.00  0.00    +0.047 C 
BRANCH  18  20
ATOM     20  C   UNL     1     -34.811  23.412   5.635  0.00  0.00    +0.044 C 
ATOM     21  C   UNL     1     -35.497  22.145   6.130  0.00  0.00    +0.004 C 
ENDBRANCH  18  20
ENDBRANCH  17  18
ENDBRANCH  16  17
ENDBRANCH   5  16
BRANCH   7  22
ATOM     22  C   UNL     1     -32.525  19.301   0.071  0.00  0.00    +0.140 C 
ATOM     23  C   UNL     1     -31.534  18.808   0.853  0.00  0.00    +0.118 C 
BRANCH  22  24
ATOM     24  O   UNL     1     -33.180  18.551  -0.893  0.00  0.00    -0.505 OA
ATOM     25  H   UNL     1     -33.312  18.903  -1.751  0.00  0.00    +0.292 HD
ENDBRANCH  22  24
BRANCH  23  27
ATOM     26  O   UNL     1     -31.613  16.462   0.297  0.00  0.00    -0.245 OA
ATOM     27  C   UNL     1     -31.026  17.422   0.764  0.00  0.00    +0.341 C 
BRANCH  27  28
ATOM     28  O   UNL     1     -29.780  17.382   1.291  0.00  0.00    -0.477 OA
ATOM     29  H   UNL     1     -29.089  16.950   0.830  0.00  0.00    +0.295 HD
ENDBRANCH  27  28
ENDBRANCH  23  27
ENDBRANCH   7  22
TORSDOF 10
ENDMDL
MODEL 4
REMARK VINA RESULT:      -6.0      2.039      7.378
REMARK  Name = 57346769
REMARK  10 active torsions:
REMARK  status: ('A' for Active; 'I' for Inactive)
REMARK    1  A    between atoms: C_2  and  C_12
REMARK    2  A    between atoms: C_5  and  C_16
REMARK    3  A    between atoms: C_7  and  C_22
REMARK    4  A    between atoms: C_12  and  O_13
REMARK    5  A    between atoms: C_16  and  O_17
REMARK    6  A    between atoms: O_17  and  C_18
REMARK    7  A    between atoms: C_18  and  C_20
REMARK    8  A    between atoms: C_22  and  O_24
REMARK    9  A    between atoms: C_23  and  C_27
REMARK   10  A    between atoms: C_27  and  O_28
REMARK                            x       y       z     vdW  Elec       q    Type
REMARK                         _______ _______ _______ _____ _____    ______ ____
ROOT
ATOM      1  C   UNL     1     -34.969  23.758   3.910  0.00  0.00    +0.042 C 
ATOM      2  C   UNL     1     -35.136  24.795   5.024  0.00  0.00    +0.125 C 
ATOM      3  C   UNL     1     -34.565  24.363   2.585  0.00  0.00    -0.018 C 
ATOM      4  C   UNL     1     -33.851  25.580   2.539  0.00  0.00    +0.002 C 
ATOM      5  C   UNL     1     -33.544  26.284   3.800  0.00  0.00    +0.072 C 
ATOM      6  C   UNL     1     -34.157  25.927   4.941  0.00  0.00    -0.009 C 
ATOM      7  C   UNL     1     -34.852  23.670   1.398  0.00  0.00    +0.030 C 
ATOM      8  C   UNL     1     -33.469  26.086   1.288  0.00  0.00    -0.000 C 
ATOM      9  C   UNL     1     -34.459  24.187   0.166  0.00  0.00    +0.003 C 
ATOM     10  C   UNL     1     -33.771  25.395   0.112  0.00  0.00    +0.000 C 
ENDROOT
BRANCH   2  12
ATOM     11  O   UNL     1     -37.494  24.900   4.494  0.00  0.00    -0.250 OA
ATOM     12  C   UNL     1     -36.503  25.414   4.989  0.00  0.00    +0.318 C 
BRANCH  12  13
ATOM     13  O   UNL     1     -36.491  26.633   5.582  0.00  0.00    -0.480 OA
ATOM     14  H   UNL     1     -35.678  27.021   5.841  0.00  0.00    +0.295 HD
ENDBRANCH  12  13
ENDBRANCH   2  12
BRANCH   5  16
ATOM     15  O   UNL     1     -31.397  27.286   3.726  0.00  0.00    -0.245 OA
ATOM     16  C   UNL     1     -32.594  27.398   3.922  0.00  0.00    +0.341 C 
BRANCH  16  17
ATOM     17  O   UNL     1     -33.281  28.512   4.277  0.00  0.00    -0.449 OA
BRANCH  17  18
ATOM     18  C   UNL     1     -32.568  29.744   4.123  0.00  0.00    +0.169 C 
ATOM     19  C   UNL     1     -32.026  30.171   5.481  0.00  0.00    +0.047 C 
BRANCH  18  20
ATOM     20  C   UNL     1     -33.512  30.801   3.546  0.00  0.00    +0.044 C 
ATOM     21  C   UNL     1     -34.726  30.180   2.867  0.00  0.00    +0.004 C 
ENDBRANCH  18  20
ENDBRANCH  17  18
ENDBRANCH  16  17
ENDBRANCH   5  16
BRANCH   7  22
ATOM     22  C   UNL     1     -35.549  22.388   1.385  0.00  0.00    +0.140 C 
ATOM     23  C   UNL     1     -34.890  21.208   1.480  0.00  0.00    +0.118 C 
BRANCH  22  24
ATOM     24  O   UNL     1     -36.928  22.487   1.288  0.00  0.00    -0.505 OA
ATOM     25  H   UNL     1     -37.474  21.858   1.717  0.00  0.00    +0.292 HD
ENDBRANCH  22  24
BRANCH  23  27
ATOM     26  O   UNL     1     -35.365  18.976   0.695  0.00  0.00    -0.245 OA
ATOM     27  C   UNL     1     -35.560  19.889   1.478  0.00  0.00    +0.341 C 
BRANCH  27  28
ATOM     28  O   UNL     1     -36.443  19.850   2.504  0.00  0.00    -0.477 OA
ATOM     29  H   UNL     1     -36.218  20.228   3.331  0.00  0.00    +0.295 HD
ENDBRANCH  27  28
ENDBRANCH  23  27
ENDBRANCH   7  22
TORSDOF 10
ENDMDL
MODEL 5
REMARK VINA RESULT:      -6.0      1.049      1.397
REMARK  Name = 57346769
REMARK  10 active torsions:
REMARK  status: ('A' for Active; 'I' for Inactive)
REMARK    1  A    between atoms: C_2  and  C_12
REMARK    2  A    between atoms: C_5  and  C_16
REMARK    3  A    between atoms: C_7  and  C_22
REMARK    4  A    between atoms: C_12  and  O_13
REMARK    5  A    between atoms: C_16  and  O_17
REMARK    6  A    between atoms: O_17  and  C_18
REMARK    7  A    between atoms: C_18  and  C_20
REMARK    8  A    between atoms: C_22  and  O_24
REMARK    9  A    between atoms: C_23  and  C_27
REMARK   10  A    between atoms: C_27  and  O_28
REMARK                            x       y       z     vdW  Elec       q    Type
REMARK                         _______ _______ _______ _____ _____    ______ ____
ROOT
ATOM      1  C   UNL     1     -35.519  25.291   2.694  0.00  0.00    +0.042 C 
ATOM      2  C   UNL     1     -36.506  25.113   1.536  0.00  0.00    +0.125 C 
ATOM      3  C   UNL     1     -35.472  24.103   3.627  0.00  0.00    -0.018 C 
ATOM      4  C   UNL     1     -35.802  22.812   3.164  0.00  0.00    +0.002 C 
ATOM      5  C   UNL     1     -36.242  22.637   1.766  0.00  0.00    +0.072 C 
ATOM      6  C   UNL     1     -36.584  23.705   1.025  0.00  0.00    -0.009 C 
ATOM      7  C   UNL     1     -35.035  24.286   4.948  0.00  0.00    +0.030 C 
ATOM      8  C   UNL     1     -35.712  21.735   4.059  0.00  0.00    -0.000 C 
ATOM      9  C   UNL     1     -34.948  23.204   5.820  0.00  0.00    +0.003 C 
ATOM     10  C   UNL     1     -35.289  21.930   5.376  0.00  0.00    +0.000 C 
ENDROOT
BRANCH   2  12
ATOM     11  O   UNL     1     -38.913  24.892   1.625  0.00  0.00    -0.250 OA
ATOM     12  C   UNL     1     -37.899  25.492   1.948  0.00  0.00    +0.318 C 
BRANCH  12  13
ATOM     13  O   UNL     1     -37.883  26.597   2.731  0.00  0.00    -0.480 OA
ATOM     14  H   UNL     1     -37.119  27.139   2.762  0.00  0.00    +0.295 HD
ENDBRANCH  12  13
ENDBRANCH   2  12
BRANCH   5  16
ATOM     15  O   UNL     1     -37.238  20.533   1.320  0.00  0.00    -0.245 OA
ATOM     16  C   UNL     1     -36.357  21.341   1.083  0.00  0.00    +0.341 C 
BRANCH  16  17
ATOM     17  O   UNL     1     -35.343  21.233   0.190  0.00  0.00    -0.449 OA
BRANCH  17  18
ATOM     18  C   UNL     1     -34.112  20.732   0.722  0.00  0.00    +0.169 C 
ATOM     19  C   UNL     1     -32.954  21.391  -0.016  0.00  0.00    +0.047 C 
BRANCH  18  20
ATOM     20  C   UNL     1     -34.078  19.211   0.562  0.00  0.00    +0.044 C 
ATOM     21  C   UNL     1     -33.035  18.560   1.462  0.00  0.00    +0.004 C 
ENDBRANCH  18  20
ENDBRANCH  17  18
ENDBRANCH  16  17
ENDBRANCH   5  16
BRANCH   7  22
ATOM     22  C   UNL     1     -34.640  25.590   5.473  0.00  0.00    +0.140 C 
ATOM     23  C   UNL     1     -33.353  26.013   5.459  0.00  0.00    +0.118 C 
BRANCH  22  24
ATOM     24  O   UNL     1     -35.689  26.354   5.959  0.00  0.00    -0.505 OA
ATOM     25  H   UNL     1     -35.679  26.651   6.848  0.00  0.00    +0.292 HD
ENDBRANCH  22  24
BRANCH  23  27
ATOM     26  O   UNL     1     -32.725  28.338   5.318  0.00  0.00    -0.245 OA
ATOM     27  C   UNL     1     -32.913  27.328   5.973  0.00  0.00    +0.341 C 
BRANCH  27  28
ATOM     28  O   UNL     1     -32.748  27.237   7.314  0.00  0.00    -0.477 OA
ATOM     29  H   UNL     1     -33.081  27.910   7.874  0.00  0.00    +0.295 HD
ENDBRANCH  27  28
ENDBRANCH  23  27
ENDBRANCH   7  22
TORSDOF 10
ENDMDL
MODEL 6
REMARK VINA RESULT:      -6.0      2.844      7.063
REMARK  Name = 57346769
REMARK  10 active torsions:
REMARK  status: ('A' for Active; 'I' for Inactive)
REMARK    1  A    between atoms: C_2  and  C_12
REMARK    2  A    between atoms: C_5  and  C_16
REMARK    3  A    between atoms: C_7  and  C_22
REMARK    4  A    between atoms: C_12  and  O_13
REMARK    5  A    between atoms: C_16  and  O_17
REMARK    6  A    between atoms: O_17  and  C_18
REMARK    7  A    between atoms: C_18  and  C_20
REMARK    8  A    between atoms: C_22  and  O_24
REMARK    9  A    between atoms: C_23  and  C_27
REMARK   10  A    between atoms: C_27  and  O_28
REMARK                            x       y       z     vdW  Elec       q    Type
REMARK                         _______ _______ _______ _____ _____    ______ ____
ROOT
ATOM      1  C   UNL     1     -36.400  22.423   2.658  0.00  0.00    +0.042 C 
ATOM      2  C   UNL     1     -35.289  22.654   3.686  0.00  0.00    +0.125 C 
ATOM      3  C   UNL     1     -37.527  23.425   2.758  0.00  0.00    -0.018 C 
ATOM      4  C   UNL     1     -37.296  24.716   3.280  0.00  0.00    +0.002 C 
ATOM      5  C   UNL     1     -35.948  25.065   3.773  0.00  0.00    +0.072 C 
ATOM      6  C   UNL     1     -35.032  24.103   3.976  0.00  0.00    -0.009 C 
ATOM      7  C   UNL     1     -38.796  23.081   2.270  0.00  0.00    +0.030 C 
ATOM      8  C   UNL     1     -38.365  25.623   3.324  0.00  0.00    -0.000 C 
ATOM      9  C   UNL     1     -39.844  23.997   2.318  0.00  0.00    +0.003 C 
ATOM     10  C   UNL     1     -39.628  25.265   2.847  0.00  0.00    +0.000 C 
ENDROOT
BRANCH   2  12
ATOM     11  O   UNL     1     -36.114  22.592   5.959  0.00  0.00    -0.250 OA
ATOM     12  C   UNL     1     -35.625  22.013   5.001  0.00  0.00    +0.318 C 
BRANCH  12  13
ATOM     13  O   UNL     1     -35.309  20.695   4.985  0.00  0.00    -0.480 OA
ATOM     14  H   UNL     1     -34.610  20.374   5.520  0.00  0.00    +0.295 HD
ENDBRANCH  12  13
ENDBRANCH   2  12
BRANCH   5  16
ATOM     15  O   UNL     1     -35.145  26.780   5.198  0.00  0.00    -0.245 OA
ATOM     16  C   UNL     1     -35.503  26.429   4.087  0.00  0.00    +0.341 C 
BRANCH  16  17
ATOM     17  O   UNL     1     -35.568  27.175   2.957  0.00  0.00    -0.449 OA
BRANCH  17  18
ATOM     18  C   UNL     1     -34.576  26.876   1.970  0.00  0.00    +0.169 C 
ATOM     19  C   UNL     1     -33.637  28.067   1.840  0.00  0.00    +0.047 C 
BRANCH  18  20
ATOM     20  C   UNL     1     -35.268  26.568   0.640  0.00  0.00    +0.044 C 
ATOM     21  C   UNL     1     -35.033  25.133   0.186  0.00  0.00    +0.004 C 
ENDBRANCH  18  20
ENDBRANCH  17  18
ENDBRANCH  16  17
ENDBRANCH   5  16
BRANCH   7  22
ATOM     22  C   UNL     1     -39.085  21.777   1.681  0.00  0.00    +0.140 C 
ATOM     23  C   UNL     1     -38.576  21.397   0.485  0.00  0.00    +0.118 C 
BRANCH  22  24
ATOM     24  O   UNL     1     -39.900  20.966   2.455  0.00  0.00    -0.505 OA
ATOM     25  H   UNL     1     -39.666  20.071   2.604  0.00  0.00    +0.292 HD
ENDBRANCH  22  24
BRANCH  23  27
ATOM     26  O   UNL     1     -38.012  19.228  -0.410  0.00  0.00    -0.245 OA
ATOM     27  C   UNL     1     -38.838  20.083  -0.142  0.00  0.00    +0.341 C 
BRANCH  27  28
ATOM     28  O   UNL     1     -40.167  19.973  -0.378  0.00  0.00    -0.477 OA
ATOM     29  H   UNL     1     -40.685  19.378   0.128  0.00  0.00    +0.295 HD
ENDBRANCH  27  28
ENDBRANCH  23  27
ENDBRANCH   7  22
TORSDOF 10
ENDMDL
MODEL 7
REMARK VINA RESULT:      -6.0      3.385      6.805
REMARK  Name = 57346769
REMARK  10 active torsions:
REMARK  status: ('A' for Active; 'I' for Inactive)
REMARK    1  A    between atoms: C_2  and  C_12
REMARK    2  A    between atoms: C_5  and  C_16
REMARK    3  A    between atoms: C_7  and  C_22
REMARK    4  A    between atoms: C_12  and  O_13
REMARK    5  A    between atoms: C_16  and  O_17
REMARK    6  A    between atoms: O_17  and  C_18
REMARK    7  A    between atoms: C_18  and  C_20
REMARK    8  A    between atoms: C_22  and  O_24
REMARK    9  A    between atoms: C_23  and  C_27
REMARK   10  A    between atoms: C_27  and  O_28
REMARK                            x       y       z     vdW  Elec       q    Type
REMARK                         _______ _______ _______ _____ _____    ______ ____
ROOT
ATOM      1  C   UNL     1     -36.631  26.239   2.259  0.00  0.00    +0.042 C 
ATOM      2  C   UNL     1     -35.648  27.032   1.393  0.00  0.00    +0.125 C 
ATOM      3  C   UNL     1     -35.951  25.295   3.225  0.00  0.00    -0.018 C 
ATOM      4  C   UNL     1     -34.645  25.559   3.689  0.00  0.00    +0.002 C 
ATOM      5  C   UNL     1     -33.927  26.747   3.185  0.00  0.00    +0.072 C 
ATOM      6  C   UNL     1     -34.387  27.411   2.111  0.00  0.00    -0.009 C 
ATOM      7  C   UNL     1     -36.657  24.181   3.705  0.00  0.00    +0.030 C 
ATOM      8  C   UNL     1     -34.068  24.672   4.609  0.00  0.00    -0.000 C 
ATOM      9  C   UNL     1     -36.068  23.314   4.622  0.00  0.00    +0.003 C 
ATOM     10  C   UNL     1     -34.774  23.558   5.071  0.00  0.00    +0.000 C 
ENDROOT
BRANCH   2  12
ATOM     11  O   UNL     1     -34.113  26.265  -0.313  0.00  0.00    -0.250 OA
ATOM     12  C   UNL     1     -35.227  26.241   0.188  0.00  0.00    +0.318 C 
BRANCH  12  13
ATOM     13  O   UNL     1     -36.257  25.492  -0.276  0.00  0.00    -0.480 OA
ATOM     14  H   UNL     1     -36.100  24.816  -0.906  0.00  0.00    +0.295 HD
ENDBRANCH  12  13
ENDBRANCH   2  12
BRANCH   5  16
ATOM     15  O   UNL     1     -31.581  27.062   3.319  0.00  0.00    -0.245 OA
ATOM     16  C   UNL     1     -32.691  27.284   3.770  0.00  0.00    +0.341 C 
BRANCH  16  17
ATOM     17  O   UNL     1     -33.018  28.034   4.852  0.00  0.00    -0.449 OA
BRANCH  17  18
ATOM     18  C   UNL     1     -32.109  27.944   5.954  0.00  0.00    +0.169 C 
ATOM     19  C   UNL     1     -32.768  27.144   7.070  0.00  0.00    +0.047 C 
BRANCH  18  20
ATOM     20  C   UNL     1     -31.747  29.355   6.422  0.00  0.00    +0.044 C 
ATOM     21  C   UNL     1     -30.253  29.512   6.677  0.00  0.00    +0.004 C 
ENDBRANCH  18  20
ENDBRANCH  17  18
ENDBRANCH  16  17
ENDBRANCH   5  16
BRANCH   7  22
ATOM     22  C   UNL     1     -38.024  23.878   3.294  0.00  0.00    +0.140 C 
ATOM     23  C   UNL     1     -38.316  22.852   2.459  0.00  0.00    +0.118 C 
BRANCH  22  24
ATOM     24  O   UNL     1     -38.985  24.711   3.845  0.00  0.00    -0.505 OA
ATOM     25  H   UNL     1     -39.414  25.350   3.311  0.00  0.00    +0.292 HD
ENDBRANCH  22  24
BRANCH  23  27
ATOM     26  O   UNL     1     -40.549  23.286   1.655  0.00  0.00    -0.245 OA
ATOM     27  C   UNL     1     -39.688  22.508   2.026  0.00  0.00    +0.341 C 
BRANCH  27  28
ATOM     28  O   UNL     1     -39.844  21.166   2.106  0.00  0.00    -0.477 OA
ATOM     29  H   UNL     1     -39.692  20.630   1.353  0.00  0.00    +0.295 HD
ENDBRANCH  27  28
ENDBRANCH  23  27
ENDBRANCH   7  22
TORSDOF 10
ENDMDL
MODEL 8
REMARK VINA RESULT:      -5.9      1.373      2.272
REMARK  Name = 57346769
REMARK  10 active torsions:
REMARK  status: ('A' for Active; 'I' for Inactive)
REMARK    1  A    between atoms: C_2  and  C_12
REMARK    2  A    between atoms: C_5  and  C_16
REMARK    3  A    between atoms: C_7  and  C_22
REMARK    4  A    between atoms: C_12  and  O_13
REMARK    5  A    between atoms: C_16  and  O_17
REMARK    6  A    between atoms: O_17  and  C_18
REMARK    7  A    between atoms: C_18  and  C_20
REMARK    8  A    between atoms: C_22  and  O_24
REMARK    9  A    between atoms: C_23  and  C_27
REMARK   10  A    between atoms: C_27  and  O_28
REMARK                            x       y       z     vdW  Elec       q    Type
REMARK                         _______ _______ _______ _____ _____    ______ ____
ROOT
ATOM      1  C   UNL     1     -34.617  24.642   2.576  0.00  0.00    +0.042 C 
ATOM      2  C   UNL     1     -35.228  24.142   1.263  0.00  0.00    +0.125 C 
ATOM      3  C   UNL     1     -34.968  23.779   3.766  0.00  0.00    -0.018 C 
ATOM      4  C   UNL     1     -35.272  22.411   3.597  0.00  0.00    +0.002 C 
ATOM      5  C   UNL     1     -35.291  21.839   2.236  0.00  0.00    +0.072 C 
ATOM      6  C   UNL     1     -35.290  22.648   1.162  0.00  0.00    -0.009 C 
ATOM      7  C   UNL     1     -34.928  24.337   5.053  0.00  0.00    +0.030 C 
ATOM      8  C   UNL     1     -35.559  21.642   4.734  0.00  0.00    -0.000 C 
ATOM      9  C   UNL     1     -35.212  23.555   6.170  0.00  0.00    +0.003 C 
ATOM     10  C   UNL     1     -35.530  22.210   6.010  0.00  0.00    +0.000 C 
ENDROOT
BRANCH   2  12
ATOM     11  O   UNL     1     -37.552  23.994   0.607  0.00  0.00    -0.250 OA
ATOM     12  C   UNL     1     -36.636  24.636   1.097  0.00  0.00    +0.318 C 
BRANCH  12  13
ATOM     13  O   UNL     1     -36.757  25.903   1.565  0.00  0.00    -0.480 OA
ATOM     14  H   UNL     1     -36.095  26.262   2.124  0.00  0.00    +0.295 HD
ENDBRANCH  12  13
ENDBRANCH   2  12
BRANCH   5  16
ATOM     15  O   UNL     1     -34.330  19.701   1.884  0.00  0.00    -0.245 OA
ATOM     16  C   UNL     1     -35.326  20.402   1.936  0.00  0.00    +0.341 C 
BRANCH  16  17
ATOM     17  O   UNL     1     -36.617  20.034   1.739  0.00  0.00    -0.449 OA
BRANCH  17  18
ATOM     18  C   UNL     1     -36.997  19.851   0.371  0.00  0.00    +0.169 C 
ATOM     19  C   UNL     1     -38.355  20.503   0.147  0.00  0.00    +0.047 C 
BRANCH  18  20
ATOM     20  C   UNL     1     -37.044  18.353   0.059  0.00  0.00    +0.044 C 
ATOM     21  C   UNL     1     -38.263  17.975  -0.771  0.00  0.00    +0.004 C 
ENDBRANCH  18  20
ENDBRANCH  17  18
ENDBRANCH  16  17
ENDBRANCH   5  16
BRANCH   7  22
ATOM     22  C   UNL     1     -34.579  25.733   5.295  0.00  0.00    +0.140 C 
ATOM     23  C   UNL     1     -33.324  26.115   5.635  0.00  0.00    +0.118 C 
BRANCH  22  24
ATOM     24  O   UNL     1     -35.628  26.623   5.128  0.00  0.00    -0.505 OA
ATOM     25  H   UNL     1     -36.378  26.374   4.624  0.00  0.00    +0.292 HD
ENDBRANCH  22  24
BRANCH  23  27
ATOM     26  O   UNL     1     -33.043  28.452   5.105  0.00  0.00    -0.245 OA
ATOM     27  C   UNL     1     -32.929  27.519   5.880  0.00  0.00    +0.341 C 
BRANCH  27  28
ATOM     28  O   UNL     1     -32.409  27.611   7.127  0.00  0.00    -0.477 OA
ATOM     29  H   UNL     1     -31.553  27.274   7.304  0.00  0.00    +0.295 HD
ENDBRANCH  27  28
ENDBRANCH  23  27
ENDBRANCH   7  22
TORSDOF 10
ENDMDL
MODEL 9
REMARK VINA RESULT:      -5.8      3.651      7.689
REMARK  Name = 57346769
REMARK  10 active torsions:
REMARK  status: ('A' for Active; 'I' for Inactive)
REMARK    1  A    between atoms: C_2  and  C_12
REMARK    2  A    between atoms: C_5  and  C_16
REMARK    3  A    between atoms: C_7  and  C_22
REMARK    4  A    between atoms: C_12  and  O_13
REMARK    5  A    between atoms: C_16  and  O_17
REMARK    6  A    between atoms: O_17  and  C_18
REMARK    7  A    between atoms: C_18  and  C_20
REMARK    8  A    between atoms: C_22  and  O_24
REMARK    9  A    between atoms: C_23  and  C_27
REMARK   10  A    between atoms: C_27  and  O_28
REMARK                            x       y       z     vdW  Elec       q    Type
REMARK                         _______ _______ _______ _____ _____    ______ ____
ROOT
ATOM      1  C   UNL     1     -34.232  26.643   2.991  0.00  0.00    +0.042 C 
ATOM      2  C   UNL     1     -33.387  26.913   1.743  0.00  0.00    +0.125 C 
ATOM      3  C   UNL     1     -33.523  26.990   4.281  0.00  0.00    -0.018 C 
ATOM      4  C   UNL     1     -32.514  27.976   4.302  0.00  0.00    +0.002 C 
ATOM      5  C   UNL     1     -32.122  28.636   3.041  0.00  0.00    +0.072 C 
ATOM      6  C   UNL     1     -32.514  28.127   1.861  0.00  0.00    -0.009 C 
ATOM      7  C   UNL     1     -33.921  26.364   5.472  0.00  0.00    +0.030 C 
ATOM      8  C   UNL     1     -31.907  28.288   5.528  0.00  0.00    -0.000 C 
ATOM      9  C   UNL     1     -33.310  26.690   6.679  0.00  0.00    +0.003 C 
ATOM     10  C   UNL     1     -32.302  27.649   6.706  0.00  0.00    +0.000 C 
ENDROOT
BRANCH   2  12
ATOM     11  O   UNL     1     -31.263  25.761   1.627  0.00  0.00    -0.250 OA
ATOM     12  C   UNL     1     -32.471  25.761   1.448  0.00  0.00    +0.318 C 
BRANCH  12  13
ATOM     13  O   UNL     1     -33.169  24.711   0.950  0.00  0.00    -0.480 OA
ATOM     14  H   UNL     1     -33.482  24.041   1.526  0.00  0.00    +0.295 HD
ENDBRANCH  12  13
ENDBRANCH   2  12
BRANCH   5  16
ATOM     15  O   UNL     1     -30.120  29.836   2.627  0.00  0.00    -0.245 OA
ATOM     16  C   UNL     1     -31.294  29.846   2.956  0.00  0.00    +0.341 C 
BRANCH  16  17
ATOM     17  O   UNL     1     -32.055  30.914   3.299  0.00  0.00    -0.449 OA
BRANCH  17  18
ATOM     18  C   UNL     1     -32.558  31.683   2.202  0.00  0.00    +0.169 C 
ATOM     19  C   UNL     1     -31.669  32.904   2.007  0.00  0.00    +0.047 C 
BRANCH  18  20
ATOM     20  C   UNL     1     -34.003  32.092   2.497  0.00  0.00    +0.044 C 
ATOM     21  C   UNL     1     -34.794  30.972   3.162  0.00  0.00    +0.004 C 
ENDBRANCH  18  20
ENDBRANCH  17  18
ENDBRANCH  16  17
ENDBRANCH   5  16
BRANCH   7  22
ATOM     22  C   UNL     1     -34.987  25.367   5.519  0.00  0.00    +0.140 C 
ATOM     23  C   UNL     1     -34.733  24.037   5.480  0.00  0.00    +0.118 C 
BRANCH  22  24
ATOM     24  O   UNL     1     -36.263  25.898   5.627  0.00  0.00    -0.505 OA
ATOM     25  H   UNL     1     -36.468  26.487   6.326  0.00  0.00    +0.292 HD
ENDBRANCH  22  24
BRANCH  23  27
ATOM     26  O   UNL     1     -35.894  22.119   6.371  0.00  0.00    -0.245 OA
ATOM     27  C   UNL     1     -35.782  22.997   5.533  0.00  0.00    +0.341 C 
BRANCH  27  28
ATOM     28  O   UNL     1     -36.620  23.172   4.484  0.00  0.00    -0.477 OA
ATOM     29  H   UNL     1     -37.515  22.902   4.549  0.00  0.00    +0.295 HD
ENDBRANCH  27  28
ENDBRANCH  23  27
ENDBRANCH   7  22
TORSDOF 10
ENDMDL
