MODEL 1
REMARK VINA RESULT:      -6.9      0.000      0.000
REMARK  Name = 191202
REMARK  4 active torsions:
REMARK  status: ('A' for Active; 'I' for Inactive)
REMARK    1  A    between atoms: N_2  and  C_20
REMARK    2  A    between atoms: C_9  and  N_26
REMARK    3  A    between atoms: P_12  and  O_24
REMARK    4  A    between atoms: C_19  and  O_22
REMARK                            x       y       z     vdW  Elec       q    Type
REMARK                         _______ _______ _______ _____ _____    ______ ____
ROOT
ATOM      1  O   UNL     1     -40.446  22.303   1.679  0.00  0.00    -0.193 OA
ATOM      2  N   UNL     1     -36.372  24.071   3.243  0.00  0.00    -0.236 N 
ATOM      3  N   UNL     1     -35.278  22.085   3.131  0.00  0.00    -0.245 NA
ATOM      4  N   UNL     1     -38.573  23.360   2.455  0.00  0.00    -0.305 NA
ATOM      5  N   UNL     1     -38.578  21.022   1.930  0.00  0.00    -0.235 N 
ATOM      6  C   UNL     1     -37.335  23.206   2.775  0.00  0.00    +0.217 C 
ATOM      7  C   UNL     1     -35.216  23.359   3.436  0.00  0.00    +0.223 C 
ATOM      8  C   UNL     1     -36.590  21.913   2.703  0.00  0.00    +0.134 C 
ATOM      9  C   UNL     1     -37.251  20.834   2.271  0.00  0.00    +0.180 C 
ATOM     10  C   UNL     1     -39.260  22.241   2.007  0.00  0.00    +0.268 C 
ATOM     11  H   UNL     1     -39.080  20.239   1.606  0.00  0.00    +0.162 HD
ENDROOT
BRANCH   2  20
ATOM     12  P   UNL     1     -32.648  28.270   4.043  0.00  0.00    +0.476 P 
ATOM     13  O   UNL     1     -36.160  26.299   2.457  0.00  0.00    -0.333 OA
ATOM     14  O   UNL     1     -33.794  27.454   4.865  0.00  0.00    -0.271 OA
ATOM     15  O   UNL     1     -33.363  28.698   2.646  0.00  0.00    -0.271 OA
ATOM     16  O   UNL     1     -32.027  29.413   4.793  0.00  0.00    -0.227 OA
ATOM     17  C   UNL     1     -34.544  26.534   4.104  0.00  0.00    +0.186 C 
ATOM     18  C   UNL     1     -35.233  27.253   2.968  0.00  0.00    +0.177 C 
ATOM     19  C   UNL     1     -35.715  25.861   4.783  0.00  0.00    +0.188 C 
ATOM     20  C   UNL     1     -36.572  25.463   3.570  0.00  0.00    +0.226 C 
ATOM     21  C   UNL     1     -34.207  27.761   1.974  0.00  0.00    +0.186 C 
BRANCH  19  22
ATOM     22  O   UNL     1     -36.429  26.765   5.622  0.00  0.00    -0.378 OA
ATOM     23  H   UNL     1     -36.327  27.668   5.283  0.00  0.00    +0.211 HD
ENDBRANCH  19  22
BRANCH  12  24
ATOM     24  O   UNL     1     -31.596  27.125   3.594  0.00  0.00    -0.302 OA
ATOM     25  H   UNL     1     -31.163  27.389   2.767  0.00  0.00    +0.222 HD
ENDBRANCH  12  24
ENDBRANCH   2  20
BRANCH   9  26
ATOM     26  N   UNL     1     -36.671  19.601   2.167  0.00  0.00    -0.301 NA
ATOM     27  H   UNL     1     -37.212  18.789   2.300  0.00  0.00    +0.121 HD
ATOM     28  H   UNL     1     -35.711  19.524   1.959  0.00  0.00    +0.121 HD
ENDBRANCH   9  26
TORSDOF 4
ENDMDL
MODEL 2
REMARK VINA RESULT:      -6.5      2.069      2.666
REMARK  Name = 191202
REMARK  4 active torsions:
REMARK  status: ('A' for Active; 'I' for Inactive)
REMARK    1  A    between atoms: N_2  and  C_20
REMARK    2  A    between atoms: C_9  and  N_26
REMARK    3  A    between atoms: P_12  and  O_24
REMARK    4  A    between atoms: C_19  and  O_22
REMARK                            x       y       z     vdW  Elec       q    Type
REMARK                         _______ _______ _______ _____ _____    ______ ____
ROOT
ATOM      1  O   UNL     1     -40.756  21.011   0.670  0.00  0.00    -0.193 OA
ATOM      2  N   UNL     1     -36.600  21.991   2.654  0.00  0.00    -0.236 N 
ATOM      3  N   UNL     1     -35.397  20.933   1.047  0.00  0.00    -0.245 NA
ATOM      4  N   UNL     1     -38.853  21.590   1.798  0.00  0.00    -0.305 NA
ATOM      5  N   UNL     1     -38.780  20.347  -0.250  0.00  0.00    -0.235 N 
ATOM      6  C   UNL     1     -37.567  21.521   1.796  0.00  0.00    +0.217 C 
ATOM      7  C   UNL     1     -35.375  21.610   2.170  0.00  0.00    +0.223 C 
ATOM      8  C   UNL     1     -36.752  20.838   0.746  0.00  0.00    +0.134 C 
ATOM      9  C   UNL     1     -37.400  20.258  -0.270  0.00  0.00    +0.180 C 
ATOM     10  C   UNL     1     -39.526  20.989   0.745  0.00  0.00    +0.268 C 
ATOM     11  H   UNL     1     -39.274  19.929  -0.992  0.00  0.00    +0.162 HD
ENDROOT
BRANCH   2  20
ATOM     12  P   UNL     1     -33.805  26.252   5.140  0.00  0.00    +0.476 P 
ATOM     13  O   UNL     1     -37.222  24.056   3.644  0.00  0.00    -0.333 OA
ATOM     14  O   UNL     1     -34.190  24.693   5.414  0.00  0.00    -0.271 OA
ATOM     15  O   UNL     1     -35.207  26.957   4.709  0.00  0.00    -0.271 OA
ATOM     16  O   UNL     1     -33.094  26.936   6.271  0.00  0.00    -0.227 OA
ATOM     17  C   UNL     1     -35.053  24.107   4.466  0.00  0.00    +0.186 C 
ATOM     18  C   UNL     1     -36.348  24.885   4.405  0.00  0.00    +0.177 C 
ATOM     19  C   UNL     1     -35.558  22.712   4.754  0.00  0.00    +0.188 C 
ATOM     20  C   UNL     1     -36.839  22.679   3.901  0.00  0.00    +0.226 C 
ATOM     21  C   UNL     1     -36.100  26.266   3.832  0.00  0.00    +0.186 C 
BRANCH  19  22
ATOM     22  O   UNL     1     -35.874  22.539   6.132  0.00  0.00    -0.378 OA
ATOM     23  H   UNL     1     -35.523  21.687   6.438  0.00  0.00    +0.211 HD
ENDBRANCH  19  22
BRANCH  12  24
ATOM     24  O   UNL     1     -32.963  26.212   3.758  0.00  0.00    -0.302 OA
ATOM     25  H   UNL     1     -32.214  26.825   3.817  0.00  0.00    +0.222 HD
ENDBRANCH  12  24
ENDBRANCH   2  20
BRANCH   9  26
ATOM     26  N   UNL     1     -36.757  19.605  -1.284  0.00  0.00    -0.301 NA
ATOM     27  H   UNL     1     -36.862  19.913  -2.213  0.00  0.00    +0.121 HD
ATOM     28  H   UNL     1     -36.189  18.825  -1.085  0.00  0.00    +0.121 HD
ENDBRANCH   9  26
TORSDOF 4
ENDMDL
MODEL 3
REMARK VINA RESULT:      -6.2      2.049      3.543
REMARK  Name = 191202
REMARK  4 active torsions:
REMARK  status: ('A' for Active; 'I' for Inactive)
REMARK    1  A    between atoms: N_2  and  C_20
REMARK    2  A    between atoms: C_9  and  N_26
REMARK    3  A    between atoms: P_12  and  O_24
REMARK    4  A    between atoms: C_19  and  O_22
REMARK                            x       y       z     vdW  Elec       q    Type
REMARK                         _______ _______ _______ _____ _____    ______ ____
ROOT
ATOM      1  O   UNL     1     -39.573  20.335   0.066  0.00  0.00    -0.193 OA
ATOM      2  N   UNL     1     -38.170  23.741   2.999  0.00  0.00    -0.236 N 
ATOM      3  N   UNL     1     -39.990  25.043   2.621  0.00  0.00    -0.245 NA
ATOM      4  N   UNL     1     -38.707  21.865   1.529  0.00  0.00    -0.305 NA
ATOM      5  N   UNL     1     -40.806  22.217   0.427  0.00  0.00    -0.235 N 
ATOM      6  C   UNL     1     -38.901  23.005   2.095  0.00  0.00    +0.217 C 
ATOM      7  C   UNL     1     -38.848  24.906   3.251  0.00  0.00    +0.223 C 
ATOM      8  C   UNL     1     -40.093  23.878   1.870  0.00  0.00    +0.134 C 
ATOM      9  C   UNL     1     -41.033  23.445   1.022  0.00  0.00    +0.180 C 
ATOM     10  C   UNL     1     -39.681  21.416   0.649  0.00  0.00    +0.268 C 
ATOM     11  H   UNL     1     -41.489  21.881  -0.198  0.00  0.00    +0.162 HD
ENDROOT
BRANCH   2  20
ATOM     12  P   UNL     1     -33.646  26.963   4.141  0.00  0.00    +0.476 P 
ATOM     13  O   UNL     1     -36.687  23.962   4.838  0.00  0.00    -0.333 OA
ATOM     14  O   UNL     1     -34.079  25.731   3.166  0.00  0.00    -0.271 OA
ATOM     15  O   UNL     1     -34.138  26.510   5.625  0.00  0.00    -0.271 OA
ATOM     16  O   UNL     1     -32.198  27.351   4.063  0.00  0.00    -0.227 OA
ATOM     17  C   UNL     1     -35.367  25.205   3.391  0.00  0.00    +0.186 C 
ATOM     18  C   UNL     1     -35.474  24.708   4.815  0.00  0.00    +0.177 C 
ATOM     19  C   UNL     1     -35.759  23.968   2.616  0.00  0.00    +0.188 C 
ATOM     20  C   UNL     1     -36.867  23.393   3.515  0.00  0.00    +0.226 C 
ATOM     21  C   UNL     1     -35.408  25.875   5.780  0.00  0.00    +0.186 C 
BRANCH  19  22
ATOM     22  O   UNL     1     -34.677  23.047   2.508  0.00  0.00    -0.378 OA
ATOM     23  H   UNL     1     -34.967  22.172   2.812  0.00  0.00    +0.211 HD
ENDBRANCH  19  22
BRANCH  12  24
ATOM     24  O   UNL     1     -34.672  28.152   3.750  0.00  0.00    -0.302 OA
ATOM     25  H   UNL     1     -34.613  28.331   2.799  0.00  0.00    +0.222 HD
ENDBRANCH  12  24
ENDBRANCH   2  20
BRANCH   9  26
ATOM     26  N   UNL     1     -42.163  24.160   0.740  0.00  0.00    -0.301 NA
ATOM     27  H   UNL     1     -42.243  25.094   1.042  0.00  0.00    +0.121 HD
ATOM     28  H   UNL     1     -42.897  23.741   0.235  0.00  0.00    +0.121 HD
ENDBRANCH   9  26
TORSDOF 4
ENDMDL
MODEL 4
REMARK VINA RESULT:      -6.1      4.376      6.407
REMARK  Name = 191202
REMARK  4 active torsions:
REMARK  status: ('A' for Active; 'I' for Inactive)
REMARK    1  A    between atoms: N_2  and  C_20
REMARK    2  A    between atoms: C_9  and  N_26
REMARK    3  A    between atoms: P_12  and  O_24
REMARK    4  A    between atoms: C_19  and  O_22
REMARK                            x       y       z     vdW  Elec       q    Type
REMARK                         _______ _______ _______ _____ _____    ______ ____
ROOT
ATOM      1  O   UNL     1     -39.304  25.940   2.004  0.00  0.00    -0.193 OA
ATOM      2  N   UNL     1     -36.459  22.378   3.184  0.00  0.00    -0.236 N 
ATOM      3  N   UNL     1     -35.439  23.529   4.853  0.00  0.00    -0.245 NA
ATOM      4  N   UNL     1     -38.018  24.093   2.410  0.00  0.00    -0.305 NA
ATOM      5  N   UNL     1     -37.794  26.098   3.703  0.00  0.00    -0.235 N 
ATOM      6  C   UNL     1     -37.086  23.603   3.151  0.00  0.00    +0.217 C 
ATOM      7  C   UNL     1     -35.516  22.407   4.179  0.00  0.00    +0.223 C 
ATOM      8  C   UNL     1     -36.405  24.336   4.261  0.00  0.00    +0.134 C 
ATOM      9  C   UNL     1     -36.790  25.592   4.509  0.00  0.00    +0.180 C 
ATOM     10  C   UNL     1     -38.418  25.396   2.666  0.00  0.00    +0.268 C 
ATOM     11  H   UNL     1     -38.093  27.021   3.874  0.00  0.00    +0.162 HD
ENDROOT
BRANCH   2  20
ATOM     12  P   UNL     1     -33.120  20.147  -0.818  0.00  0.00    +0.476 P 
ATOM     13  O   UNL     1     -35.801  20.180   2.580  0.00  0.00    -0.333 OA
ATOM     14  O   UNL     1     -34.552  20.912  -0.682  0.00  0.00    -0.271 OA
ATOM     15  O   UNL     1     -33.175  18.960   0.294  0.00  0.00    -0.271 OA
ATOM     16  O   UNL     1     -32.785  19.677  -2.205  0.00  0.00    -0.227 OA
ATOM     17  C   UNL     1     -34.985  21.153   0.638  0.00  0.00    +0.186 C 
ATOM     18  C   UNL     1     -35.103  19.843   1.384  0.00  0.00    +0.177 C 
ATOM     19  C   UNL     1     -36.372  21.725   0.822  0.00  0.00    +0.188 C 
ATOM     20  C   UNL     1     -36.684  21.288   2.264  0.00  0.00    +0.226 C 
ATOM     21  C   UNL     1     -33.731  19.231   1.582  0.00  0.00    +0.186 C 
BRANCH  19  22
ATOM     22  O   UNL     1     -37.306  21.148  -0.086  0.00  0.00    -0.378 OA
ATOM     23  H   UNL     1     -38.141  20.976   0.377  0.00  0.00    +0.211 HD
ENDBRANCH  19  22
BRANCH  12  24
ATOM     24  O   UNL     1     -32.053  21.195  -0.200  0.00  0.00    -0.302 OA
ATOM     25  H   UNL     1     -32.502  22.030   0.007  0.00  0.00    +0.222 HD
ENDBRANCH  12  24
ENDBRANCH   2  20
BRANCH   9  26
ATOM     26  N   UNL     1     -36.235  26.356   5.497  0.00  0.00    -0.301 NA
ATOM     27  H   UNL     1     -35.256  26.431   5.571  0.00  0.00    +0.121 HD
ATOM     28  H   UNL     1     -36.815  26.831   6.136  0.00  0.00    +0.121 HD
ENDBRANCH   9  26
TORSDOF 4
ENDMDL
MODEL 5
REMARK VINA RESULT:      -6.0      4.270      6.524
REMARK  Name = 191202
REMARK  4 active torsions:
REMARK  status: ('A' for Active; 'I' for Inactive)
REMARK    1  A    between atoms: N_2  and  C_20
REMARK    2  A    between atoms: C_9  and  N_26
REMARK    3  A    between atoms: P_12  and  O_24
REMARK    4  A    between atoms: C_19  and  O_22
REMARK                            x       y       z     vdW  Elec       q    Type
REMARK                         _______ _______ _______ _____ _____    ______ ____
ROOT
ATOM      1  O   UNL     1     -35.935  22.618   6.069  0.00  0.00    -0.193 OA
ATOM      2  N   UNL     1     -37.098  25.573   2.592  0.00  0.00    -0.236 N 
ATOM      3  N   UNL     1     -35.567  27.139   3.188  0.00  0.00    -0.245 NA
ATOM      4  N   UNL     1     -36.656  23.903   4.319  0.00  0.00    -0.305 NA
ATOM      5  N   UNL     1     -34.890  24.621   5.771  0.00  0.00    -0.235 N 
ATOM      6  C   UNL     1     -36.487  25.013   3.691  0.00  0.00    +0.217 C 
ATOM      7  C   UNL     1     -36.528  26.799   2.363  0.00  0.00    +0.223 C 
ATOM      8  C   UNL     1     -35.483  26.057   4.058  0.00  0.00    +0.134 C 
ATOM      9  C   UNL     1     -34.695  25.822   5.113  0.00  0.00    +0.180 C 
ATOM     10  C   UNL     1     -35.840  23.658   5.414  0.00  0.00    +0.268 C 
ATOM     11  H   UNL     1     -34.317  24.430   6.549  0.00  0.00    +0.162 HD
ENDROOT
BRANCH   2  20
ATOM     12  P   UNL     1     -42.521  27.198   2.281  0.00  0.00    +0.476 P 
ATOM     13  O   UNL     1     -38.645  25.929   0.829  0.00  0.00    -0.333 OA
ATOM     14  O   UNL     1     -41.633  25.926   2.780  0.00  0.00    -0.271 OA
ATOM     15  O   UNL     1     -41.970  27.528   0.786  0.00  0.00    -0.271 OA
ATOM     16  O   UNL     1     -44.007  27.000   2.360  0.00  0.00    -0.227 OA
ATOM     17  C   UNL     1     -40.254  26.004   2.499  0.00  0.00    +0.186 C 
ATOM     18  C   UNL     1     -40.043  26.141   1.008  0.00  0.00    +0.177 C 
ATOM     19  C   UNL     1     -39.411  24.788   2.807  0.00  0.00    +0.188 C 
ATOM     20  C   UNL     1     -38.213  25.011   1.867  0.00  0.00    +0.226 C 
ATOM     21  C   UNL     1     -40.565  27.481   0.529  0.00  0.00    +0.186 C 
BRANCH  19  22
ATOM     22  O   UNL     1     -40.087  23.579   2.474  0.00  0.00    -0.378 OA
ATOM     23  H   UNL     1     -41.038  23.753   2.393  0.00  0.00    +0.211 HD
ENDBRANCH  19  22
BRANCH  12  24
ATOM     24  O   UNL     1     -41.971  28.434   3.169  0.00  0.00    -0.302 OA
ATOM     25  H   UNL     1     -42.427  29.249   2.907  0.00  0.00    +0.222 HD
ENDBRANCH  12  24
ENDBRANCH   2  20
BRANCH   9  26
ATOM     26  N   UNL     1     -33.743  26.705   5.539  0.00  0.00    -0.301 NA
ATOM     27  H   UNL     1     -34.000  27.621   5.794  0.00  0.00    +0.121 HD
ATOM     28  H   UNL     1     -32.800  26.426   5.591  0.00  0.00    +0.121 HD
ENDBRANCH   9  26
TORSDOF 4
ENDMDL
MODEL 6
REMARK VINA RESULT:      -6.0      3.562      5.523
REMARK  Name = 191202
REMARK  4 active torsions:
REMARK  status: ('A' for Active; 'I' for Inactive)
REMARK    1  A    between atoms: N_2  and  C_20
REMARK    2  A    between atoms: C_9  and  N_26
REMARK    3  A    between atoms: P_12  and  O_24
REMARK    4  A    between atoms: C_19  and  O_22
REMARK                            x       y       z     vdW  Elec       q    Type
REMARK                         _______ _______ _______ _____ _____    ______ ____
ROOT
ATOM      1  O   UNL     1     -35.426  22.120   6.654  0.00  0.00    -0.193 OA
ATOM      2  N   UNL     1     -36.958  24.170   2.702  0.00  0.00    -0.236 N 
ATOM      3  N   UNL     1     -36.317  22.450   1.366  0.00  0.00    -0.245 NA
ATOM      4  N   UNL     1     -36.232  23.291   4.863  0.00  0.00    -0.305 NA
ATOM      5  N   UNL     1     -35.245  21.121   4.614  0.00  0.00    -0.235 N 
ATOM      6  C   UNL     1     -36.406  23.272   3.587  0.00  0.00    +0.217 C 
ATOM      7  C   UNL     1     -36.866  23.640   1.441  0.00  0.00    +0.223 C 
ATOM      8  C   UNL     1     -36.001  22.151   2.687  0.00  0.00    +0.134 C 
ATOM      9  C   UNL     1     -35.419  21.083   3.242  0.00  0.00    +0.180 C 
ATOM     10  C   UNL     1     -35.628  22.184   5.440  0.00  0.00    +0.268 C 
ATOM     11  H   UNL     1     -34.820  20.342   5.041  0.00  0.00    +0.162 HD
ENDROOT
BRANCH   2  20
ATOM     12  P   UNL     1     -41.083  27.275   0.359  0.00  0.00    +0.476 P 
ATOM     13  O   UNL     1     -38.816  25.392   3.529  0.00  0.00    -0.333 OA
ATOM     14  O   UNL     1     -39.475  27.335   0.610  0.00  0.00    -0.271 OA
ATOM     15  O   UNL     1     -41.716  26.887   1.807  0.00  0.00    -0.271 OA
ATOM     16  O   UNL     1     -41.672  28.509  -0.261  0.00  0.00    -0.227 OA
ATOM     17  C   UNL     1     -38.946  26.290   1.394  0.00  0.00    +0.186 C 
ATOM     18  C   UNL     1     -39.612  26.282   2.751  0.00  0.00    +0.177 C 
ATOM     19  C   UNL     1     -37.487  26.380   1.780  0.00  0.00    +0.188 C 
ATOM     20  C   UNL     1     -37.456  25.485   3.031  0.00  0.00    +0.226 C 
ATOM     21  C   UNL     1     -41.071  25.899   2.613  0.00  0.00    +0.186 C 
BRANCH  19  22
ATOM     22  O   UNL     1     -37.110  27.713   2.113  0.00  0.00    -0.378 OA
ATOM     23  H   UNL     1     -37.687  28.337   1.645  0.00  0.00    +0.211 HD
ENDBRANCH  19  22
BRANCH  12  24
ATOM     24  O   UNL     1     -41.294  25.930  -0.518  0.00  0.00    -0.302 OA
ATOM     25  H   UNL     1     -42.222  25.865  -0.793  0.00  0.00    +0.222 HD
ENDBRANCH  12  24
ENDBRANCH   2  20
BRANCH   9  26
ATOM     26  N   UNL     1     -35.007  20.001   2.516  0.00  0.00    -0.301 NA
ATOM     27  H   UNL     1     -34.048  19.862   2.340  0.00  0.00    +0.121 HD
ATOM     28  H   UNL     1     -35.669  19.360   2.168  0.00  0.00    +0.121 HD
ENDBRANCH   9  26
TORSDOF 4
ENDMDL
MODEL 7
REMARK VINA RESULT:      -6.0      4.375      7.471
REMARK  Name = 191202
REMARK  4 active torsions:
REMARK  status: ('A' for Active; 'I' for Inactive)
REMARK    1  A    between atoms: N_2  and  C_20
REMARK    2  A    between atoms: C_9  and  N_26
REMARK    3  A    between atoms: P_12  and  O_24
REMARK    4  A    between atoms: C_19  and  O_22
REMARK                            x       y       z     vdW  Elec       q    Type
REMARK                         _______ _______ _______ _____ _____    ______ ____
ROOT
ATOM      1  O   UNL     1     -35.145  22.507   6.394  0.00  0.00    -0.193 OA
ATOM      2  N   UNL     1     -37.558  23.475   2.468  0.00  0.00    -0.236 N 
ATOM      3  N   UNL     1     -37.256  25.718   2.639  0.00  0.00    -0.245 NA
ATOM      4  N   UNL     1     -36.353  22.755   4.468  0.00  0.00    -0.305 NA
ATOM      5  N   UNL     1     -35.429  24.636   5.632  0.00  0.00    -0.235 N 
ATOM      6  C   UNL     1     -36.814  23.606   3.618  0.00  0.00    +0.217 C 
ATOM      7  C   UNL     1     -37.786  24.728   1.961  0.00  0.00    +0.223 C 
ATOM      8  C   UNL     1     -36.622  25.085   3.703  0.00  0.00    +0.134 C 
ATOM      9  C   UNL     1     -35.918  25.566   4.733  0.00  0.00    +0.180 C 
ATOM     10  C   UNL     1     -35.623  23.253   5.537  0.00  0.00    +0.268 C 
ATOM     11  H   UNL     1     -34.905  24.972   6.395  0.00  0.00    +0.162 HD
ENDROOT
BRANCH   2  20
ATOM     12  P   UNL     1     -41.647  22.522  -1.342  0.00  0.00    +0.476 P 
ATOM     13  O   UNL     1     -37.767  22.117   0.534  0.00  0.00    -0.333 OA
ATOM     14  O   UNL     1     -41.321  22.230   0.227  0.00  0.00    -0.271 OA
ATOM     15  O   UNL     1     -40.309  22.052  -2.139  0.00  0.00    -0.271 OA
ATOM     16  O   UNL     1     -42.916  21.900  -1.849  0.00  0.00    -0.227 OA
ATOM     17  C   UNL     1     -40.032  22.606   0.657  0.00  0.00    +0.186 C 
ATOM     18  C   UNL     1     -38.988  21.880  -0.161  0.00  0.00    +0.177 C 
ATOM     19  C   UNL     1     -39.627  22.222   2.062  0.00  0.00    +0.188 C 
ATOM     20  C   UNL     1     -38.093  22.240   1.944  0.00  0.00    +0.226 C 
ATOM     21  C   UNL     1     -39.024  22.363  -1.597  0.00  0.00    +0.186 C 
BRANCH  19  22
ATOM     22  O   UNL     1     -40.084  20.917   2.405  0.00  0.00    -0.378 OA
ATOM     23  H   UNL     1     -40.798  20.657   1.803  0.00  0.00    +0.211 HD
ENDBRANCH  19  22
BRANCH  12  24
ATOM     24  O   UNL     1     -41.610  24.136  -1.457  0.00  0.00    -0.302 OA
ATOM     25  H   UNL     1     -41.086  24.393  -2.232  0.00  0.00    +0.222 HD
ENDBRANCH  12  24
ENDBRANCH   2  20
BRANCH   9  26
ATOM     26  N   UNL     1     -35.682  26.901   4.911  0.00  0.00    -0.301 NA
ATOM     27  H   UNL     1     -36.284  27.566   4.505  0.00  0.00    +0.121 HD
ATOM     28  H   UNL     1     -34.909  27.197   5.445  0.00  0.00    +0.121 HD
ENDBRANCH   9  26
TORSDOF 4
ENDMDL
MODEL 8
REMARK VINA RESULT:      -6.0      2.610      3.681
REMARK  Name = 191202
REMARK  4 active torsions:
REMARK  status: ('A' for Active; 'I' for Inactive)
REMARK    1  A    between atoms: N_2  and  C_20
REMARK    2  A    between atoms: C_9  and  N_26
REMARK    3  A    between atoms: P_12  and  O_24
REMARK    4  A    between atoms: C_19  and  O_22
REMARK                            x       y       z     vdW  Elec       q    Type
REMARK                         _______ _______ _______ _____ _____    ______ ____
ROOT
ATOM      1  O   UNL     1     -35.768  21.031   1.814  0.00  0.00    -0.193 OA
ATOM      2  N   UNL     1     -34.341  25.227   3.404  0.00  0.00    -0.236 N 
ATOM      3  N   UNL     1     -34.810  24.748   5.573  0.00  0.00    -0.245 NA
ATOM      4  N   UNL     1     -35.031  23.122   2.372  0.00  0.00    -0.305 NA
ATOM      5  N   UNL     1     -35.826  21.580   4.025  0.00  0.00    -0.235 N 
ATOM      6  C   UNL     1     -34.832  23.942   3.344  0.00  0.00    +0.217 C 
ATOM      7  C   UNL     1     -34.365  25.634   4.713  0.00  0.00    +0.223 C 
ATOM      8  C   UNL     1     -35.124  23.649   4.781  0.00  0.00    +0.134 C 
ATOM      9  C   UNL     1     -35.624  22.447   5.084  0.00  0.00    +0.180 C 
ATOM     10  C   UNL     1     -35.550  21.875   2.685  0.00  0.00    +0.268 C 
ATOM     11  H   UNL     1     -36.191  20.689   4.230  0.00  0.00    +0.162 HD
ENDROOT
BRANCH   2  20
ATOM     12  P   UNL     1     -35.054  30.762   2.408  0.00  0.00    +0.476 P 
ATOM     13  O   UNL     1     -32.941  26.994   2.666  0.00  0.00    -0.333 OA
ATOM     14  O   UNL     1     -35.498  29.323   1.788  0.00  0.00    -0.271 OA
ATOM     15  O   UNL     1     -33.444  30.648   2.615  0.00  0.00    -0.271 OA
ATOM     16  O   UNL     1     -35.489  31.956   1.608  0.00  0.00    -0.227 OA
ATOM     17  C   UNL     1     -34.907  28.195   2.394  0.00  0.00    +0.186 C 
ATOM     18  C   UNL     1     -33.402  28.287   2.284  0.00  0.00    +0.177 C 
ATOM     19  C   UNL     1     -35.169  26.848   1.761  0.00  0.00    +0.188 C 
ATOM     20  C   UNL     1     -33.963  26.040   2.273  0.00  0.00    +0.226 C 
ATOM     21  C   UNL     1     -32.887  29.436   3.128  0.00  0.00    +0.186 C 
BRANCH  19  22
ATOM     22  O   UNL     1     -35.151  26.920   0.339  0.00  0.00    -0.378 OA
ATOM     23  H   UNL     1     -35.343  27.829   0.059  0.00  0.00    +0.211 HD
ENDBRANCH  19  22
BRANCH  12  24
ATOM     24  O   UNL     1     -35.632  30.734   3.920  0.00  0.00    -0.302 OA
ATOM     25  H   UNL     1     -36.588  30.574   3.898  0.00  0.00    +0.222 HD
ENDBRANCH  12  24
ENDBRANCH   2  20
BRANCH   9  26
ATOM     26  N   UNL     1     -35.930  22.071   6.362  0.00  0.00    -0.301 NA
ATOM     27  H   UNL     1     -35.253  21.623   6.919  0.00  0.00    +0.121 HD
ATOM     28  H   UNL     1     -36.828  22.248   6.725  0.00  0.00    +0.121 HD
ENDBRANCH   9  26
TORSDOF 4
ENDMDL
MODEL 9
REMARK VINA RESULT:      -6.0      4.392      7.631
REMARK  Name = 191202
REMARK  4 active torsions:
REMARK  status: ('A' for Active; 'I' for Inactive)
REMARK    1  A    between atoms: N_2  and  C_20
REMARK    2  A    between atoms: C_9  and  N_26
REMARK    3  A    between atoms: P_12  and  O_24
REMARK    4  A    between atoms: C_19  and  O_22
REMARK                            x       y       z     vdW  Elec       q    Type
REMARK                         _______ _______ _______ _____ _____    ______ ____
ROOT
ATOM      1  O   UNL     1     -30.977  31.064   3.209  0.00  0.00    -0.193 OA
ATOM      2  N   UNL     1     -33.504  27.278   4.417  0.00  0.00    -0.236 N 
ATOM      3  N   UNL     1     -32.682  27.201   6.532  0.00  0.00    -0.245 NA
ATOM      4  N   UNL     1     -32.286  29.226   3.586  0.00  0.00    -0.305 NA
ATOM      5  N   UNL     1     -30.868  30.138   5.289  0.00  0.00    -0.235 N 
ATOM      6  C   UNL     1     -32.635  28.345   4.457  0.00  0.00    +0.217 C 
ATOM      7  C   UNL     1     -33.475  26.657   5.639  0.00  0.00    +0.223 C 
ATOM      8  C   UNL     1     -32.115  28.276   5.856  0.00  0.00    +0.134 C 
ATOM      9  C   UNL     1     -31.226  29.199   6.238  0.00  0.00    +0.180 C 
ATOM     10  C   UNL     1     -31.363  30.183   3.981  0.00  0.00    +0.268 C 
ATOM     11  H   UNL     1     -30.216  30.828   5.553  0.00  0.00    +0.162 HD
ENDROOT
BRANCH   2  20
ATOM     12  P   UNL     1     -36.116  22.361   3.350  0.00  0.00    +0.476 P 
ATOM     13  O   UNL     1     -35.641  26.656   3.597  0.00  0.00    -0.333 OA
ATOM     14  O   UNL     1     -34.891  23.266   2.772  0.00  0.00    -0.271 OA
ATOM     15  O   UNL     1     -37.364  23.395   3.499  0.00  0.00    -0.271 OA
ATOM     16  O   UNL     1     -36.427  21.132   2.545  0.00  0.00    -0.227 OA
ATOM     17  C   UNL     1     -34.737  24.531   3.376  0.00  0.00    +0.186 C 
ATOM     18  C   UNL     1     -36.007  25.335   3.209  0.00  0.00    +0.177 C 
ATOM     19  C   UNL     1     -33.713  25.467   2.777  0.00  0.00    +0.188 C 
ATOM     20  C   UNL     1     -34.240  26.831   3.259  0.00  0.00    +0.226 C 
ATOM     21  C   UNL     1     -37.129  24.708   4.013  0.00  0.00    +0.186 C 
BRANCH  19  22
ATOM     22  O   UNL     1     -33.712  25.409   1.354  0.00  0.00    -0.378 OA
ATOM     23  H   UNL     1     -33.481  26.281   0.996  0.00  0.00    +0.211 HD
ENDBRANCH  19  22
BRANCH  12  24
ATOM     24  O   UNL     1     -35.691  22.057   4.883  0.00  0.00    -0.302 OA
ATOM     25  H   UNL     1     -36.363  21.496   5.300  0.00  0.00    +0.222 HD
ENDBRANCH  12  24
ENDBRANCH   2  20
BRANCH   9  26
ATOM     26  N   UNL     1     -30.684  29.232   7.493  0.00  0.00    -0.301 NA
ATOM     27  H   UNL     1     -30.746  30.052   8.034  0.00  0.00    +0.121 HD
ATOM     28  H   UNL     1     -30.230  28.436   7.854  0.00  0.00    +0.121 HD
ENDBRANCH   9  26
TORSDOF 4
ENDMDL
