MODEL 1
REMARK VINA RESULT:      -6.7      0.000      0.000
REMARK  Name = 5281157
REMARK  7 active torsions:
REMARK  status: ('A' for Active; 'I' for Inactive)
REMARK    1  A    between atoms: N_2  and  C_5
REMARK    2  A    between atoms: C_3  and  C_18
REMARK    3  A    between atoms: C_6  and  C_14
REMARK    4  A    between atoms: C_9  and  O_11
REMARK    5  A    between atoms: C_14  and  O_15
REMARK    6  A    between atoms: C_17  and  C_19
REMARK    7  A    between atoms: C_24  and  O_25
REMARK                            x       y       z     vdW  Elec       q    Type
REMARK                         _______ _______ _______ _____ _____    ______ ____
ROOT
ATOM      1  O   UNL     1     -37.329  21.221   1.878  0.00  0.00    -0.270 OA
ATOM      2  N   UNL     1     -35.225  21.853   2.709  0.00  0.00    -0.280 N 
ATOM      3  C   UNL     1     -36.125  21.046   2.025  0.00  0.00    +0.250 C 
ATOM      4  H   UNL     1     -34.288  21.550   2.720  0.00  0.00    +0.155 HD
ENDROOT
BRANCH   2   5
ATOM      5  C   UNL     1     -35.503  23.063   3.392  0.00  0.00    +0.057 C 
ATOM      6  C   UNL     1     -35.651  23.069   4.769  0.00  0.00    +0.092 C 
ATOM      7  C   UNL     1     -35.622  24.226   2.647  0.00  0.00    +0.018 C 
ATOM      8  C   UNL     1     -35.925  24.272   5.421  0.00  0.00    +0.044 C 
ATOM      9  C   UNL     1     -36.048  25.451   4.685  0.00  0.00    +0.134 C 
ATOM     10  C   UNL     1     -35.895  25.429   3.299  0.00  0.00    +0.038 C 
BRANCH   9  11
ATOM     11  O   UNL     1     -36.313  26.625   5.321  0.00  0.00    -0.506 OA
ATOM     12  H   UNL     1     -36.743  26.621   6.154  0.00  0.00    +0.292 HD
ENDBRANCH   9  11
BRANCH   6  14
ATOM     13  O   UNL     1     -34.812  20.891   5.293  0.00  0.00    -0.245 OA
ATOM     14  C   UNL     1     -35.532  21.855   5.566  0.00  0.00    +0.339 C 
BRANCH  14  15
ATOM     15  O   UNL     1     -36.313  21.888   6.678  0.00  0.00    -0.477 OA
ATOM     16  H   UNL     1     -36.057  22.406   7.415  0.00  0.00    +0.295 HD
ENDBRANCH  14  15
ENDBRANCH   6  14
ENDBRANCH   2   5
BRANCH   3  18
ATOM     17  C   UNL     1     -34.096  19.709   1.546  0.00  0.00    +0.005 C 
ATOM     18  C   UNL     1     -35.436  19.855   1.440  0.00  0.00    +0.058 C 
BRANCH  17  19
ATOM     19  C   UNL     1     -33.327  18.599   1.007  0.00  0.00    +0.000 C 
ATOM     20  C   UNL     1     -31.937  18.591   1.125  0.00  0.00    +0.003 C 
ATOM     21  C   UNL     1     -33.980  17.540   0.375  0.00  0.00    +0.003 C 
ATOM     22  C   UNL     1     -31.200  17.525   0.609  0.00  0.00    +0.037 C 
ATOM     23  C   UNL     1     -33.243  16.474  -0.141  0.00  0.00    +0.037 C 
ATOM     24  C   UNL     1     -31.853  16.467  -0.024  0.00  0.00    +0.134 C 
BRANCH  24  25
ATOM     25  O   UNL     1     -31.133  15.426  -0.526  0.00  0.00    -0.506 OA
ATOM     26  H   UNL     1     -30.799  15.466  -1.400  0.00  0.00    +0.292 HD
ENDBRANCH  24  25
ENDBRANCH  17  19
ENDBRANCH   3  18
TORSDOF 7
ENDMDL
MODEL 2
REMARK VINA RESULT:      -6.5      3.608      7.841
REMARK  Name = 5281157
REMARK  7 active torsions:
REMARK  status: ('A' for Active; 'I' for Inactive)
REMARK    1  A    between atoms: N_2  and  C_5
REMARK    2  A    between atoms: C_3  and  C_18
REMARK    3  A    between atoms: C_6  and  C_14
REMARK    4  A    between atoms: C_9  and  O_11
REMARK    5  A    between atoms: C_14  and  O_15
REMARK    6  A    between atoms: C_17  and  C_19
REMARK    7  A    between atoms: C_24  and  O_25
REMARK                            x       y       z     vdW  Elec       q    Type
REMARK                         _______ _______ _______ _____ _____    ______ ____
ROOT
ATOM      1  O   UNL     1     -36.189  22.648   5.760  0.00  0.00    -0.270 OA
ATOM      2  N   UNL     1     -36.249  23.756   3.690  0.00  0.00    -0.280 N 
ATOM      3  C   UNL     1     -35.793  23.505   4.978  0.00  0.00    +0.250 C 
ATOM      4  H   UNL     1     -35.807  24.490   3.206  0.00  0.00    +0.155 HD
ENDROOT
BRANCH   2   5
ATOM      5  C   UNL     1     -37.278  23.074   2.995  0.00  0.00    +0.057 C 
ATOM      6  C   UNL     1     -37.032  21.841   2.417  0.00  0.00    +0.092 C 
ATOM      7  C   UNL     1     -38.525  23.674   2.913  0.00  0.00    +0.018 C 
ATOM      8  C   UNL     1     -38.060  21.187   1.736  0.00  0.00    +0.044 C 
ATOM      9  C   UNL     1     -39.321  21.778   1.645  0.00  0.00    +0.134 C 
ATOM     10  C   UNL     1     -39.554  23.020   2.234  0.00  0.00    +0.038 C 
BRANCH   9  11
ATOM     11  O   UNL     1     -40.325  21.140   0.984  0.00  0.00    -0.506 OA
ATOM     12  H   UNL     1     -41.156  21.559   0.877  0.00  0.00    +0.292 HD
ENDBRANCH   9  11
BRANCH   6  14
ATOM     13  O   UNL     1     -34.864  21.228   1.610  0.00  0.00    -0.245 OA
ATOM     14  C   UNL     1     -35.726  21.197   2.492  0.00  0.00    +0.339 C 
BRANCH  14  15
ATOM     15  O   UNL     1     -35.541  20.541   3.668  0.00  0.00    -0.477 OA
ATOM     16  H   UNL     1     -34.681  20.274   3.926  0.00  0.00    +0.295 HD
ENDBRANCH  14  15
ENDBRANCH   6  14
ENDBRANCH   2   5
BRANCH   3  18
ATOM     17  C   UNL     1     -34.675  25.713   4.874  0.00  0.00    +0.005 C 
ATOM     18  C   UNL     1     -34.692  24.445   5.348  0.00  0.00    +0.058 C 
BRANCH  17  19
ATOM     19  C   UNL     1     -33.651  26.704   5.162  0.00  0.00    +0.000 C 
ATOM     20  C   UNL     1     -33.154  26.837   6.458  0.00  0.00    +0.003 C 
ATOM     21  C   UNL     1     -33.165  27.520   4.141  0.00  0.00    +0.003 C 
ATOM     22  C   UNL     1     -32.171  27.787   6.734  0.00  0.00    +0.037 C 
ATOM     23  C   UNL     1     -32.182  28.471   4.416  0.00  0.00    +0.037 C 
ATOM     24  C   UNL     1     -31.685  28.604   5.713  0.00  0.00    +0.134 C 
BRANCH  24  25
ATOM     25  O   UNL     1     -30.725  29.531   5.983  0.00  0.00    -0.506 OA
ATOM     26  H   UNL     1     -30.377  29.606   6.849  0.00  0.00    +0.292 HD
ENDBRANCH  24  25
ENDBRANCH  17  19
ENDBRANCH   3  18
TORSDOF 7
ENDMDL
MODEL 3
REMARK VINA RESULT:      -6.5      4.297      8.124
REMARK  Name = 5281157
REMARK  7 active torsions:
REMARK  status: ('A' for Active; 'I' for Inactive)
REMARK    1  A    between atoms: N_2  and  C_5
REMARK    2  A    between atoms: C_3  and  C_18
REMARK    3  A    between atoms: C_6  and  C_14
REMARK    4  A    between atoms: C_9  and  O_11
REMARK    5  A    between atoms: C_14  and  O_15
REMARK    6  A    between atoms: C_17  and  C_19
REMARK    7  A    between atoms: C_24  and  O_25
REMARK                            x       y       z     vdW  Elec       q    Type
REMARK                         _______ _______ _______ _____ _____    ______ ____
ROOT
ATOM      1  O   UNL     1     -36.039  22.785   5.905  0.00  0.00    -0.270 OA
ATOM      2  N   UNL     1     -36.114  23.895   3.837  0.00  0.00    -0.280 N 
ATOM      3  C   UNL     1     -35.701  23.687   5.146  0.00  0.00    +0.250 C 
ATOM      4  H   UNL     1     -35.731  24.678   3.379  0.00  0.00    +0.155 HD
ENDROOT
BRANCH   2   5
ATOM      5  C   UNL     1     -37.022  23.109   3.087  0.00  0.00    +0.057 C 
ATOM      6  C   UNL     1     -38.294  23.583   2.811  0.00  0.00    +0.092 C 
ATOM      7  C   UNL     1     -36.604  21.865   2.642  0.00  0.00    +0.018 C 
ATOM      8  C   UNL     1     -39.173  22.792   2.071  0.00  0.00    +0.044 C 
ATOM      9  C   UNL     1     -38.767  21.537   1.617  0.00  0.00    +0.134 C 
ATOM     10  C   UNL     1     -37.482  21.074   1.901  0.00  0.00    +0.038 C 
BRANCH   9  11
ATOM     11  O   UNL     1     -39.623  20.766   0.893  0.00  0.00    -0.506 OA
ATOM     12  H   UNL     1     -40.433  20.484   1.270  0.00  0.00    +0.292 HD
ENDBRANCH   9  11
BRANCH   6  14
ATOM     13  O   UNL     1     -38.180  25.960   3.057  0.00  0.00    -0.245 OA
ATOM     14  C   UNL     1     -38.750  24.889   3.273  0.00  0.00    +0.339 C 
BRANCH  14  15
ATOM     15  O   UNL     1     -39.905  24.810   3.986  0.00  0.00    -0.477 OA
ATOM     16  H   UNL     1     -40.728  24.951   3.562  0.00  0.00    +0.295 HD
ENDBRANCH  14  15
ENDBRANCH   6  14
ENDBRANCH   2   5
BRANCH   3  18
ATOM     17  C   UNL     1     -34.396  25.753   4.744  0.00  0.00    +0.005 C 
ATOM     18  C   UNL     1     -34.732  24.741   5.576  0.00  0.00    +0.058 C 
BRANCH  17  19
ATOM     19  C   UNL     1     -33.461  26.821   5.056  0.00  0.00    +0.000 C 
ATOM     20  C   UNL     1     -33.025  27.683   4.050  0.00  0.00    +0.003 C 
ATOM     21  C   UNL     1     -33.001  26.986   6.363  0.00  0.00    +0.003 C 
ATOM     22  C   UNL     1     -32.129  28.709   4.350  0.00  0.00    +0.037 C 
ATOM     23  C   UNL     1     -32.105  28.011   6.663  0.00  0.00    +0.037 C 
ATOM     24  C   UNL     1     -31.668  28.873   5.657  0.00  0.00    +0.134 C 
BRANCH  24  25
ATOM     25  O   UNL     1     -30.794  29.875   5.949  0.00  0.00    -0.506 OA
ATOM     26  H   UNL     1     -31.015  30.514   6.597  0.00  0.00    +0.292 HD
ENDBRANCH  24  25
ENDBRANCH  17  19
ENDBRANCH   3  18
TORSDOF 7
ENDMDL
MODEL 4
REMARK VINA RESULT:      -6.3      1.714      2.120
REMARK  Name = 5281157
REMARK  7 active torsions:
REMARK  status: ('A' for Active; 'I' for Inactive)
REMARK    1  A    between atoms: N_2  and  C_5
REMARK    2  A    between atoms: C_3  and  C_18
REMARK    3  A    between atoms: C_6  and  C_14
REMARK    4  A    between atoms: C_9  and  O_11
REMARK    5  A    between atoms: C_14  and  O_15
REMARK    6  A    between atoms: C_17  and  C_19
REMARK    7  A    between atoms: C_24  and  O_25
REMARK                            x       y       z     vdW  Elec       q    Type
REMARK                         _______ _______ _______ _____ _____    ______ ____
ROOT
ATOM      1  O   UNL     1     -36.831  20.370   2.119  0.00  0.00    -0.270 OA
ATOM      2  N   UNL     1     -35.369  22.190   2.370  0.00  0.00    -0.280 N 
ATOM      3  C   UNL     1     -35.709  20.862   2.143  0.00  0.00    +0.250 C 
ATOM      4  H   UNL     1     -34.407  22.402   2.350  0.00  0.00    +0.155 HD
ENDROOT
BRANCH   2   5
ATOM      5  C   UNL     1     -36.248  23.271   2.625  0.00  0.00    +0.057 C 
ATOM      6  C   UNL     1     -36.364  23.789   3.904  0.00  0.00    +0.092 C 
ATOM      7  C   UNL     1     -36.979  23.787   1.567  0.00  0.00    +0.018 C 
ATOM      8  C   UNL     1     -37.237  24.853   4.133  0.00  0.00    +0.044 C 
ATOM      9  C   UNL     1     -37.980  25.385   3.078  0.00  0.00    +0.134 C 
ATOM     10  C   UNL     1     -37.850  24.853   1.796  0.00  0.00    +0.038 C 
BRANCH   9  11
ATOM     11  O   UNL     1     -38.829  26.424   3.301  0.00  0.00    -0.506 OA
ATOM     12  H   UNL     1     -39.374  26.741   2.607  0.00  0.00    +0.292 HD
ENDBRANCH   9  11
BRANCH   6  14
ATOM     13  O   UNL     1     -34.632  23.802   5.554  0.00  0.00    -0.245 OA
ATOM     14  C   UNL     1     -35.604  23.255   5.028  0.00  0.00    +0.339 C 
BRANCH  14  15
ATOM     15  O   UNL     1     -36.087  22.059   5.456  0.00  0.00    -0.477 OA
ATOM     16  H   UNL     1     -36.012  21.301   4.912  0.00  0.00    +0.295 HD
ENDBRANCH  14  15
ENDBRANCH   6  14
ENDBRANCH   2   5
BRANCH   3  18
ATOM     17  C   UNL     1     -33.599  20.357   0.949  0.00  0.00    +0.005 C 
ATOM     18  C   UNL     1     -34.490  20.029   1.913  0.00  0.00    +0.058 C 
BRANCH  17  19
ATOM     19  C   UNL     1     -32.389  19.614   0.636  0.00  0.00    +0.000 C 
ATOM     20  C   UNL     1     -32.218  18.320   1.126  0.00  0.00    +0.003 C 
ATOM     21  C   UNL     1     -31.400  20.196  -0.157  0.00  0.00    +0.003 C 
ATOM     22  C   UNL     1     -31.057  17.608   0.825  0.00  0.00    +0.037 C 
ATOM     23  C   UNL     1     -30.239  19.484  -0.459  0.00  0.00    +0.037 C 
ATOM     24  C   UNL     1     -30.068  18.190   0.033  0.00  0.00    +0.134 C 
BRANCH  24  25
ATOM     25  O   UNL     1     -28.935  17.494  -0.262  0.00  0.00    -0.506 OA
ATOM     26  H   UNL     1     -28.681  17.369  -1.155  0.00  0.00    +0.292 HD
ENDBRANCH  24  25
ENDBRANCH  17  19
ENDBRANCH   3  18
TORSDOF 7
ENDMDL
MODEL 5
REMARK VINA RESULT:      -6.1      4.807      7.805
REMARK  Name = 5281157
REMARK  7 active torsions:
REMARK  status: ('A' for Active; 'I' for Inactive)
REMARK    1  A    between atoms: N_2  and  C_5
REMARK    2  A    between atoms: C_3  and  C_18
REMARK    3  A    between atoms: C_6  and  C_14
REMARK    4  A    between atoms: C_9  and  O_11
REMARK    5  A    between atoms: C_14  and  O_15
REMARK    6  A    between atoms: C_17  and  C_19
REMARK    7  A    between atoms: C_24  and  O_25
REMARK                            x       y       z     vdW  Elec       q    Type
REMARK                         _______ _______ _______ _____ _____    ______ ____
ROOT
ATOM      1  O   UNL     1     -34.811  27.646   1.375  0.00  0.00    -0.270 OA
ATOM      2  N   UNL     1     -35.079  28.941   3.315  0.00  0.00    -0.280 N 
ATOM      3  C   UNL     1     -35.022  27.766   2.576  0.00  0.00    +0.250 C 
ATOM      4  H   UNL     1     -35.260  28.841   4.278  0.00  0.00    +0.155 HD
ENDROOT
BRANCH   2   5
ATOM      5  C   UNL     1     -34.907  30.264   2.841  0.00  0.00    +0.057 C 
ATOM      6  C   UNL     1     -33.735  30.953   3.102  0.00  0.00    +0.092 C 
ATOM      7  C   UNL     1     -35.938  30.841   2.115  0.00  0.00    +0.018 C 
ATOM      8  C   UNL     1     -33.588  32.256   2.625  0.00  0.00    +0.044 C 
ATOM      9  C   UNL     1     -34.615  32.851   1.893  0.00  0.00    +0.134 C 
ATOM     10  C   UNL     1     -35.790  32.144   1.637  0.00  0.00    +0.038 C 
BRANCH   9  11
ATOM     11  O   UNL     1     -34.471  34.121   1.426  0.00  0.00    -0.506 OA
ATOM     12  H   UNL     1     -33.787  34.668   1.758  0.00  0.00    +0.292 HD
ENDBRANCH   9  11
BRANCH   6  14
ATOM     13  O   UNL     1     -31.605  29.902   3.384  0.00  0.00    -0.245 OA
ATOM     14  C   UNL     1     -32.643  30.361   3.865  0.00  0.00    +0.339 C 
BRANCH  14  15
ATOM     15  O   UNL     1     -32.886  30.367   5.203  0.00  0.00    -0.477 OA
ATOM     16  H   UNL     1     -32.172  30.366   5.808  0.00  0.00    +0.295 HD
ENDBRANCH  14  15
ENDBRANCH   6  14
ENDBRANCH   2   5
BRANCH   3  18
ATOM     17  C   UNL     1     -34.847  25.344   3.061  0.00  0.00    +0.005 C 
ATOM     18  C   UNL     1     -35.257  26.574   3.447  0.00  0.00    +0.058 C 
BRANCH  17  19
ATOM     19  C   UNL     1     -35.032  24.120   3.823  0.00  0.00    +0.000 C 
ATOM     20  C   UNL     1     -34.941  24.144   5.215  0.00  0.00    +0.003 C 
ATOM     21  C   UNL     1     -35.302  22.921   3.163  0.00  0.00    +0.003 C 
ATOM     22  C   UNL     1     -35.119  22.970   5.946  0.00  0.00    +0.037 C 
ATOM     23  C   UNL     1     -35.480  21.747   3.894  0.00  0.00    +0.037 C 
ATOM     24  C   UNL     1     -35.388  21.771   5.285  0.00  0.00    +0.134 C 
BRANCH  24  25
ATOM     25  O   UNL     1     -35.563  20.625   6.000  0.00  0.00    -0.506 OA
ATOM     26  H   UNL     1     -35.004  20.438   6.729  0.00  0.00    +0.292 HD
ENDBRANCH  24  25
ENDBRANCH  17  19
ENDBRANCH   3  18
TORSDOF 7
ENDMDL
MODEL 6
REMARK VINA RESULT:      -5.9      1.675      2.254
REMARK  Name = 5281157
REMARK  7 active torsions:
REMARK  status: ('A' for Active; 'I' for Inactive)
REMARK    1  A    between atoms: N_2  and  C_5
REMARK    2  A    between atoms: C_3  and  C_18
REMARK    3  A    between atoms: C_6  and  C_14
REMARK    4  A    between atoms: C_9  and  O_11
REMARK    5  A    between atoms: C_14  and  O_15
REMARK    6  A    between atoms: C_17  and  C_19
REMARK    7  A    between atoms: C_24  and  O_25
REMARK                            x       y       z     vdW  Elec       q    Type
REMARK                         _______ _______ _______ _____ _____    ______ ____
ROOT
ATOM      1  O   UNL     1     -34.497  22.614   0.956  0.00  0.00    -0.270 OA
ATOM      2  N   UNL     1     -35.417  21.861   2.981  0.00  0.00    -0.280 N 
ATOM      3  C   UNL     1     -34.840  21.723   1.725  0.00  0.00    +0.250 C 
ATOM      4  H   UNL     1     -35.626  21.025   3.458  0.00  0.00    +0.155 HD
ENDROOT
BRANCH   2   5
ATOM      5  C   UNL     1     -35.740  23.066   3.651  0.00  0.00    +0.057 C 
ATOM      6  C   UNL     1     -36.929  23.720   3.378  0.00  0.00    +0.092 C 
ATOM      7  C   UNL     1     -34.838  23.564   4.578  0.00  0.00    +0.018 C 
ATOM      8  C   UNL     1     -37.226  24.907   4.050  0.00  0.00    +0.044 C 
ATOM      9  C   UNL     1     -36.329  25.421   4.986  0.00  0.00    +0.134 C 
ATOM     10  C   UNL     1     -35.135  24.749   5.251  0.00  0.00    +0.038 C 
BRANCH   9  11
ATOM     11  O   UNL     1     -36.619  26.577   5.643  0.00  0.00    -0.506 OA
ATOM     12  H   UNL     1     -36.020  26.918   6.278  0.00  0.00    +0.292 HD
ENDBRANCH   9  11
BRANCH   6  14
ATOM     13  O   UNL     1     -38.339  23.846   1.449  0.00  0.00    -0.245 OA
ATOM     14  C   UNL     1     -37.887  23.211   2.404  0.00  0.00    +0.339 C 
BRANCH  14  15
ATOM     15  O   UNL     1     -38.245  21.924   2.657  0.00  0.00    -0.477 OA
ATOM     16  H   UNL     1     -38.227  21.289   1.969  0.00  0.00    +0.295 HD
ENDBRANCH  14  15
ENDBRANCH   6  14
ENDBRANCH   2   5
BRANCH   3  18
ATOM     17  C   UNL     1     -33.448  19.803   1.012  0.00  0.00    +0.005 C 
ATOM     18  C   UNL     1     -34.661  20.282   1.373  0.00  0.00    +0.058 C 
BRANCH  17  19
ATOM     19  C   UNL     1     -33.165  18.425   0.644  0.00  0.00    +0.000 C 
ATOM     20  C   UNL     1     -31.857  17.944   0.695  0.00  0.00    +0.003 C 
ATOM     21  C   UNL     1     -34.202  17.584   0.240  0.00  0.00    +0.003 C 
ATOM     22  C   UNL     1     -31.586  16.622   0.342  0.00  0.00    +0.037 C 
ATOM     23  C   UNL     1     -33.931  16.263  -0.113  0.00  0.00    +0.037 C 
ATOM     24  C   UNL     1     -32.623  15.782  -0.063  0.00  0.00    +0.134 C 
BRANCH  24  25
ATOM     25  O   UNL     1     -32.358  14.491  -0.406  0.00  0.00    -0.506 OA
ATOM     26  H   UNL     1     -32.927  14.038  -0.997  0.00  0.00    +0.292 HD
ENDBRANCH  24  25
ENDBRANCH  17  19
ENDBRANCH   3  18
TORSDOF 7
ENDMDL
MODEL 7
REMARK VINA RESULT:      -5.9      2.682      3.289
REMARK  Name = 5281157
REMARK  7 active torsions:
REMARK  status: ('A' for Active; 'I' for Inactive)
REMARK    1  A    between atoms: N_2  and  C_5
REMARK    2  A    between atoms: C_3  and  C_18
REMARK    3  A    between atoms: C_6  and  C_14
REMARK    4  A    between atoms: C_9  and  O_11
REMARK    5  A    between atoms: C_14  and  O_15
REMARK    6  A    between atoms: C_17  and  C_19
REMARK    7  A    between atoms: C_24  and  O_25
REMARK                            x       y       z     vdW  Elec       q    Type
REMARK                         _______ _______ _______ _____ _____    ______ ____
ROOT
ATOM      1  O   UNL     1     -35.566  23.085   0.516  0.00  0.00    -0.270 OA
ATOM      2  N   UNL     1     -36.633  22.207   2.415  0.00  0.00    -0.280 N 
ATOM      3  C   UNL     1     -35.692  22.239   1.394  0.00  0.00    +0.250 C 
ATOM      4  H   UNL     1     -36.579  21.443   3.034  0.00  0.00    +0.155 HD
ENDROOT
BRANCH   2   5
ATOM      5  C   UNL     1     -37.659  23.150   2.667  0.00  0.00    +0.057 C 
ATOM      6  C   UNL     1     -38.965  22.877   2.294  0.00  0.00    +0.092 C 
ATOM      7  C   UNL     1     -37.320  24.340   3.291  0.00  0.00    +0.018 C 
ATOM      8  C   UNL     1     -39.960  23.820   2.552  0.00  0.00    +0.044 C 
ATOM      9  C   UNL     1     -39.635  25.023   3.179  0.00  0.00    +0.134 C 
ATOM     10  C   UNL     1     -38.316  25.283   3.549  0.00  0.00    +0.038 C 
BRANCH   9  11
ATOM     11  O   UNL     1     -40.606  25.942   3.433  0.00  0.00    -0.506 OA
ATOM     12  H   UNL     1     -40.963  26.453   2.732  0.00  0.00    +0.292 HD
ENDBRANCH   9  11
BRANCH   6  14
ATOM     13  O   UNL     1     -38.833  21.194   0.599  0.00  0.00    -0.245 OA
ATOM     14  C   UNL     1     -39.337  21.631   1.636  0.00  0.00    +0.339 C 
BRANCH  14  15
ATOM     15  O   UNL     1     -40.325  20.972   2.299  0.00  0.00    -0.477 OA
ATOM     16  H   UNL     1     -41.218  21.085   2.041  0.00  0.00    +0.295 HD
ENDBRANCH  14  15
ENDBRANCH   6  14
ENDBRANCH   2   5
BRANCH   3  18
ATOM     17  C   UNL     1     -33.693  20.969   0.668  0.00  0.00    +0.005 C 
ATOM     18  C   UNL     1     -34.778  21.059   1.471  0.00  0.00    +0.058 C 
BRANCH  17  19
ATOM     19  C   UNL     1     -32.747  19.866   0.655  0.00  0.00    +0.000 C 
ATOM     20  C   UNL     1     -31.504  20.019   0.040  0.00  0.00    +0.003 C 
ATOM     21  C   UNL     1     -33.081  18.654   1.259  0.00  0.00    +0.003 C 
ATOM     22  C   UNL     1     -30.597  18.961   0.028  0.00  0.00    +0.037 C 
ATOM     23  C   UNL     1     -32.173  17.595   1.248  0.00  0.00    +0.037 C 
ATOM     24  C   UNL     1     -30.931  17.748   0.632  0.00  0.00    +0.134 C 
BRANCH  24  25
ATOM     25  O   UNL     1     -30.044  16.715   0.621  0.00  0.00    -0.506 OA
ATOM     26  H   UNL     1     -29.408  16.637   1.304  0.00  0.00    +0.292 HD
ENDBRANCH  24  25
ENDBRANCH  17  19
ENDBRANCH   3  18
TORSDOF 7
ENDMDL
MODEL 8
REMARK VINA RESULT:      -5.8      5.628     10.638
REMARK  Name = 5281157
REMARK  7 active torsions:
REMARK  status: ('A' for Active; 'I' for Inactive)
REMARK    1  A    between atoms: N_2  and  C_5
REMARK    2  A    between atoms: C_3  and  C_18
REMARK    3  A    between atoms: C_6  and  C_14
REMARK    4  A    between atoms: C_9  and  O_11
REMARK    5  A    between atoms: C_14  and  O_15
REMARK    6  A    between atoms: C_17  and  C_19
REMARK    7  A    between atoms: C_24  and  O_25
REMARK                            x       y       z     vdW  Elec       q    Type
REMARK                         _______ _______ _______ _____ _____    ______ ____
ROOT
ATOM      1  O   UNL     1     -34.220  27.453   1.775  0.00  0.00    -0.270 OA
ATOM      2  N   UNL     1     -35.521  27.672   3.718  0.00  0.00    -0.280 N 
ATOM      3  C   UNL     1     -34.839  28.122   2.595  0.00  0.00    +0.250 C 
ATOM      4  H   UNL     1     -35.965  28.361   4.263  0.00  0.00    +0.155 HD
ENDROOT
BRANCH   2   5
ATOM      5  C   UNL     1     -35.649  26.335   4.167  0.00  0.00    +0.057 C 
ATOM      6  C   UNL     1     -34.702  25.790   5.017  0.00  0.00    +0.092 C 
ATOM      7  C   UNL     1     -36.740  25.598   3.733  0.00  0.00    +0.018 C 
ATOM      8  C   UNL     1     -34.848  24.470   5.447  0.00  0.00    +0.044 C 
ATOM      9  C   UNL     1     -35.940  23.715   5.019  0.00  0.00    +0.134 C 
ATOM     10  C   UNL     1     -36.887  24.279   4.164  0.00  0.00    +0.038 C 
BRANCH   9  11
ATOM     11  O   UNL     1     -36.084  22.429   5.439  0.00  0.00    -0.506 OA
ATOM     12  H   UNL     1     -36.222  22.245   6.348  0.00  0.00    +0.292 HD
ENDBRANCH   9  11
BRANCH   6  14
ATOM     13  O   UNL     1     -33.354  26.914   6.643  0.00  0.00    -0.245 OA
ATOM     14  C   UNL     1     -33.548  26.551   5.481  0.00  0.00    +0.339 C 
BRANCH  14  15
ATOM     15  O   UNL     1     -32.676  26.830   4.476  0.00  0.00    -0.477 OA
ATOM     16  H   UNL     1     -32.787  26.433   3.635  0.00  0.00    +0.295 HD
ENDBRANCH  14  15
ENDBRANCH   6  14
ENDBRANCH   2   5
BRANCH   3  18
ATOM     17  C   UNL     1     -35.969  30.176   1.796  0.00  0.00    +0.005 C 
ATOM     18  C   UNL     1     -34.940  29.608   2.467  0.00  0.00    +0.058 C 
BRANCH  17  19
ATOM     19  C   UNL     1     -36.159  31.605   1.605  0.00  0.00    +0.000 C 
ATOM     20  C   UNL     1     -35.058  32.431   1.379  0.00  0.00    +0.003 C 
ATOM     21  C   UNL     1     -37.443  32.149   1.645  0.00  0.00    +0.003 C 
ATOM     22  C   UNL     1     -35.241  33.802   1.195  0.00  0.00    +0.037 C 
ATOM     23  C   UNL     1     -37.626  33.519   1.460  0.00  0.00    +0.037 C 
ATOM     24  C   UNL     1     -36.525  34.346   1.236  0.00  0.00    +0.134 C 
BRANCH  24  25
ATOM     25  O   UNL     1     -36.703  35.684   1.055  0.00  0.00    -0.506 OA
ATOM     26  H   UNL     1     -36.413  36.287   1.710  0.00  0.00    +0.292 HD
ENDBRANCH  24  25
ENDBRANCH  17  19
ENDBRANCH   3  18
TORSDOF 7
ENDMDL
MODEL 9
REMARK VINA RESULT:      -5.8      2.415      2.985
REMARK  Name = 5281157
REMARK  7 active torsions:
REMARK  status: ('A' for Active; 'I' for Inactive)
REMARK    1  A    between atoms: N_2  and  C_5
REMARK    2  A    between atoms: C_3  and  C_18
REMARK    3  A    between atoms: C_6  and  C_14
REMARK    4  A    between atoms: C_9  and  O_11
REMARK    5  A    between atoms: C_14  and  O_15
REMARK    6  A    between atoms: C_17  and  C_19
REMARK    7  A    between atoms: C_24  and  O_25
REMARK                            x       y       z     vdW  Elec       q    Type
REMARK                         _______ _______ _______ _____ _____    ______ ____
ROOT
ATOM      1  O   UNL     1     -35.224  21.838   1.012  0.00  0.00    -0.270 OA
ATOM      2  N   UNL     1     -36.864  21.731   2.690  0.00  0.00    -0.280 N 
ATOM      3  C   UNL     1     -36.130  21.265   1.607  0.00  0.00    +0.250 C 
ATOM      4  H   UNL     1     -37.557  21.126   3.039  0.00  0.00    +0.155 HD
ENDROOT
BRANCH   2   5
ATOM      5  C   UNL     1     -36.727  22.978   3.347  0.00  0.00    +0.057 C 
ATOM      6  C   UNL     1     -36.134  23.047   4.597  0.00  0.00    +0.092 C 
ATOM      7  C   UNL     1     -37.201  24.113   2.709  0.00  0.00    +0.018 C 
ATOM      8  C   UNL     1     -36.010  24.286   5.226  0.00  0.00    +0.044 C 
ATOM      9  C   UNL     1     -36.482  25.438   4.597  0.00  0.00    +0.134 C 
ATOM     10  C   UNL     1     -37.076  25.352   3.338  0.00  0.00    +0.038 C 
BRANCH   9  11
ATOM     11  O   UNL     1     -36.359  26.647   5.210  0.00  0.00    -0.506 OA
ATOM     12  H   UNL     1     -36.231  27.422   4.698  0.00  0.00    +0.292 HD
ENDBRANCH   9  11
BRANCH   6  14
ATOM     13  O   UNL     1     -34.902  21.005   4.782  0.00  0.00    -0.245 OA
ATOM     14  C   UNL     1     -35.633  21.862   5.282  0.00  0.00    +0.339 C 
BRANCH  14  15
ATOM     15  O   UNL     1     -36.061  21.792   6.571  0.00  0.00    -0.477 OA
ATOM     16  H   UNL     1     -36.227  20.958   6.964  0.00  0.00    +0.295 HD
ENDBRANCH  14  15
ENDBRANCH   6  14
ENDBRANCH   2   5
BRANCH   3  18
ATOM     17  C   UNL     1     -35.923  19.207   0.243  0.00  0.00    +0.005 C 
ATOM     18  C   UNL     1     -36.580  19.897   1.205  0.00  0.00    +0.058 C 
BRANCH  17  19
ATOM     19  C   UNL     1     -36.279  17.879  -0.229  0.00  0.00    +0.000 C 
ATOM     20  C   UNL     1     -37.578  17.402  -0.055  0.00  0.00    +0.003 C 
ATOM     21  C   UNL     1     -35.322  17.083  -0.857  0.00  0.00    +0.003 C 
ATOM     22  C   UNL     1     -37.919  16.128  -0.509  0.00  0.00    +0.037 C 
ATOM     23  C   UNL     1     -35.663  15.809  -1.311  0.00  0.00    +0.037 C 
ATOM     24  C   UNL     1     -36.962  15.331  -1.136  0.00  0.00    +0.134 C 
BRANCH  24  25
ATOM     25  O   UNL     1     -37.296  14.088  -1.580  0.00  0.00    -0.506 OA
ATOM     26  H   UNL     1     -38.197  13.850  -1.672  0.00  0.00    +0.292 HD
ENDBRANCH  24  25
ENDBRANCH  17  19
ENDBRANCH   3  18
TORSDOF 7
ENDMDL
