MODEL 1
REMARK VINA RESULT:      -6.3      0.000      0.000
REMARK  Name = 54749500
REMARK  8 active torsions:
REMARK  status: ('A' for Active; 'I' for Inactive)
REMARK    1  A    between atoms: C_4  and  C_12
REMARK    2  A    between atoms: C_4  and  O_21
REMARK    3  A    between atoms: C_6  and  C_23
REMARK    4  A    between atoms: C_23  and  C_24
REMARK    5  A    between atoms: C_24  and  C_25
REMARK    6  A    between atoms: C_24  and  O_28
REMARK    7  A    between atoms: C_24  and  C_31
REMARK    8  A    between atoms: C_31  and  O_32
REMARK                            x       y       z     vdW  Elec       q    Type
REMARK                         _______ _______ _______ _____ _____    ______ ____
ROOT
ATOM      1  O   UNL     1     -35.387  20.281   2.838  0.00  0.00    -0.289 OA
ATOM      2  O   UNL     1     -33.798  21.843  -1.310  0.00  0.00    -0.270 OA
ATOM      3  N   UNL     1     -35.096  22.795   0.431  0.00  0.00    -0.269 N 
ATOM      4  C   UNL     1     -33.802  19.473   0.473  0.00  0.00    +0.118 C 
ATOM      5  C   UNL     1     -34.387  20.656   0.691  0.00  0.00    +0.119 C 
ATOM      6  C   UNL     1     -35.653  22.445   1.749  0.00  0.00    +0.141 C 
ATOM      7  C   UNL     1     -35.171  21.016   1.889  0.00  0.00    +0.198 C 
ATOM      8  C   UNL     1     -34.353  21.808  -0.226  0.00  0.00    +0.255 C 
ATOM      9  C   UNL     1     -35.309  24.103  -0.159  0.00  0.00    +0.116 C 
ENDROOT
BRANCH   4  12
ATOM     10  C   UNL     1     -31.802  18.229  -0.506  0.00  0.00    +0.011 C 
ATOM     11  C   UNL     1     -30.959  18.112  -1.803  0.00  0.00    +0.022 C 
ATOM     12  C   UNL     1     -33.022  19.148  -0.766  0.00  0.00    +0.061 C 
ATOM     13  C   UNL     1     -30.887  18.692   0.642  0.00  0.00    +0.001 C 
ATOM     14  C   UNL     1     -33.930  18.549  -1.884  0.00  0.00    +0.029 C 
ATOM     15  C   UNL     1     -29.840  17.080  -1.606  0.00  0.00    +0.004 C 
ATOM     16  C   UNL     1     -29.724  17.718   0.845  0.00  0.00    +0.000 C 
ATOM     17  C   UNL     1     -28.936  17.478  -0.439  0.00  0.00    +0.000 C 
ATOM     18  C   UNL     1     -31.803  17.812  -3.011  0.00  0.00    -0.031 C 
ATOM     19  C   UNL     1     -33.128  18.011  -3.045  0.00  0.00    -0.031 C 
ATOM     20  C   UNL     1     -34.874  17.438  -1.400  0.00  0.00    +0.005 C 
ENDBRANCH   4  12
BRANCH   4  21
ATOM     21  O   UNL     1     -33.898  18.467   1.416  0.00  0.00    -0.510 OA
ATOM     22  H   UNL     1     -33.370  17.698   1.335  0.00  0.00    +0.292 HD
ENDBRANCH   4  21
BRANCH   6  23
ATOM     23  C   UNL     1     -35.121  23.311   2.877  0.00  0.00    +0.066 C 
BRANCH  23  24
ATOM     24  C   UNL     1     -36.150  23.650   3.990  0.00  0.00    +0.179 C 
BRANCH  24  25
ATOM     25  C   UNL     1     -35.456  23.829   5.377  0.00  0.00    +0.035 C 
ATOM     26  C   UNL     1     -35.120  22.489   6.053  0.00  0.00    +0.003 C 
ATOM     27  C   UNL     1     -34.202  24.708   5.352  0.00  0.00    +0.003 C 
ENDBRANCH  24  25
BRANCH  24  28
ATOM     28  O   UNL     1     -37.046  22.547   4.116  0.00  0.00    -0.376 OA
ATOM     29  H   UNL     1     -37.228  22.384   5.055  0.00  0.00    +0.211 HD
ENDBRANCH  24  28
BRANCH  24  31
ATOM     30  O   UNL     1     -36.536  25.767   2.832  0.00  0.00    -0.248 OA
ATOM     31  C   UNL     1     -36.936  24.911   3.611  0.00  0.00    +0.338 C 
BRANCH  31  32
ATOM     32  O   UNL     1     -38.149  24.989   4.217  0.00  0.00    -0.479 OA
ATOM     33  H   UNL     1     -38.215  25.314   5.093  0.00  0.00    +0.295 HD
ENDBRANCH  31  32
ENDBRANCH  24  31
ENDBRANCH  23  24
ENDBRANCH   6  23
TORSDOF 8
ENDMDL
MODEL 2
REMARK VINA RESULT:      -6.1      5.571     10.085
REMARK  Name = 54749500
REMARK  8 active torsions:
REMARK  status: ('A' for Active; 'I' for Inactive)
REMARK    1  A    between atoms: C_4  and  C_12
REMARK    2  A    between atoms: C_4  and  O_21
REMARK    3  A    between atoms: C_6  and  C_23
REMARK    4  A    between atoms: C_23  and  C_24
REMARK    5  A    between atoms: C_24  and  C_25
REMARK    6  A    between atoms: C_24  and  O_28
REMARK    7  A    between atoms: C_24  and  C_31
REMARK    8  A    between atoms: C_31  and  O_32
REMARK                            x       y       z     vdW  Elec       q    Type
REMARK                         _______ _______ _______ _____ _____    ______ ____
ROOT
ATOM      1  O   UNL     1     -37.955  26.598   2.578  0.00  0.00    -0.289 OA
ATOM      2  O   UNL     1     -40.737  22.958   1.493  0.00  0.00    -0.270 OA
ATOM      3  N   UNL     1     -38.495  23.164   2.235  0.00  0.00    -0.269 N 
ATOM      4  C   UNL     1     -40.687  25.918   1.665  0.00  0.00    +0.118 C 
ATOM      5  C   UNL     1     -39.690  25.070   1.944  0.00  0.00    +0.119 C 
ATOM      6  C   UNL     1     -37.518  24.200   2.609  0.00  0.00    +0.141 C 
ATOM      7  C   UNL     1     -38.339  25.454   2.398  0.00  0.00    +0.198 C 
ATOM      8  C   UNL     1     -39.766  23.602   1.847  0.00  0.00    +0.255 C 
ATOM      9  C   UNL     1     -38.155  21.754   2.266  0.00  0.00    +0.116 C 
ENDROOT
BRANCH   4  12
ATOM     10  C   UNL     1     -43.204  26.303   1.810  0.00  0.00    +0.011 C 
ATOM     11  C   UNL     1     -44.557  25.656   1.418  0.00  0.00    +0.022 C 
ATOM     12  C   UNL     1     -42.043  25.482   1.196  0.00  0.00    +0.061 C 
ATOM     13  C   UNL     1     -43.145  26.445   3.342  0.00  0.00    +0.001 C 
ATOM     14  C   UNL     1     -42.144  25.470  -0.361  0.00  0.00    +0.029 C 
ATOM     15  C   UNL     1     -45.717  26.547   1.885  0.00  0.00    +0.004 C 
ATOM     16  C   UNL     1     -44.313  27.287   3.861  0.00  0.00    +0.000 C 
ATOM     17  C   UNL     1     -45.665  26.754   3.398  0.00  0.00    +0.000 C 
ATOM     18  C   UNL     1     -44.638  25.338  -0.050  0.00  0.00    -0.031 C 
ATOM     19  C   UNL     1     -43.559  25.253  -0.840  0.00  0.00    -0.031 C 
ATOM     20  C   UNL     1     -41.600  26.738  -1.036  0.00  0.00    +0.005 C 
ENDBRANCH   4  12
BRANCH   4  21
ATOM     21  O   UNL     1     -40.497  27.280   1.801  0.00  0.00    -0.510 OA
ATOM     22  H   UNL     1     -39.702  27.674   1.501  0.00  0.00    +0.292 HD
ENDBRANCH   4  21
BRANCH   6  23
ATOM     23  C   UNL     1     -37.048  24.094   4.049  0.00  0.00    +0.066 C 
BRANCH  23  24
ATOM     24  C   UNL     1     -35.608  23.546   4.235  0.00  0.00    +0.179 C 
BRANCH  24  25
ATOM     25  C   UNL     1     -34.655  24.626   4.838  0.00  0.00    +0.035 C 
ATOM     26  C   UNL     1     -33.722  25.252   3.788  0.00  0.00    +0.003 C 
ATOM     27  C   UNL     1     -35.369  25.744   5.606  0.00  0.00    +0.003 C 
ENDBRANCH  24  25
BRANCH  24  28
ATOM     28  O   UNL     1     -35.090  23.213   2.948  0.00  0.00    -0.376 OA
ATOM     29  H   UNL     1     -34.143  23.017   3.021  0.00  0.00    +0.211 HD
ENDBRANCH  24  28
BRANCH  24  31
ATOM     30  O   UNL     1     -35.829  22.305   6.328  0.00  0.00    -0.248 OA
ATOM     31  C   UNL     1     -35.633  22.294   5.119  0.00  0.00    +0.338 C 
BRANCH  31  32
ATOM     32  O   UNL     1     -35.431  21.144   4.426  0.00  0.00    -0.479 OA
ATOM     33  H   UNL     1     -34.576  20.763   4.389  0.00  0.00    +0.295 HD
ENDBRANCH  31  32
ENDBRANCH  24  31
ENDBRANCH  23  24
ENDBRANCH   6  23
TORSDOF 8
ENDMDL
MODEL 3
REMARK VINA RESULT:      -6.1      5.528      8.561
REMARK  Name = 54749500
REMARK  8 active torsions:
REMARK  status: ('A' for Active; 'I' for Inactive)
REMARK    1  A    between atoms: C_4  and  C_12
REMARK    2  A    between atoms: C_4  and  O_21
REMARK    3  A    between atoms: C_6  and  C_23
REMARK    4  A    between atoms: C_23  and  C_24
REMARK    5  A    between atoms: C_24  and  C_25
REMARK    6  A    between atoms: C_24  and  O_28
REMARK    7  A    between atoms: C_24  and  C_31
REMARK    8  A    between atoms: C_31  and  O_32
REMARK                            x       y       z     vdW  Elec       q    Type
REMARK                         _______ _______ _______ _____ _____    ______ ____
ROOT
ATOM      1  O   UNL     1     -32.686  28.965   5.104  0.00  0.00    -0.289 OA
ATOM      2  O   UNL     1     -31.550  25.770   1.837  0.00  0.00    -0.270 OA
ATOM      3  N   UNL     1     -30.406  27.585   2.846  0.00  0.00    -0.269 N 
ATOM      4  C   UNL     1     -33.751  26.631   3.628  0.00  0.00    +0.118 C 
ATOM      5  C   UNL     1     -32.535  27.177   3.513  0.00  0.00    +0.119 C 
ATOM      6  C   UNL     1     -30.619  28.638   3.854  0.00  0.00    +0.141 C 
ATOM      7  C   UNL     1     -32.045  28.345   4.271  0.00  0.00    +0.198 C 
ATOM      8  C   UNL     1     -31.471  26.709   2.609  0.00  0.00    +0.255 C 
ATOM      9  C   UNL     1     -29.149  27.462   2.132  0.00  0.00    +0.116 C 
ENDROOT
BRANCH   4  12
ATOM     10  C   UNL     1     -34.971  24.391   3.667  0.00  0.00    +0.011 C 
ATOM     11  C   UNL     1     -35.229  23.132   2.799  0.00  0.00    +0.022 C 
ATOM     12  C   UNL     1     -34.210  25.448   2.828  0.00  0.00    +0.061 C 
ATOM     13  C   UNL     1     -34.252  23.965   4.960  0.00  0.00    +0.001 C 
ATOM     14  C   UNL     1     -35.055  25.877   1.590  0.00  0.00    +0.029 C 
ATOM     15  C   UNL     1     -36.120  22.144   3.564  0.00  0.00    +0.004 C 
ATOM     16  C   UNL     1     -35.082  22.939   5.736  0.00  0.00    +0.000 C 
ATOM     17  C   UNL     1     -35.463  21.734   4.883  0.00  0.00    +0.000 C 
ATOM     18  C   UNL     1     -35.791  23.474   1.445  0.00  0.00    -0.031 C 
ATOM     19  C   UNL     1     -35.709  24.698   0.908  0.00  0.00    -0.031 C 
ATOM     20  C   UNL     1     -36.146  26.913   1.901  0.00  0.00    +0.005 C 
ENDBRANCH   4  12
BRANCH   4  21
ATOM     21  O   UNL     1     -34.665  27.156   4.521  0.00  0.00    -0.510 OA
ATOM     22  H   UNL     1     -35.277  26.592   4.951  0.00  0.00    +0.292 HD
ENDBRANCH   4  21
BRANCH   6  23
ATOM     23  C   UNL     1     -29.674  28.540   5.037  0.00  0.00    +0.066 C 
BRANCH  23  24
ATOM     24  C   UNL     1     -29.564  29.824   5.903  0.00  0.00    +0.179 C 
BRANCH  24  25
ATOM     25  C   UNL     1     -28.179  29.920   6.615  0.00  0.00    +0.035 C 
ATOM     26  C   UNL     1     -28.257  29.604   8.118  0.00  0.00    +0.003 C 
ATOM     27  C   UNL     1     -27.077  29.066   5.979  0.00  0.00    +0.003 C 
ENDBRANCH  24  25
BRANCH  24  28
ATOM     28  O   UNL     1     -30.552  29.752   6.931  0.00  0.00    -0.376 OA
ATOM     29  H   UNL     1     -31.432  29.685   6.529  0.00  0.00    +0.211 HD
ENDBRANCH  24  28
BRANCH  24  31
ATOM     30  O   UNL     1     -28.991  31.547   4.268  0.00  0.00    -0.248 OA
ATOM     31  C   UNL     1     -29.814  31.064   5.036  0.00  0.00    +0.338 C 
BRANCH  31  32
ATOM     32  O   UNL     1     -31.061  31.581   5.186  0.00  0.00    -0.479 OA
ATOM     33  H   UNL     1     -31.174  32.502   5.309  0.00  0.00    +0.295 HD
ENDBRANCH  31  32
ENDBRANCH  24  31
ENDBRANCH  23  24
ENDBRANCH   6  23
TORSDOF 8
ENDMDL
MODEL 4
REMARK VINA RESULT:      -6.0      4.540      7.148
REMARK  Name = 54749500
REMARK  8 active torsions:
REMARK  status: ('A' for Active; 'I' for Inactive)
REMARK    1  A    between atoms: C_4  and  C_12
REMARK    2  A    between atoms: C_4  and  O_21
REMARK    3  A    between atoms: C_6  and  C_23
REMARK    4  A    between atoms: C_23  and  C_24
REMARK    5  A    between atoms: C_24  and  C_25
REMARK    6  A    between atoms: C_24  and  O_28
REMARK    7  A    between atoms: C_24  and  C_31
REMARK    8  A    between atoms: C_31  and  O_32
REMARK                            x       y       z     vdW  Elec       q    Type
REMARK                         _______ _______ _______ _____ _____    ______ ____
ROOT
ATOM      1  O   UNL     1     -35.649  26.525   5.336  0.00  0.00    -0.289 OA
ATOM      2  O   UNL     1     -35.601  25.843   0.677  0.00  0.00    -0.270 OA
ATOM      3  N   UNL     1     -34.367  27.220   2.161  0.00  0.00    -0.269 N 
ATOM      4  C   UNL     1     -36.943  24.972   3.175  0.00  0.00    +0.118 C 
ATOM      5  C   UNL     1     -35.960  25.871   3.050  0.00  0.00    +0.119 C 
ATOM      6  C   UNL     1     -34.266  27.530   3.597  0.00  0.00    +0.141 C 
ATOM      7  C   UNL     1     -35.342  26.625   4.159  0.00  0.00    +0.198 C 
ATOM      8  C   UNL     1     -35.321  26.268   1.784  0.00  0.00    +0.255 C 
ATOM      9  C   UNL     1     -33.517  27.871   1.183  0.00  0.00    +0.116 C 
ENDROOT
BRANCH   4  12
ATOM     10  C   UNL     1     -37.390  22.698   2.109  0.00  0.00    +0.011 C 
ATOM     11  C   UNL     1     -37.871  22.049   0.785  0.00  0.00    +0.022 C 
ATOM     12  C   UNL     1     -37.548  24.236   2.016  0.00  0.00    +0.061 C 
ATOM     13  C   UNL     1     -35.957  22.220   2.407  0.00  0.00    +0.001 C 
ATOM     14  C   UNL     1     -39.044  24.621   1.801  0.00  0.00    +0.029 C 
ATOM     15  C   UNL     1     -37.870  20.521   0.923  0.00  0.00    +0.004 C 
ATOM     16  C   UNL     1     -35.897  20.694   2.504  0.00  0.00    +0.000 C 
ATOM     17  C   UNL     1     -36.472  20.009   1.269  0.00  0.00    +0.000 C 
ATOM     18  C   UNL     1     -39.205  22.580   0.337  0.00  0.00    -0.031 C 
ATOM     19  C   UNL     1     -39.724  23.729   0.789  0.00  0.00    -0.031 C 
ATOM     20  C   UNL     1     -39.886  24.615   3.085  0.00  0.00    +0.005 C 
ENDBRANCH   4  12
BRANCH   4  21
ATOM     21  O   UNL     1     -37.459  24.677   4.422  0.00  0.00    -0.510 OA
ATOM     22  H   UNL     1     -37.564  23.784   4.686  0.00  0.00    +0.292 HD
ENDBRANCH   4  21
BRANCH   6  23
ATOM     23  C   UNL     1     -32.910  27.197   4.192  0.00  0.00    +0.066 C 
BRANCH  23  24
ATOM     24  C   UNL     1     -32.108  28.414   4.728  0.00  0.00    +0.179 C 
BRANCH  24  25
ATOM     25  C   UNL     1     -31.731  28.235   6.233  0.00  0.00    +0.035 C 
ATOM     26  C   UNL     1     -31.644  29.571   6.989  0.00  0.00    +0.003 C 
ATOM     27  C   UNL     1     -32.643  27.277   7.006  0.00  0.00    +0.003 C 
ENDBRANCH  24  25
BRANCH  24  28
ATOM     28  O   UNL     1     -32.945  29.567   4.648  0.00  0.00    -0.376 OA
ATOM     29  H   UNL     1     -32.570  30.194   4.009  0.00  0.00    +0.211 HD
ENDBRANCH  24  28
BRANCH  24  31
ATOM     30  O   UNL     1     -30.660  29.605   3.162  0.00  0.00    -0.248 OA
ATOM     31  C   UNL     1     -30.851  28.629   3.877  0.00  0.00    +0.338 C 
BRANCH  31  32
ATOM     32  O   UNL     1     -29.941  27.630   4.001  0.00  0.00    -0.479 OA
ATOM     33  H   UNL     1     -30.194  26.810   4.377  0.00  0.00    +0.295 HD
ENDBRANCH  31  32
ENDBRANCH  24  31
ENDBRANCH  23  24
ENDBRANCH   6  23
TORSDOF 8
ENDMDL
MODEL 5
REMARK VINA RESULT:      -6.0      1.744      2.267
REMARK  Name = 54749500
REMARK  8 active torsions:
REMARK  status: ('A' for Active; 'I' for Inactive)
REMARK    1  A    between atoms: C_4  and  C_12
REMARK    2  A    between atoms: C_4  and  O_21
REMARK    3  A    between atoms: C_6  and  C_23
REMARK    4  A    between atoms: C_23  and  C_24
REMARK    5  A    between atoms: C_24  and  C_25
REMARK    6  A    between atoms: C_24  and  O_28
REMARK    7  A    between atoms: C_24  and  C_31
REMARK    8  A    between atoms: C_31  and  O_32
REMARK                            x       y       z     vdW  Elec       q    Type
REMARK                         _______ _______ _______ _____ _____    ______ ____
ROOT
ATOM      1  O   UNL     1     -37.101  21.954   2.955  0.00  0.00    -0.289 OA
ATOM      2  O   UNL     1     -34.758  22.107  -1.126  0.00  0.00    -0.270 OA
ATOM      3  N   UNL     1     -35.528  23.747   0.403  0.00  0.00    -0.269 N 
ATOM      4  C   UNL     1     -35.979  20.235   0.823  0.00  0.00    +0.118 C 
ATOM      5  C   UNL     1     -35.940  21.570   0.893  0.00  0.00    +0.119 C 
ATOM      6  C   UNL     1     -36.247  23.851   1.684  0.00  0.00    +0.141 C 
ATOM      7  C   UNL     1     -36.514  22.390   1.978  0.00  0.00    +0.198 C 
ATOM      8  C   UNL     1     -35.315  22.459  -0.102  0.00  0.00    +0.255 C 
ATOM      9  C   UNL     1     -35.061  24.926  -0.302  0.00  0.00    +0.116 C 
ENDROOT
BRANCH   4  12
ATOM     10  C   UNL     1     -34.295  18.444   0.143  0.00  0.00    +0.011 C 
ATOM     11  C   UNL     1     -33.619  17.823  -1.107  0.00  0.00    +0.022 C 
ATOM     12  C   UNL     1     -35.390  19.444  -0.307  0.00  0.00    +0.061 C 
ATOM     13  C   UNL     1     -33.207  19.053   1.046  0.00  0.00    +0.001 C 
ATOM     14  C   UNL     1     -36.488  18.715  -1.141  0.00  0.00    +0.029 C 
ATOM     15  C   UNL     1     -32.647  16.716  -0.678  0.00  0.00    +0.004 C 
ATOM     16  C   UNL     1     -32.182  17.994   1.461  0.00  0.00    +0.000 C 
ATOM     17  C   UNL     1     -31.577  17.270   0.263  0.00  0.00    +0.000 C 
ATOM     18  C   UNL     1     -34.621  17.340  -2.120  0.00  0.00    -0.031 C 
ATOM     19  C   UNL     1     -35.898  17.742  -2.134  0.00  0.00    -0.031 C 
ATOM     20  C   UNL     1     -37.526  17.964  -0.295  0.00  0.00    +0.005 C 
ENDBRANCH   4  12
BRANCH   4  21
ATOM     21  O   UNL     1     -36.590  19.506   1.825  0.00  0.00    -0.510 OA
ATOM     22  H   UNL     1     -37.183  19.927   2.415  0.00  0.00    +0.292 HD
ENDBRANCH   4  21
BRANCH   6  23
ATOM     23  C   UNL     1     -35.424  24.487   2.789  0.00  0.00    +0.066 C 
BRANCH  23  24
ATOM     24  C   UNL     1     -36.244  25.104   3.953  0.00  0.00    +0.179 C 
BRANCH  24  25
ATOM     25  C   UNL     1     -35.511  26.328   4.587  0.00  0.00    +0.035 C 
ATOM     26  C   UNL     1     -34.667  25.948   5.814  0.00  0.00    +0.003 C 
ATOM     27  C   UNL     1     -34.644  27.126   3.607  0.00  0.00    +0.003 C 
ENDBRANCH  24  25
BRANCH  24  28
ATOM     28  O   UNL     1     -36.366  24.120   4.980  0.00  0.00    -0.376 OA
ATOM     29  H   UNL     1     -35.504  23.988   5.405  0.00  0.00    +0.211 HD
ENDBRANCH  24  28
BRANCH  24  31
ATOM     30  O   UNL     1     -37.859  26.442   2.700  0.00  0.00    -0.248 OA
ATOM     31  C   UNL     1     -37.638  25.505   3.457  0.00  0.00    +0.338 C 
BRANCH  31  32
ATOM     32  O   UNL     1     -38.627  24.702   3.928  0.00  0.00    -0.479 OA
ATOM     33  H   UNL     1     -39.068  24.114   3.349  0.00  0.00    +0.295 HD
ENDBRANCH  31  32
ENDBRANCH  24  31
ENDBRANCH  23  24
ENDBRANCH   6  23
TORSDOF 8
ENDMDL
MODEL 6
REMARK VINA RESULT:      -6.0      5.779     10.055
REMARK  Name = 54749500
REMARK  8 active torsions:
REMARK  status: ('A' for Active; 'I' for Inactive)
REMARK    1  A    between atoms: C_4  and  C_12
REMARK    2  A    between atoms: C_4  and  O_21
REMARK    3  A    between atoms: C_6  and  C_23
REMARK    4  A    between atoms: C_23  and  C_24
REMARK    5  A    between atoms: C_24  and  C_25
REMARK    6  A    between atoms: C_24  and  O_28
REMARK    7  A    between atoms: C_24  and  C_31
REMARK    8  A    between atoms: C_31  and  O_32
REMARK                            x       y       z     vdW  Elec       q    Type
REMARK                         _______ _______ _______ _____ _____    ______ ____
ROOT
ATOM      1  O   UNL     1     -37.923  27.016   2.116  0.00  0.00    -0.289 OA
ATOM      2  O   UNL     1     -40.433  23.036   1.936  0.00  0.00    -0.270 OA
ATOM      3  N   UNL     1     -38.150  23.537   2.338  0.00  0.00    -0.269 N 
ATOM      4  C   UNL     1     -40.661  25.982   1.679  0.00  0.00    +0.118 C 
ATOM      5  C   UNL     1     -39.558  25.271   1.940  0.00  0.00    +0.119 C 
ATOM      6  C   UNL     1     -37.245  24.695   2.429  0.00  0.00    +0.141 C 
ATOM      7  C   UNL     1     -38.209  25.830   2.152  0.00  0.00    +0.198 C 
ATOM      8  C   UNL     1     -39.497  23.805   2.063  0.00  0.00    +0.255 C 
ATOM      9  C   UNL     1     -37.669  22.181   2.523  0.00  0.00    +0.116 C 
ENDROOT
BRANCH   4  12
ATOM     10  C   UNL     1     -43.169  26.177   2.100  0.00  0.00    +0.011 C 
ATOM     11  C   UNL     1     -44.488  25.368   1.986  0.00  0.00    +0.022 C 
ATOM     12  C   UNL     1     -42.013  25.369   1.460  0.00  0.00    +0.061 C 
ATOM     13  C   UNL     1     -42.943  26.556   3.574  0.00  0.00    +0.001 C 
ATOM     14  C   UNL     1     -42.296  25.110  -0.052  0.00  0.00    +0.029 C 
ATOM     15  C   UNL     1     -45.667  26.222   2.471  0.00  0.00    +0.004 C 
ATOM     16  C   UNL     1     -44.120  27.370   4.118  0.00  0.00    +0.000 C 
ATOM     17  C   UNL     1     -45.457  26.663   3.919  0.00  0.00    +0.000 C 
ATOM     18  C   UNL     1     -44.710  24.823   0.602  0.00  0.00    -0.031 C 
ATOM     19  C   UNL     1     -43.729  24.706  -0.303  0.00  0.00    -0.031 C 
ATOM     20  C   UNL     1     -41.967  26.299  -0.966  0.00  0.00    +0.005 C 
ENDBRANCH   4  12
BRANCH   4  21
ATOM     21  O   UNL     1     -40.595  27.359   1.594  0.00  0.00    -0.510 OA
ATOM     22  H   UNL     1     -40.934  27.888   2.288  0.00  0.00    +0.292 HD
ENDBRANCH   4  21
BRANCH   6  23
ATOM     23  C   UNL     1     -36.600  24.850   3.794  0.00  0.00    +0.066 C 
BRANCH  23  24
ATOM     24  C   UNL     1     -35.288  25.680   3.814  0.00  0.00    +0.179 C 
BRANCH  24  25
ATOM     25  C   UNL     1     -34.288  25.148   4.888  0.00  0.00    +0.035 C 
ATOM     26  C   UNL     1     -33.984  26.182   5.985  0.00  0.00    +0.003 C 
ATOM     27  C   UNL     1     -34.703  23.827   5.543  0.00  0.00    +0.003 C 
ENDBRANCH  24  25
BRANCH  24  28
ATOM     28  O   UNL     1     -35.616  27.019   4.184  0.00  0.00    -0.376 OA
ATOM     29  H   UNL     1     -35.887  27.039   5.115  0.00  0.00    +0.211 HD
ENDBRANCH  24  28
BRANCH  24  31
ATOM     30  O   UNL     1     -34.031  24.726   1.949  0.00  0.00    -0.248 OA
ATOM     31  C   UNL     1     -34.642  25.675   2.423  0.00  0.00    +0.338 C 
BRANCH  31  32
ATOM     32  O   UNL     1     -34.827  26.835   1.742  0.00  0.00    -0.479 OA
ATOM     33  H   UNL     1     -35.313  26.836   0.941  0.00  0.00    +0.295 HD
ENDBRANCH  31  32
ENDBRANCH  24  31
ENDBRANCH  23  24
ENDBRANCH   6  23
TORSDOF 8
ENDMDL
MODEL 7
REMARK VINA RESULT:      -5.9      5.417      9.952
REMARK  Name = 54749500
REMARK  8 active torsions:
REMARK  status: ('A' for Active; 'I' for Inactive)
REMARK    1  A    between atoms: C_4  and  C_12
REMARK    2  A    between atoms: C_4  and  O_21
REMARK    3  A    between atoms: C_6  and  C_23
REMARK    4  A    between atoms: C_23  and  C_24
REMARK    5  A    between atoms: C_24  and  C_25
REMARK    6  A    between atoms: C_24  and  O_28
REMARK    7  A    between atoms: C_24  and  C_31
REMARK    8  A    between atoms: C_31  and  O_32
REMARK                            x       y       z     vdW  Elec       q    Type
REMARK                         _______ _______ _______ _____ _____    ______ ____
ROOT
ATOM      1  O   UNL     1     -34.163  26.756   5.385  0.00  0.00    -0.289 OA
ATOM      2  O   UNL     1     -31.023  27.702   2.006  0.00  0.00    -0.270 OA
ATOM      3  N   UNL     1     -32.708  26.058   2.287  0.00  0.00    -0.269 N 
ATOM      4  C   UNL     1     -31.987  28.624   4.655  0.00  0.00    +0.118 C 
ATOM      5  C   UNL     1     -32.440  27.588   3.940  0.00  0.00    +0.119 C 
ATOM      6  C   UNL     1     -33.740  25.649   3.254  0.00  0.00    +0.141 C 
ATOM      7  C   UNL     1     -33.531  26.680   4.344  0.00  0.00    +0.198 C 
ATOM      8  C   UNL     1     -31.930  27.172   2.623  0.00  0.00    +0.255 C 
ATOM      9  C   UNL     1     -32.507  25.339   1.043  0.00  0.00    +0.116 C 
ENDROOT
BRANCH   4  12
ATOM     10  C   UNL     1     -31.305  30.981   3.957  0.00  0.00    +0.011 C 
ATOM     11  C   UNL     1     -30.130  31.768   3.319  0.00  0.00    +0.022 C 
ATOM     12  C   UNL     1     -30.867  29.516   4.208  0.00  0.00    +0.061 C 
ATOM     13  C   UNL     1     -32.549  31.131   3.063  0.00  0.00    +0.001 C 
ATOM     14  C   UNL     1     -29.657  29.466   5.191  0.00  0.00    +0.029 C 
ATOM     15  C   UNL     1     -30.495  33.255   3.213  0.00  0.00    +0.004 C 
ATOM     16  C   UNL     1     -32.923  32.605   2.887  0.00  0.00    +0.000 C 
ATOM     17  C   UNL     1     -31.758  33.444   2.372  0.00  0.00    +0.000 C 
ATOM     18  C   UNL     1     -28.831  31.550   4.046  0.00  0.00    -0.031 C 
ATOM     19  C   UNL     1     -28.623  30.521   4.877  0.00  0.00    -0.031 C 
ATOM     20  C   UNL     1     -30.044  29.602   6.671  0.00  0.00    +0.005 C 
ENDBRANCH   4  12
BRANCH   4  21
ATOM     21  O   UNL     1     -32.554  28.923   5.879  0.00  0.00    -0.510 OA
ATOM     22  H   UNL     1     -33.409  28.604   6.090  0.00  0.00    +0.292 HD
ENDBRANCH   4  21
BRANCH   6  23
ATOM     23  C   UNL     1     -35.151  25.723   2.699  0.00  0.00    +0.066 C 
BRANCH  23  24
ATOM     24  C   UNL     1     -36.076  24.538   3.084  0.00  0.00    +0.179 C 
BRANCH  24  25
ATOM     25  C   UNL     1     -35.303  23.442   3.884  0.00  0.00    +0.035 C 
ATOM     26  C   UNL     1     -35.572  23.505   5.396  0.00  0.00    +0.003 C 
ATOM     27  C   UNL     1     -35.538  22.011   3.390  0.00  0.00    +0.003 C 
ENDBRANCH  24  25
BRANCH  24  28
ATOM     28  O   UNL     1     -36.534  23.923   1.880  0.00  0.00    -0.376 OA
ATOM     29  H   UNL     1     -37.086  23.156   2.099  0.00  0.00    +0.211 HD
ENDBRANCH  24  28
BRANCH  24  31
ATOM     30  O   UNL     1     -38.361  24.484   3.946  0.00  0.00    -0.248 OA
ATOM     31  C   UNL     1     -37.276  25.049   3.889  0.00  0.00    +0.338 C 
BRANCH  31  32
ATOM     32  O   UNL     1     -37.020  26.200   4.561  0.00  0.00    -0.479 OA
ATOM     33  H   UNL     1     -37.481  26.392   5.354  0.00  0.00    +0.295 HD
ENDBRANCH  31  32
ENDBRANCH  24  31
ENDBRANCH  23  24
ENDBRANCH   6  23
TORSDOF 8
ENDMDL
MODEL 8
REMARK VINA RESULT:      -5.9      4.744      9.218
REMARK  Name = 54749500
REMARK  8 active torsions:
REMARK  status: ('A' for Active; 'I' for Inactive)
REMARK    1  A    between atoms: C_4  and  C_12
REMARK    2  A    between atoms: C_4  and  O_21
REMARK    3  A    between atoms: C_6  and  C_23
REMARK    4  A    between atoms: C_23  and  C_24
REMARK    5  A    between atoms: C_24  and  C_25
REMARK    6  A    between atoms: C_24  and  O_28
REMARK    7  A    between atoms: C_24  and  C_31
REMARK    8  A    between atoms: C_31  and  O_32
REMARK                            x       y       z     vdW  Elec       q    Type
REMARK                         _______ _______ _______ _____ _____    ______ ____
ROOT
ATOM      1  O   UNL     1     -36.507  25.931   2.194  0.00  0.00    -0.289 OA
ATOM      2  O   UNL     1     -33.238  28.471   4.438  0.00  0.00    -0.270 OA
ATOM      3  N   UNL     1     -34.361  26.435   4.903  0.00  0.00    -0.269 N 
ATOM      4  C   UNL     1     -34.895  28.404   1.979  0.00  0.00    +0.118 C 
ATOM      5  C   UNL     1     -34.876  27.508   2.972  0.00  0.00    +0.119 C 
ATOM      6  C   UNL     1     -35.371  25.540   4.316  0.00  0.00    +0.141 C 
ATOM      7  C   UNL     1     -35.699  26.284   3.038  0.00  0.00    +0.198 C 
ATOM      8  C   UNL     1     -34.029  27.583   4.174  0.00  0.00    +0.255 C 
ATOM      9  C   UNL     1     -33.737  26.141   6.180  0.00  0.00    +0.116 C 
ENDROOT
BRANCH   4  12
ATOM     10  C   UNL     1     -33.464  29.969   0.562  0.00  0.00    +0.011 C 
ATOM     11  C   UNL     1     -32.455  31.140   0.686  0.00  0.00    +0.022 C 
ATOM     12  C   UNL     1     -34.047  29.641   1.959  0.00  0.00    +0.061 C 
ATOM     13  C   UNL     1     -32.769  28.785  -0.134  0.00  0.00    +0.001 C 
ATOM     14  C   UNL     1     -34.803  30.874   2.542  0.00  0.00    +0.029 C 
ATOM     15  C   UNL     1     -31.992  31.580  -0.710  0.00  0.00    +0.004 C 
ATOM     16  C   UNL     1     -32.246  29.190  -1.514  0.00  0.00    +0.000 C 
ATOM     17  C   UNL     1     -31.341  30.416  -1.456  0.00  0.00    +0.000 C 
ATOM     18  C   UNL     1     -33.002  32.286   1.492  0.00  0.00    -0.031 C 
ATOM     19  C   UNL     1     -34.047  32.163   2.321  0.00  0.00    -0.031 C 
ATOM     20  C   UNL     1     -36.226  31.055   1.994  0.00  0.00    +0.005 C 
ENDBRANCH   4  12
BRANCH   4  21
ATOM     21  O   UNL     1     -35.731  28.220   0.895  0.00  0.00    -0.510 OA
ATOM     22  H   UNL     1     -36.634  28.012   1.030  0.00  0.00    +0.292 HD
ENDBRANCH   4  21
BRANCH   6  23
ATOM     23  C   UNL     1     -34.843  24.149   4.015  0.00  0.00    +0.066 C 
BRANCH  23  24
ATOM     24  C   UNL     1     -35.903  23.016   4.064  0.00  0.00    +0.179 C 
BRANCH  24  25
ATOM     25  C   UNL     1     -35.908  22.177   2.747  0.00  0.00    +0.035 C 
ATOM     26  C   UNL     1     -37.320  21.980   2.170  0.00  0.00    +0.003 C 
ATOM     27  C   UNL     1     -34.986  22.715   1.648  0.00  0.00    +0.003 C 
ENDBRANCH  24  25
BRANCH  24  28
ATOM     28  O   UNL     1     -37.192  23.619   4.173  0.00  0.00    -0.376 OA
ATOM     29  H   UNL     1     -37.798  23.201   3.541  0.00  0.00    +0.211 HD
ENDBRANCH  24  28
BRANCH  24  31
ATOM     30  O   UNL     1     -35.797  22.468   6.442  0.00  0.00    -0.248 OA
ATOM     31  C   UNL     1     -35.652  22.115   5.278  0.00  0.00    +0.338 C 
BRANCH  31  32
ATOM     32  O   UNL     1     -35.263  20.858   4.943  0.00  0.00    -0.479 OA
ATOM     33  H   UNL     1     -34.432  20.718   4.533  0.00  0.00    +0.295 HD
ENDBRANCH  31  32
ENDBRANCH  24  31
ENDBRANCH  23  24
ENDBRANCH   6  23
TORSDOF 8
ENDMDL
MODEL 9
REMARK VINA RESULT:      -5.9      4.309      9.016
REMARK  Name = 54749500
REMARK  8 active torsions:
REMARK  status: ('A' for Active; 'I' for Inactive)
REMARK    1  A    between atoms: C_4  and  C_12
REMARK    2  A    between atoms: C_4  and  O_21
REMARK    3  A    between atoms: C_6  and  C_23
REMARK    4  A    between atoms: C_23  and  C_24
REMARK    5  A    between atoms: C_24  and  C_25
REMARK    6  A    between atoms: C_24  and  O_28
REMARK    7  A    between atoms: C_24  and  C_31
REMARK    8  A    between atoms: C_31  and  O_32
REMARK                            x       y       z     vdW  Elec       q    Type
REMARK                         _______ _______ _______ _____ _____    ______ ____
ROOT
ATOM      1  O   UNL     1     -35.430  24.667   4.691  0.00  0.00    -0.289 OA
ATOM      2  O   UNL     1     -32.731  26.355   1.223  0.00  0.00    -0.270 OA
ATOM      3  N   UNL     1     -34.015  24.383   1.511  0.00  0.00    -0.269 N 
ATOM      4  C   UNL     1     -33.737  26.975   3.943  0.00  0.00    +0.118 C 
ATOM      5  C   UNL     1     -33.995  25.887   3.209  0.00  0.00    +0.119 C 
ATOM      6  C   UNL     1     -34.888  23.736   2.504  0.00  0.00    +0.141 C 
ATOM      7  C   UNL     1     -34.848  24.756   3.623  0.00  0.00    +0.198 C 
ATOM      8  C   UNL     1     -33.473  25.626   1.856  0.00  0.00    +0.255 C 
ATOM      9  C   UNL     1     -33.727  23.759   0.233  0.00  0.00    +0.116 C 
ENDROOT
BRANCH   4  12
ATOM     10  C   UNL     1     -33.584  29.461   3.390  0.00  0.00    +0.011 C 
ATOM     11  C   UNL     1     -32.646  30.503   2.728  0.00  0.00    +0.022 C 
ATOM     12  C   UNL     1     -32.854  28.097   3.484  0.00  0.00    +0.061 C 
ATOM     13  C   UNL     1     -34.912  29.422   2.613  0.00  0.00    +0.001 C 
ATOM     14  C   UNL     1     -31.570  28.222   4.361  0.00  0.00    +0.029 C 
ATOM     15  C   UNL     1     -33.295  31.893   2.775  0.00  0.00    +0.004 C 
ATOM     16  C   UNL     1     -35.575  30.801   2.589  0.00  0.00    +0.000 C 
ATOM     17  C   UNL     1     -34.644  31.885   2.055  0.00  0.00    +0.000 C 
ATOM     18  C   UNL     1     -31.267  30.499   3.329  0.00  0.00    -0.031 C 
ATOM     19  C   UNL     1     -30.789  29.478   4.054  0.00  0.00    -0.031 C 
ATOM     20  C   UNL     1     -31.834  28.181   5.873  0.00  0.00    +0.005 C 
ENDBRANCH   4  12
BRANCH   4  21
ATOM     21  O   UNL     1     -34.293  27.111   5.200  0.00  0.00    -0.510 OA
ATOM     22  H   UNL     1     -34.487  26.350   5.711  0.00  0.00    +0.292 HD
ENDBRANCH   4  21
BRANCH   6  23
ATOM     23  C   UNL     1     -36.308  23.524   2.012  0.00  0.00    +0.066 C 
BRANCH  23  24
ATOM     24  C   UNL     1     -37.028  22.276   2.589  0.00  0.00    +0.179 C 
BRANCH  24  25
ATOM     25  C   UNL     1     -38.575  22.367   2.401  0.00  0.00    +0.035 C 
ATOM     26  C   UNL     1     -39.104  23.808   2.494  0.00  0.00    +0.003 C 
ATOM     27  C   UNL     1     -39.098  21.722   1.113  0.00  0.00    +0.003 C 
ENDBRANCH  24  25
BRANCH  24  28
ATOM     28  O   UNL     1     -36.786  22.234   3.995  0.00  0.00    -0.376 OA
ATOM     29  H   UNL     1     -36.983  21.346   4.330  0.00  0.00    +0.211 HD
ENDBRANCH  24  28
BRANCH  24  31
ATOM     30  O   UNL     1     -35.897  20.977   0.856  0.00  0.00    -0.248 OA
ATOM     31  C   UNL     1     -36.478  21.003   1.934  0.00  0.00    +0.338 C 
BRANCH  31  32
ATOM     32  O   UNL     1     -36.680  19.886   2.679  0.00  0.00    -0.479 OA
ATOM     33  H   UNL     1     -36.611  19.926   3.612  0.00  0.00    +0.295 HD
ENDBRANCH  31  32
ENDBRANCH  24  31
ENDBRANCH  23  24
ENDBRANCH   6  23
TORSDOF 8
ENDMDL
