MODEL 1
REMARK VINA RESULT:      -7.1      0.000      0.000
REMARK  Name = 51352361
REMARK  3 active torsions:
REMARK  status: ('A' for Active; 'I' for Inactive)
REMARK    1  A    between atoms: C_2  and  C_14
REMARK    2  A    between atoms: C_5  and  N_22
REMARK    3  A    between atoms: C_23  and  C_27
REMARK                            x       y       z     vdW  Elec       q    Type
REMARK                         _______ _______ _______ _____ _____    ______ ____
ROOT
ATOM      1  F   UNL     1     -35.829  25.051   5.985  0.00  0.00    -0.204 F 
ATOM      2  C   UNL     1     -35.585  24.127   3.811  0.00  0.00    +0.028 C 
ATOM      3  C   UNL     1     -35.406  23.006   3.001  0.00  0.00    +0.014 C 
ATOM      4  C   UNL     1     -35.656  23.981   5.196  0.00  0.00    +0.138 C 
ATOM      5  C   UNL     1     -35.295  21.740   3.575  0.00  0.00    +0.050 C 
ATOM      6  C   UNL     1     -35.545  22.714   5.771  0.00  0.00    +0.031 C 
ATOM      7  C   UNL     1     -35.366  21.594   4.960  0.00  0.00    +0.017 C 
ENDROOT
BRANCH   2  14
ATOM      8  S   UNL     1     -38.452  25.473   2.903  0.00  0.00    +0.061 S 
ATOM      9  O   UNL     1     -39.508  26.469   2.881  0.00  0.00    -0.154 OA
ATOM     10  O   UNL     1     -38.651  24.204   3.575  0.00  0.00    -0.154 OA
ATOM     11  N   UNL     1     -37.915  25.185   1.294  0.00  0.00    -0.165 N 
ATOM     12  N   UNL     1     -35.550  25.513   1.713  0.00  0.00    -0.240 NA
ATOM     13  N   UNL     1     -36.312  25.282  -0.461  0.00  0.00    -0.330 N 
ATOM     14  C   UNL     1     -35.708  25.520   3.175  0.00  0.00    +0.132 C 
ATOM     15  C   UNL     1     -36.999  26.262   3.553  0.00  0.00    +0.199 C 
ATOM     16  C   UNL     1     -34.515  26.365   3.686  0.00  0.00    +0.031 C 
ATOM     17  C   UNL     1     -36.533  25.334   0.893  0.00  0.00    +0.197 C 
ATOM     18  C   UNL     1     -38.997  24.765   0.353  0.00  0.00    +0.142 C 
ATOM     19  H   UNL     1     -37.067  25.146  -1.077  0.00  0.00    +0.145 HD
ATOM     20  H   UNL     1     -35.399  25.380  -0.816  0.00  0.00    +0.145 HD
ENDBRANCH   2  14
BRANCH   5  22
ATOM     21  O   UNL     1     -34.027  21.489   0.870  0.00  0.00    -0.268 OA
ATOM     22  N   UNL     1     -35.117  20.619   2.763  0.00  0.00    -0.279 N 
ATOM     23  C   UNL     1     -34.515  20.556   1.499  0.00  0.00    +0.267 C 
ATOM     24  H   UNL     1     -35.457  19.768   3.122  0.00  0.00    +0.155 HD
BRANCH  23  27
ATOM     25  F   UNL     1     -34.429  15.523  -0.841  0.00  0.00    -0.203 F 
ATOM     26  N   UNL     1     -35.522  18.835   0.157  0.00  0.00    -0.237 NA
ATOM     27  C   UNL     1     -34.448  19.201   0.892  0.00  0.00    +0.135 C 
ATOM     28  C   UNL     1     -33.336  18.400   1.094  0.00  0.00    +0.026 C 
ATOM     29  C   UNL     1     -33.325  17.141   0.503  0.00  0.00    +0.033 C 
ATOM     30  C   UNL     1     -35.476  17.605  -0.401  0.00  0.00    +0.129 C 
ATOM     31  C   UNL     1     -34.412  16.728  -0.260  0.00  0.00    +0.159 C 
ENDBRANCH  23  27
ENDBRANCH   5  22
TORSDOF 3
ENDMDL
MODEL 2
REMARK VINA RESULT:      -6.9      3.227      7.655
REMARK  Name = 51352361
REMARK  3 active torsions:
REMARK  status: ('A' for Active; 'I' for Inactive)
REMARK    1  A    between atoms: C_2  and  C_14
REMARK    2  A    between atoms: C_5  and  N_22
REMARK    3  A    between atoms: C_23  and  C_27
REMARK                            x       y       z     vdW  Elec       q    Type
REMARK                         _______ _______ _______ _____ _____    ______ ____
ROOT
ATOM      1  F   UNL     1     -34.710  16.865  -0.734  0.00  0.00    -0.204 F 
ATOM      2  C   UNL     1     -36.169  18.551   0.081  0.00  0.00    +0.028 C 
ATOM      3  C   UNL     1     -36.362  19.695   0.856  0.00  0.00    +0.014 C 
ATOM      4  C   UNL     1     -34.906  17.964   0.008  0.00  0.00    +0.138 C 
ATOM      5  C   UNL     1     -35.293  20.252   1.557  0.00  0.00    +0.050 C 
ATOM      6  C   UNL     1     -33.836  18.520   0.709  0.00  0.00    +0.031 C 
ATOM      7  C   UNL     1     -34.030  19.665   1.483  0.00  0.00    +0.017 C 
ENDROOT
BRANCH   2  14
ATOM      8  S   UNL     1     -36.878  19.291  -3.050  0.00  0.00    +0.061 S 
ATOM      9  O   UNL     1     -37.121  19.032  -4.457  0.00  0.00    -0.154 OA
ATOM     10  O   UNL     1     -35.650  19.927  -2.619  0.00  0.00    -0.154 OA
ATOM     11  N   UNL     1     -38.220  20.146  -2.395  0.00  0.00    -0.165 N 
ATOM     12  N   UNL     1     -38.611  18.675  -0.509  0.00  0.00    -0.240 NA
ATOM     13  N   UNL     1     -40.134  20.348  -0.997  0.00  0.00    -0.330 N 
ATOM     14  C   UNL     1     -37.349  17.941  -0.691  0.00  0.00    +0.132 C 
ATOM     15  C   UNL     1     -37.075  17.748  -2.190  0.00  0.00    +0.199 C 
ATOM     16  C   UNL     1     -37.626  16.545  -0.082  0.00  0.00    +0.031 C 
ATOM     17  C   UNL     1     -38.970  19.668  -1.254  0.00  0.00    +0.197 C 
ATOM     18  C   UNL     1     -38.538  21.422  -3.105  0.00  0.00    +0.142 C 
ATOM     19  H   UNL     1     -40.399  21.104  -1.570  0.00  0.00    +0.145 HD
ATOM     20  H   UNL     1     -40.704  20.083  -0.240  0.00  0.00    +0.145 HD
ENDBRANCH   2  14
BRANCH   5  22
ATOM     21  O   UNL     1     -35.149  20.630   4.527  0.00  0.00    -0.268 OA
ATOM     22  N   UNL     1     -35.486  21.396   2.330  0.00  0.00    -0.279 N 
ATOM     23  C   UNL     1     -35.407  21.520   3.724  0.00  0.00    +0.267 C 
ATOM     24  H   UNL     1     -35.706  22.219   1.836  0.00  0.00    +0.155 HD
BRANCH  23  27
ATOM     25  F   UNL     1     -36.422  26.639   5.616  0.00  0.00    -0.203 F 
ATOM     26  N   UNL     1     -36.751  23.511   3.808  0.00  0.00    -0.237 NA
ATOM     27  C   UNL     1     -35.639  22.888   4.257  0.00  0.00    +0.135 C 
ATOM     28  C   UNL     1     -34.744  23.448   5.154  0.00  0.00    +0.026 C 
ATOM     29  C   UNL     1     -35.008  24.731   5.622  0.00  0.00    +0.033 C 
ATOM     30  C   UNL     1     -36.974  24.756   4.284  0.00  0.00    +0.129 C 
ATOM     31  C   UNL     1     -36.142  25.404   5.183  0.00  0.00    +0.159 C 
ENDBRANCH  23  27
ENDBRANCH   5  22
TORSDOF 3
ENDMDL
MODEL 3
REMARK VINA RESULT:      -6.7      4.816      6.857
REMARK  Name = 51352361
REMARK  3 active torsions:
REMARK  status: ('A' for Active; 'I' for Inactive)
REMARK    1  A    between atoms: C_2  and  C_14
REMARK    2  A    between atoms: C_5  and  N_22
REMARK    3  A    between atoms: C_23  and  C_27
REMARK                            x       y       z     vdW  Elec       q    Type
REMARK                         _______ _______ _______ _____ _____    ______ ____
ROOT
ATOM      1  F   UNL     1     -30.871  31.079   5.926  0.00  0.00    -0.204 F 
ATOM      2  C   UNL     1     -31.628  29.470   4.353  0.00  0.00    +0.028 C 
ATOM      3  C   UNL     1     -32.220  28.233   4.096  0.00  0.00    +0.014 C 
ATOM      4  C   UNL     1     -31.439  29.892   5.668  0.00  0.00    +0.138 C 
ATOM      5  C   UNL     1     -32.622  27.418   5.154  0.00  0.00    +0.050 C 
ATOM      6  C   UNL     1     -31.841  29.077   6.728  0.00  0.00    +0.031 C 
ATOM      7  C   UNL     1     -32.433  27.841   6.470  0.00  0.00    +0.017 C 
ENDROOT
BRANCH   2  14
ATOM      8  S   UNL     1     -33.630  31.596   2.828  0.00  0.00    +0.061 S 
ATOM      9  O   UNL     1     -34.077  32.887   2.338  0.00  0.00    -0.154 OA
ATOM     10  O   UNL     1     -34.283  30.971   3.961  0.00  0.00    -0.154 OA
ATOM     11  N   UNL     1     -33.582  30.482   1.516  0.00  0.00    -0.165 N 
ATOM     12  N   UNL     1     -31.309  29.716   1.870  0.00  0.00    -0.240 NA
ATOM     13  N   UNL     1     -32.454  29.078  -0.038  0.00  0.00    -0.330 N 
ATOM     14  C   UNL     1     -31.188  30.365   3.185  0.00  0.00    +0.132 C 
ATOM     15  C   UNL     1     -31.889  31.731   3.153  0.00  0.00    +0.199 C 
ATOM     16  C   UNL     1     -29.670  30.620   3.348  0.00  0.00    +0.031 C 
ATOM     17  C   UNL     1     -32.385  29.752   1.156  0.00  0.00    +0.197 C 
ATOM     18  C   UNL     1     -34.878  30.335   0.790  0.00  0.00    +0.142 C 
ATOM     19  H   UNL     1     -33.279  29.112  -0.575  0.00  0.00    +0.145 HD
ATOM     20  H   UNL     1     -31.681  28.560  -0.357  0.00  0.00    +0.145 HD
ENDBRANCH   2  14
BRANCH   5  22
ATOM     21  O   UNL     1     -35.510  26.616   5.170  0.00  0.00    -0.268 OA
ATOM     22  N   UNL     1     -33.215  26.183   4.897  0.00  0.00    -0.279 N 
ATOM     23  C   UNL     1     -34.579  25.858   4.918  0.00  0.00    +0.267 C 
ATOM     24  H   UNL     1     -32.600  25.447   4.673  0.00  0.00    +0.155 HD
BRANCH  23  27
ATOM     25  F   UNL     1     -35.792  20.646   3.444  0.00  0.00    -0.203 F 
ATOM     26  N   UNL     1     -35.016  24.184   3.249  0.00  0.00    -0.237 NA
ATOM     27  C   UNL     1     -34.905  24.451   4.570  0.00  0.00    +0.135 C 
ATOM     28  C   UNL     1     -35.075  23.506   5.569  0.00  0.00    +0.026 C 
ATOM     29  C   UNL     1     -35.378  22.203   5.189  0.00  0.00    +0.033 C 
ATOM     30  C   UNL     1     -35.312  22.908   2.918  0.00  0.00    +0.129 C 
ATOM     31  C   UNL     1     -35.501  21.891   3.840  0.00  0.00    +0.159 C 
ENDBRANCH  23  27
ENDBRANCH   5  22
TORSDOF 3
ENDMDL
MODEL 4
REMARK VINA RESULT:      -6.7      3.793      7.916
REMARK  Name = 51352361
REMARK  3 active torsions:
REMARK  status: ('A' for Active; 'I' for Inactive)
REMARK    1  A    between atoms: C_2  and  C_14
REMARK    2  A    between atoms: C_5  and  N_22
REMARK    3  A    between atoms: C_23  and  C_27
REMARK                            x       y       z     vdW  Elec       q    Type
REMARK                         _______ _______ _______ _____ _____    ______ ____
ROOT
ATOM      1  F   UNL     1     -36.142  22.147   4.382  0.00  0.00    -0.204 F 
ATOM      2  C   UNL     1     -35.326  24.022   3.177  0.00  0.00    +0.028 C 
ATOM      3  C   UNL     1     -34.715  25.276   3.184  0.00  0.00    +0.014 C 
ATOM      4  C   UNL     1     -35.556  23.352   4.378  0.00  0.00    +0.138 C 
ATOM      5  C   UNL     1     -34.334  25.860   4.392  0.00  0.00    +0.050 C 
ATOM      6  C   UNL     1     -35.175  23.936   5.587  0.00  0.00    +0.031 C 
ATOM      7  C   UNL     1     -34.563  25.189   5.593  0.00  0.00    +0.017 C 
ENDROOT
BRANCH   2  14
ATOM      8  S   UNL     1     -37.911  25.031   1.400  0.00  0.00    +0.061 S 
ATOM      9  O   UNL     1     -38.608  25.532   0.229  0.00  0.00    -0.154 OA
ATOM     10  O   UNL     1     -37.690  25.887   2.548  0.00  0.00    -0.154 OA
ATOM     11  N   UNL     1     -38.657  23.569   1.917  0.00  0.00    -0.165 N 
ATOM     12  N   UNL     1     -36.639  22.227   2.003  0.00  0.00    -0.240 NA
ATOM     13  N   UNL     1     -38.705  21.217   2.268  0.00  0.00    -0.330 N 
ATOM     14  C   UNL     1     -35.744  23.383   1.844  0.00  0.00    +0.132 C 
ATOM     15  C   UNL     1     -36.354  24.377   0.845  0.00  0.00    +0.199 C 
ATOM     16  C   UNL     1     -34.467  22.793   1.197  0.00  0.00    +0.031 C 
ATOM     17  C   UNL     1     -37.927  22.328   2.062  0.00  0.00    +0.197 C 
ATOM     18  C   UNL     1     -40.117  23.695   2.204  0.00  0.00    +0.142 C 
ATOM     19  H   UNL     1     -39.685  21.304   2.312  0.00  0.00    +0.145 HD
ATOM     20  H   UNL     1     -38.285  20.333   2.373  0.00  0.00    +0.145 HD
ENDBRANCH   2  14
BRANCH   5  22
ATOM     21  O   UNL     1     -32.284  27.004   6.257  0.00  0.00    -0.268 OA
ATOM     22  N   UNL     1     -33.721  27.113   4.399  0.00  0.00    -0.279 N 
ATOM     23  C   UNL     1     -32.764  27.601   5.299  0.00  0.00    +0.267 C 
ATOM     24  H   UNL     1     -33.995  27.731   3.683  0.00  0.00    +0.155 HD
BRANCH  23  27
ATOM     25  F   UNL     1     -31.076  32.766   4.162  0.00  0.00    -0.203 F 
ATOM     26  N   UNL     1     -32.989  29.684   4.119  0.00  0.00    -0.237 NA
ATOM     27  C   UNL     1     -32.276  28.979   5.025  0.00  0.00    +0.135 C 
ATOM     28  C   UNL     1     -31.157  29.465   5.682  0.00  0.00    +0.026 C 
ATOM     29  C   UNL     1     -30.743  30.760   5.390  0.00  0.00    +0.033 C 
ATOM     30  C   UNL     1     -32.557  30.938   3.861  0.00  0.00    +0.129 C 
ATOM     31  C   UNL     1     -31.451  31.517   4.463  0.00  0.00    +0.159 C 
ENDBRANCH  23  27
ENDBRANCH   5  22
TORSDOF 3
ENDMDL
MODEL 5
REMARK VINA RESULT:      -6.7      2.664      3.925
REMARK  Name = 51352361
REMARK  3 active torsions:
REMARK  status: ('A' for Active; 'I' for Inactive)
REMARK    1  A    between atoms: C_2  and  C_14
REMARK    2  A    between atoms: C_5  and  N_22
REMARK    3  A    between atoms: C_23  and  C_27
REMARK                            x       y       z     vdW  Elec       q    Type
REMARK                         _______ _______ _______ _____ _____    ______ ____
ROOT
ATOM      1  F   UNL     1     -38.501  25.682   0.278  0.00  0.00    -0.204 F 
ATOM      2  C   UNL     1     -37.313  24.060   1.540  0.00  0.00    +0.028 C 
ATOM      3  C   UNL     1     -36.502  22.924   1.569  0.00  0.00    +0.014 C 
ATOM      4  C   UNL     1     -37.723  24.590   0.318  0.00  0.00    +0.138 C 
ATOM      5  C   UNL     1     -36.104  22.320   0.377  0.00  0.00    +0.050 C 
ATOM      6  C   UNL     1     -37.325  23.986  -0.875  0.00  0.00    +0.031 C 
ATOM      7  C   UNL     1     -36.515  22.851  -0.845  0.00  0.00    +0.017 C 
ENDROOT
BRANCH   2  14
ATOM      8  S   UNL     1     -35.530  26.342   3.110  0.00  0.00    +0.061 S 
ATOM      9  O   UNL     1     -35.254  27.633   3.715  0.00  0.00    -0.154 OA
ATOM     10  O   UNL     1     -34.929  25.979   1.843  0.00  0.00    -0.154 OA
ATOM     11  N   UNL     1     -35.218  25.102   4.262  0.00  0.00    -0.165 N 
ATOM     12  N   UNL     1     -37.351  23.968   4.053  0.00  0.00    -0.240 NA
ATOM     13  N   UNL     1     -35.879  23.351   5.730  0.00  0.00    -0.330 N 
ATOM     14  C   UNL     1     -37.748  24.723   2.855  0.00  0.00    +0.132 C 
ATOM     15  C   UNL     1     -37.296  26.185   2.990  0.00  0.00    +0.199 C 
ATOM     16  C   UNL     1     -39.296  24.706   2.888  0.00  0.00    +0.031 C 
ATOM     17  C   UNL     1     -36.214  24.126   4.649  0.00  0.00    +0.197 C 
ATOM     18  C   UNL     1     -33.834  25.122   4.823  0.00  0.00    +0.142 C 
ATOM     19  H   UNL     1     -35.011  23.479   6.177  0.00  0.00    +0.145 HD
ATOM     20  H   UNL     1     -36.504  22.666   6.059  0.00  0.00    +0.145 HD
ENDBRANCH   2  14
BRANCH   5  22
ATOM     21  O   UNL     1     -36.820  19.436   0.777  0.00  0.00    -0.268 OA
ATOM     22  N   UNL     1     -35.293  21.185   0.408  0.00  0.00    -0.279 N 
ATOM     23  C   UNL     1     -35.680  19.852   0.600  0.00  0.00    +0.267 C 
ATOM     24  H   UNL     1     -34.329  21.340   0.279  0.00  0.00    +0.155 HD
BRANCH  23  27
ATOM     25  F   UNL     1     -31.666  16.028   0.313  0.00  0.00    -0.203 F 
ATOM     26  N   UNL     1     -34.811  17.760  -0.206  0.00  0.00    -0.237 NA
ATOM     27  C   UNL     1     -34.579  18.855   0.552  0.00  0.00    +0.135 C 
ATOM     28  C   UNL     1     -33.406  19.077   1.256  0.00  0.00    +0.026 C 
ATOM     29  C   UNL     1     -32.407  18.113   1.177  0.00  0.00    +0.033 C 
ATOM     30  C   UNL     1     -33.818  16.845  -0.258  0.00  0.00    +0.129 C 
ATOM     31  C   UNL     1     -32.610  16.972   0.408  0.00  0.00    +0.159 C 
ENDBRANCH  23  27
ENDBRANCH   5  22
TORSDOF 3
ENDMDL
MODEL 6
REMARK VINA RESULT:      -6.6      2.532      3.187
REMARK  Name = 51352361
REMARK  3 active torsions:
REMARK  status: ('A' for Active; 'I' for Inactive)
REMARK    1  A    between atoms: C_2  and  C_14
REMARK    2  A    between atoms: C_5  and  N_22
REMARK    3  A    between atoms: C_23  and  C_27
REMARK                            x       y       z     vdW  Elec       q    Type
REMARK                         _______ _______ _______ _____ _____    ______ ____
ROOT
ATOM      1  F   UNL     1     -37.037  26.315   4.391  0.00  0.00    -0.204 F 
ATOM      2  C   UNL     1     -35.248  25.067   3.454  0.00  0.00    +0.028 C 
ATOM      3  C   UNL     1     -34.807  23.925   2.785  0.00  0.00    +0.014 C 
ATOM      4  C   UNL     1     -36.602  25.222   3.749  0.00  0.00    +0.138 C 
ATOM      5  C   UNL     1     -35.719  22.938   2.411  0.00  0.00    +0.050 C 
ATOM      6  C   UNL     1     -37.515  24.235   3.376  0.00  0.00    +0.031 C 
ATOM      7  C   UNL     1     -37.073  23.094   2.706  0.00  0.00    +0.017 C 
ENDROOT
BRANCH   2  14
ATOM      8  S   UNL     1     -34.627  27.752   1.649  0.00  0.00    +0.061 S 
ATOM      9  O   UNL     1     -34.523  29.172   1.367  0.00  0.00    -0.154 OA
ATOM     10  O   UNL     1     -35.700  26.964   1.076  0.00  0.00    -0.154 OA
ATOM     11  N   UNL     1     -33.120  26.997   1.302  0.00  0.00    -0.165 N 
ATOM     12  N   UNL     1     -32.864  25.866   3.431  0.00  0.00    -0.240 NA
ATOM     13  N   UNL     1     -31.114  25.876   1.915  0.00  0.00    -0.330 N 
ATOM     14  C   UNL     1     -34.240  26.152   3.862  0.00  0.00    +0.132 C 
ATOM     15  C   UNL     1     -34.639  27.567   3.416  0.00  0.00    +0.199 C 
ATOM     16  C   UNL     1     -34.166  26.151   5.408  0.00  0.00    +0.031 C 
ATOM     17  C   UNL     1     -32.390  26.222   2.282  0.00  0.00    +0.197 C 
ATOM     18  C   UNL     1     -32.637  27.209  -0.096  0.00  0.00    +0.142 C 
ATOM     19  H   UNL     1     -30.763  26.151   1.038  0.00  0.00    +0.145 HD
ATOM     20  H   UNL     1     -30.550  25.351   2.528  0.00  0.00    +0.145 HD
ENDBRANCH   2  14
BRANCH   5  22
ATOM     21  O   UNL     1     -35.025  20.219   3.465  0.00  0.00    -0.268 OA
ATOM     22  N   UNL     1     -35.278  21.798   1.741  0.00  0.00    -0.279 N 
ATOM     23  C   UNL     1     -34.965  20.544   2.284  0.00  0.00    +0.267 C 
ATOM     24  H   UNL     1     -35.172  21.884   0.766  0.00  0.00    +0.155 HD
BRANCH  23  27
ATOM     25  F   UNL     1     -33.543  16.717  -1.477  0.00  0.00    -0.203 F 
ATOM     26  N   UNL     1     -35.393  19.301   0.271  0.00  0.00    -0.237 NA
ATOM     27  C   UNL     1     -34.544  19.511   1.302  0.00  0.00    +0.135 C 
ATOM     28  C   UNL     1     -33.349  18.832   1.473  0.00  0.00    +0.026 C 
ATOM     29  C   UNL     1     -33.002  17.875   0.525  0.00  0.00    +0.033 C 
ATOM     30  C   UNL     1     -35.023  18.364  -0.629  0.00  0.00    +0.129 C 
ATOM     31  C   UNL     1     -33.851  17.631  -0.549  0.00  0.00    +0.159 C 
ENDBRANCH  23  27
ENDBRANCH   5  22
TORSDOF 3
ENDMDL
MODEL 7
REMARK VINA RESULT:      -6.6      4.747      9.453
REMARK  Name = 51352361
REMARK  3 active torsions:
REMARK  status: ('A' for Active; 'I' for Inactive)
REMARK    1  A    between atoms: C_2  and  C_14
REMARK    2  A    between atoms: C_5  and  N_22
REMARK    3  A    between atoms: C_23  and  C_27
REMARK                            x       y       z     vdW  Elec       q    Type
REMARK                         _______ _______ _______ _____ _____    ______ ____
ROOT
ATOM      1  F   UNL     1     -38.224  23.642  -0.190  0.00  0.00    -0.204 F 
ATOM      2  C   UNL     1     -38.539  25.300   1.480  0.00  0.00    +0.028 C 
ATOM      3  C   UNL     1     -39.400  25.992   2.332  0.00  0.00    +0.014 C 
ATOM      4  C   UNL     1     -39.043  24.314   0.632  0.00  0.00    +0.138 C 
ATOM      5  C   UNL     1     -40.764  25.700   2.335  0.00  0.00    +0.050 C 
ATOM      6  C   UNL     1     -40.407  24.022   0.634  0.00  0.00    +0.031 C 
ATOM      7  C   UNL     1     -41.267  24.715   1.486  0.00  0.00    +0.017 C 
ENDROOT
BRANCH   2  14
ATOM      8  S   UNL     1     -36.256  23.367   2.862  0.00  0.00    +0.061 S 
ATOM      9  O   UNL     1     -35.060  22.547   2.913  0.00  0.00    -0.154 OA
ATOM     10  O   UNL     1     -37.570  22.758   2.915  0.00  0.00    -0.154 OA
ATOM     11  N   UNL     1     -36.150  24.593   4.065  0.00  0.00    -0.165 N 
ATOM     12  N   UNL     1     -36.621  26.472   2.607  0.00  0.00    -0.240 NA
ATOM     13  N   UNL     1     -35.934  26.849   4.786  0.00  0.00    -0.330 N 
ATOM     14  C   UNL     1     -37.038  25.623   1.481  0.00  0.00    +0.132 C 
ATOM     15  C   UNL     1     -36.136  24.381   1.408  0.00  0.00    +0.199 C 
ATOM     16  C   UNL     1     -36.752  26.484   0.226  0.00  0.00    +0.031 C 
ATOM     17  C   UNL     1     -36.258  26.002   3.756  0.00  0.00    +0.197 C 
ATOM     18  C   UNL     1     -35.942  24.074   5.450  0.00  0.00    +0.142 C 
ATOM     19  H   UNL     1     -35.659  26.482   5.657  0.00  0.00    +0.145 HD
ATOM     20  H   UNL     1     -35.978  27.824   4.655  0.00  0.00    +0.145 HD
ENDBRANCH   2  14
BRANCH   5  22
ATOM     21  O   UNL     1     -42.014  28.409   2.044  0.00  0.00    -0.268 OA
ATOM     22  N   UNL     1     -41.623  26.392   3.188  0.00  0.00    -0.279 N 
ATOM     23  C   UNL     1     -42.182  27.664   3.004  0.00  0.00    +0.267 C 
ATOM     24  H   UNL     1     -41.867  25.930   4.022  0.00  0.00    +0.155 HD
BRANCH  23  27
ATOM     25  F   UNL     1     -45.466  29.520   7.076  0.00  0.00    -0.203 F 
ATOM     26  N   UNL     1     -42.719  29.258   4.722  0.00  0.00    -0.237 NA
ATOM     27  C   UNL     1     -43.091  28.124   4.087  0.00  0.00    +0.135 C 
ATOM     28  C   UNL     1     -44.234  27.403   4.390  0.00  0.00    +0.026 C 
ATOM     29  C   UNL     1     -45.050  27.878   5.412  0.00  0.00    +0.033 C 
ATOM     30  C   UNL     1     -43.536  29.687   5.709  0.00  0.00    +0.129 C 
ATOM     31  C   UNL     1     -44.700  29.040   6.089  0.00  0.00    +0.159 C 
ENDBRANCH  23  27
ENDBRANCH   5  22
TORSDOF 3
ENDMDL
MODEL 8
REMARK VINA RESULT:      -6.5      2.954      4.194
REMARK  Name = 51352361
REMARK  3 active torsions:
REMARK  status: ('A' for Active; 'I' for Inactive)
REMARK    1  A    between atoms: C_2  and  C_14
REMARK    2  A    between atoms: C_5  and  N_22
REMARK    3  A    between atoms: C_23  and  C_27
REMARK                            x       y       z     vdW  Elec       q    Type
REMARK                         _______ _______ _______ _____ _____    ______ ____
ROOT
ATOM      1  F   UNL     1     -38.611  25.154   0.164  0.00  0.00    -0.204 F 
ATOM      2  C   UNL     1     -37.157  23.826   1.491  0.00  0.00    +0.028 C 
ATOM      3  C   UNL     1     -36.167  22.846   1.568  0.00  0.00    +0.014 C 
ATOM      4  C   UNL     1     -37.659  24.213   0.249  0.00  0.00    +0.138 C 
ATOM      5  C   UNL     1     -35.680  22.253   0.403  0.00  0.00    +0.050 C 
ATOM      6  C   UNL     1     -37.173  23.620  -0.916  0.00  0.00    +0.031 C 
ATOM      7  C   UNL     1     -36.183  22.641  -0.839  0.00  0.00    +0.017 C 
ENDROOT
BRANCH   2  14
ATOM      8  S   UNL     1     -35.622  26.279   3.065  0.00  0.00    +0.061 S 
ATOM      9  O   UNL     1     -35.473  27.600   3.649  0.00  0.00    -0.154 OA
ATOM     10  O   UNL     1     -34.950  25.941   1.826  0.00  0.00    -0.154 OA
ATOM     11  N   UNL     1     -35.249  25.093   4.255  0.00  0.00    -0.165 N 
ATOM     12  N   UNL     1     -37.273  23.783   4.003  0.00  0.00    -0.240 NA
ATOM     13  N   UNL     1     -35.813  23.323   5.740  0.00  0.00    -0.330 N 
ATOM     14  C   UNL     1     -37.690  24.477   2.776  0.00  0.00    +0.132 C 
ATOM     15  C   UNL     1     -37.364  25.974   2.893  0.00  0.00    +0.199 C 
ATOM     16  C   UNL     1     -39.232  24.334   2.759  0.00  0.00    +0.031 C 
ATOM     17  C   UNL     1     -36.174  24.046   4.631  0.00  0.00    +0.197 C 
ATOM     18  C   UNL     1     -33.890  25.238   4.859  0.00  0.00    +0.142 C 
ATOM     19  H   UNL     1     -34.974  23.531   6.212  0.00  0.00    +0.145 HD
ATOM     20  H   UNL     1     -36.391  22.595   6.064  0.00  0.00    +0.145 HD
ENDBRANCH   2  14
BRANCH   5  22
ATOM     21  O   UNL     1     -32.759  22.400  -0.252  0.00  0.00    -0.268 OA
ATOM     22  N   UNL     1     -34.689  21.275   0.481  0.00  0.00    -0.279 N 
ATOM     23  C   UNL     1     -33.330  21.396   0.160  0.00  0.00    +0.267 C 
ATOM     24  H   UNL     1     -34.980  20.390   0.799  0.00  0.00    +0.155 HD
BRANCH  23  27
ATOM     25  F   UNL     1     -30.147  16.904   0.872  0.00  0.00    -0.203 F 
ATOM     26  N   UNL     1     -31.277  20.189  -0.172  0.00  0.00    -0.237 NA
ATOM     27  C   UNL     1     -32.513  20.173   0.375  0.00  0.00    +0.135 C 
ATOM     28  C   UNL     1     -33.028  19.109   1.098  0.00  0.00    +0.026 C 
ATOM     29  C   UNL     1     -32.222  17.989   1.271  0.00  0.00    +0.033 C 
ATOM     30  C   UNL     1     -30.523  19.083   0.016  0.00  0.00    +0.129 C 
ATOM     31  C   UNL     1     -30.945  17.968   0.722  0.00  0.00    +0.159 C 
ENDBRANCH  23  27
ENDBRANCH   5  22
TORSDOF 3
ENDMDL
MODEL 9
REMARK VINA RESULT:      -6.5      4.332      8.476
REMARK  Name = 51352361
REMARK  3 active torsions:
REMARK  status: ('A' for Active; 'I' for Inactive)
REMARK    1  A    between atoms: C_2  and  C_14
REMARK    2  A    between atoms: C_5  and  N_22
REMARK    3  A    between atoms: C_23  and  C_27
REMARK                            x       y       z     vdW  Elec       q    Type
REMARK                         _______ _______ _______ _____ _____    ______ ____
ROOT
ATOM      1  F   UNL     1     -36.377  22.390   2.198  0.00  0.00    -0.204 F 
ATOM      2  C   UNL     1     -37.163  24.344   3.293  0.00  0.00    +0.028 C 
ATOM      3  C   UNL     1     -38.233  25.153   3.676  0.00  0.00    +0.014 C 
ATOM      4  C   UNL     1     -37.398  23.175   2.571  0.00  0.00    +0.138 C 
ATOM      5  C   UNL     1     -39.537  24.794   3.337  0.00  0.00    +0.050 C 
ATOM      6  C   UNL     1     -38.703  22.815   2.230  0.00  0.00    +0.031 C 
ATOM      7  C   UNL     1     -39.771  23.624   2.615  0.00  0.00    +0.017 C 
ENDROOT
BRANCH   2  14
ATOM      8  S   UNL     1     -35.783  27.211   2.438  0.00  0.00    +0.061 S 
ATOM      9  O   UNL     1     -35.127  28.489   2.650  0.00  0.00    -0.154 OA
ATOM     10  O   UNL     1     -37.177  27.155   2.045  0.00  0.00    -0.154 OA
ATOM     11  N   UNL     1     -34.846  26.271   1.343  0.00  0.00    -0.165 N 
ATOM     12  N   UNL     1     -34.717  24.274   2.711  0.00  0.00    -0.240 NA
ATOM     13  N   UNL     1     -33.449  24.430   0.780  0.00  0.00    -0.330 N 
ATOM     14  C   UNL     1     -35.728  24.743   3.670  0.00  0.00    +0.132 C 
ATOM     15  C   UNL     1     -35.549  26.250   3.914  0.00  0.00    +0.199 C 
ATOM     16  C   UNL     1     -35.378  24.010   4.987  0.00  0.00    +0.031 C 
ATOM     17  C   UNL     1     -34.358  24.949   1.669  0.00  0.00    +0.197 C 
ATOM     18  C   UNL     1     -34.585  26.938   0.032  0.00  0.00    +0.142 C 
ATOM     19  H   UNL     1     -33.181  24.952  -0.010  0.00  0.00    +0.145 HD
ATOM     20  H   UNL     1     -33.066  23.536   0.932  0.00  0.00    +0.145 HD
ENDBRANCH   2  14
BRANCH   5  22
ATOM     21  O   UNL     1     -40.820  27.108   1.929  0.00  0.00    -0.268 OA
ATOM     22  N   UNL     1     -40.606  25.602   3.722  0.00  0.00    -0.279 N 
ATOM     23  C   UNL     1     -41.170  26.679   3.023  0.00  0.00    +0.267 C 
ATOM     24  H   UNL     1     -41.014  25.392   4.593  0.00  0.00    +0.155 HD
BRANCH  23  27
ATOM     25  F   UNL     1     -45.389  29.255   5.548  0.00  0.00    -0.203 F 
ATOM     26  N   UNL     1     -42.067  28.511   4.295  0.00  0.00    -0.237 NA
ATOM     27  C   UNL     1     -42.328  27.333   3.686  0.00  0.00    +0.135 C 
ATOM     28  C   UNL     1     -43.578  26.734   3.656  0.00  0.00    +0.026 C 
ATOM     29  C   UNL     1     -44.628  27.389   4.292  0.00  0.00    +0.033 C 
ATOM     30  C   UNL     1     -43.112  29.117   4.902  0.00  0.00    +0.129 C 
ATOM     31  C   UNL     1     -44.398  28.603   4.929  0.00  0.00    +0.159 C 
ENDBRANCH  23  27
ENDBRANCH   5  22
TORSDOF 3
ENDMDL
