MODEL 1
REMARK VINA RESULT:      -6.6      0.000      0.000
REMARK  Name = 54693454
REMARK  2 active torsions:
REMARK  status: ('A' for Active; 'I' for Inactive)
REMARK    1  A    between atoms: C_10  and  O_27
REMARK    2  A    between atoms: C_13  and  O_29
REMARK                            x       y       z     vdW  Elec       q    Type
REMARK                         _______ _______ _______ _____ _____    ______ ____
ROOT
ATOM      1  O   UNL     1     -32.330  29.482   2.588  0.00  0.00    -0.350 OA
ATOM      2  O   UNL     1     -33.484  27.371   5.413  0.00  0.00    -0.473 OA
ATOM      3  O   UNL     1     -36.443  23.758   0.679  0.00  0.00    -0.289 OA
ATOM      4  O   UNL     1     -39.579  26.250   3.192  0.00  0.00    -0.270 OA
ATOM      5  N   UNL     1     -38.601  24.132   3.375  0.00  0.00    -0.295 N 
ATOM      6  C   UNL     1     -32.931  28.326   1.995  0.00  0.00    +0.146 C 
ATOM      7  C   UNL     1     -33.216  28.718   3.424  0.00  0.00    +0.186 C 
ATOM      8  C   UNL     1     -33.912  28.617   0.905  0.00  0.00    +0.035 C 
ATOM      9  C   UNL     1     -34.921  27.471   0.762  0.00  0.00    +0.032 C 
ATOM     10  C   UNL     1     -35.926  27.694  -0.381  0.00  0.00    +0.118 C 
ATOM     11  C   UNL     1     -32.537  28.029   4.563  0.00  0.00    +0.237 C 
ATOM     12  C   UNL     1     -36.980  26.559  -0.471  0.00  0.00    +0.084 C 
ATOM     13  C   UNL     1     -37.851  26.473   0.772  0.00  0.00    +0.120 C 
ATOM     14  C   UNL     1     -37.876  26.728  -1.710  0.00  0.00    +0.010 C 
ATOM     15  C   UNL     1     -37.636  23.259   2.725  0.00  0.00    +0.139 C 
ATOM     16  C   UNL     1     -37.950  25.418   1.602  0.00  0.00    +0.119 C 
ATOM     17  C   UNL     1     -37.236  24.109   1.536  0.00  0.00    +0.198 C 
ATOM     18  C   UNL     1     -36.467  22.865   3.633  0.00  0.00    +0.054 C 
ATOM     19  C   UNL     1     -38.825  25.376   2.803  0.00  0.00    +0.252 C 
ATOM     20  C   UNL     1     -34.111  26.249   4.940  0.00  0.00    +0.139 C 
ATOM     21  C   UNL     1     -35.625  24.019   4.121  0.00  0.00    -0.020 C 
ATOM     22  C   UNL     1     -35.276  25.891   5.625  0.00  0.00    +0.037 C 
ATOM     23  C   UNL     1     -33.682  25.463   3.872  0.00  0.00    +0.037 C 
ATOM     24  C   UNL     1     -36.027  24.787   5.220  0.00  0.00    -0.001 C 
ATOM     25  C   UNL     1     -34.438  24.361   3.461  0.00  0.00    -0.001 C 
ATOM     26  H   UNL     1     -39.077  23.850   4.190  0.00  0.00    +0.150 HD
ENDROOT
BRANCH  10  27
ATOM     27  O   UNL     1     -35.211  27.738  -1.619  0.00  0.00    -0.384 OA
ATOM     28  H   UNL     1     -35.637  28.373  -2.215  0.00  0.00    +0.210 HD
ENDBRANCH  10  27
BRANCH  13  29
ATOM     29  O   UNL     1     -38.573  27.641   0.980  0.00  0.00    -0.509 OA
ATOM     30  H   UNL     1     -39.105  27.992   0.294  0.00  0.00    +0.292 HD
ENDBRANCH  13  29
TORSDOF 2
ENDMDL
MODEL 2
REMARK VINA RESULT:      -6.4      3.809      6.411
REMARK  Name = 54693454
REMARK  2 active torsions:
REMARK  status: ('A' for Active; 'I' for Inactive)
REMARK    1  A    between atoms: C_10  and  O_27
REMARK    2  A    between atoms: C_13  and  O_29
REMARK                            x       y       z     vdW  Elec       q    Type
REMARK                         _______ _______ _______ _____ _____    ______ ____
ROOT
ATOM      1  O   UNL     1     -35.243  23.289   6.154  0.00  0.00    -0.350 OA
ATOM      2  O   UNL     1     -33.279  25.800   4.256  0.00  0.00    -0.473 OA
ATOM      3  O   UNL     1     -35.674  22.690  -1.112  0.00  0.00    -0.289 OA
ATOM      4  O   UNL     1     -31.082  21.765  -0.459  0.00  0.00    -0.270 OA
ATOM      5  N   UNL     1     -32.308  23.408  -1.589  0.00  0.00    -0.295 N 
ATOM      6  C   UNL     1     -35.622  23.130   4.782  0.00  0.00    +0.146 C 
ATOM      7  C   UNL     1     -34.346  23.834   5.171  0.00  0.00    +0.186 C 
ATOM      8  C   UNL     1     -35.604  21.721   4.285  0.00  0.00    +0.035 C 
ATOM      9  C   UNL     1     -35.406  21.683   2.764  0.00  0.00    +0.032 C 
ATOM     10  C   UNL     1     -35.431  20.257   2.190  0.00  0.00    +0.118 C 
ATOM     11  C   UNL     1     -34.262  25.326   5.185  0.00  0.00    +0.237 C 
ATOM     12  C   UNL     1     -35.164  20.230   0.661  0.00  0.00    +0.084 C 
ATOM     13  C   UNL     1     -33.780  20.748   0.302  0.00  0.00    +0.120 C 
ATOM     14  C   UNL     1     -35.342  18.814   0.089  0.00  0.00    +0.010 C 
ATOM     15  C   UNL     1     -33.673  23.833  -1.855  0.00  0.00    +0.139 C 
ATOM     16  C   UNL     1     -33.506  21.814  -0.471  0.00  0.00    +0.119 C 
ATOM     17  C   UNL     1     -34.456  22.753  -1.136  0.00  0.00    +0.198 C 
ATOM     18  C   UNL     1     -33.973  25.253  -1.365  0.00  0.00    +0.054 C 
ATOM     19  C   UNL     1     -32.133  22.278  -0.802  0.00  0.00    +0.252 C 
ATOM     20  C   UNL     1     -33.549  25.699   2.918  0.00  0.00    +0.139 C 
ATOM     21  C   UNL     1     -33.826  25.454   0.125  0.00  0.00    -0.020 C 
ATOM     22  C   UNL     1     -32.433  25.802   2.081  0.00  0.00    +0.037 C 
ATOM     23  C   UNL     1     -34.809  25.519   2.350  0.00  0.00    +0.037 C 
ATOM     24  C   UNL     1     -32.569  25.680   0.698  0.00  0.00    -0.001 C 
ATOM     25  C   UNL     1     -34.945  25.389   0.965  0.00  0.00    -0.001 C 
ATOM     26  H   UNL     1     -31.539  23.903  -1.952  0.00  0.00    +0.150 HD
ENDROOT
BRANCH  10  27
ATOM     27  O   UNL     1     -36.721  19.688   2.427  0.00  0.00    -0.384 OA
ATOM     28  H   UNL     1     -36.829  18.894   1.880  0.00  0.00    +0.210 HD
ENDBRANCH  10  27
BRANCH  13  29
ATOM     29  O   UNL     1     -32.776  19.977   0.873  0.00  0.00    -0.509 OA
ATOM     30  H   UNL     1     -32.956  19.099   1.146  0.00  0.00    +0.292 HD
ENDBRANCH  13  29
TORSDOF 2
ENDMDL
MODEL 3
REMARK VINA RESULT:      -6.3      3.406      7.260
REMARK  Name = 54693454
REMARK  2 active torsions:
REMARK  status: ('A' for Active; 'I' for Inactive)
REMARK    1  A    between atoms: C_10  and  O_27
REMARK    2  A    between atoms: C_13  and  O_29
REMARK                            x       y       z     vdW  Elec       q    Type
REMARK                         _______ _______ _______ _____ _____    ______ ____
ROOT
ATOM      1  O   UNL     1     -40.923  20.370  -0.998  0.00  0.00    -0.350 OA
ATOM      2  O   UNL     1     -41.173  23.645   0.727  0.00  0.00    -0.473 OA
ATOM      3  O   UNL     1     -34.526  23.449   0.712  0.00  0.00    -0.289 OA
ATOM      4  O   UNL     1     -36.287  22.704   5.037  0.00  0.00    -0.270 OA
ATOM      5  N   UNL     1     -35.648  24.583   3.798  0.00  0.00    -0.295 N 
ATOM      6  C   UNL     1     -39.589  20.887  -0.940  0.00  0.00    +0.146 C 
ATOM      7  C   UNL     1     -40.675  21.405  -0.031  0.00  0.00    +0.186 C 
ATOM      8  C   UNL     1     -38.562  19.922  -0.444  0.00  0.00    +0.035 C 
ATOM      9  C   UNL     1     -37.364  20.666   0.161  0.00  0.00    +0.032 C 
ATOM     10  C   UNL     1     -36.251  19.721   0.644  0.00  0.00    +0.118 C 
ATOM     11  C   UNL     1     -41.378  22.692  -0.323  0.00  0.00    +0.237 C 
ATOM     12  C   UNL     1     -35.076  20.484   1.312  0.00  0.00    +0.084 C 
ATOM     13  C   UNL     1     -35.503  21.223   2.570  0.00  0.00    +0.120 C 
ATOM     14  C   UNL     1     -33.914  19.534   1.648  0.00  0.00    +0.010 C 
ATOM     15  C   UNL     1     -35.132  24.971   2.494  0.00  0.00    +0.139 C 
ATOM     16  C   UNL     1     -35.436  22.552   2.772  0.00  0.00    +0.119 C 
ATOM     17  C   UNL     1     -34.966  23.616   1.837  0.00  0.00    +0.198 C 
ATOM     18  C   UNL     1     -36.058  25.925   1.735  0.00  0.00    +0.054 C 
ATOM     19  C   UNL     1     -35.858  23.231   4.026  0.00  0.00    +0.252 C 
ATOM     20  C   UNL     1     -39.931  24.205   0.862  0.00  0.00    +0.139 C 
ATOM     21  C   UNL     1     -37.426  25.367   1.419  0.00  0.00    -0.020 C 
ATOM     22  C   UNL     1     -39.685  24.803   2.102  0.00  0.00    +0.037 C 
ATOM     23  C   UNL     1     -38.935  24.229  -0.113  0.00  0.00    +0.037 C 
ATOM     24  C   UNL     1     -38.444  25.378   2.379  0.00  0.00    -0.001 C 
ATOM     25  C   UNL     1     -37.690  24.799   0.167  0.00  0.00    -0.001 C 
ATOM     26  H   UNL     1     -35.843  25.255   4.490  0.00  0.00    +0.150 HD
ENDROOT
BRANCH  10  27
ATOM     27  O   UNL     1     -35.735  19.005  -0.481  0.00  0.00    -0.384 OA
ATOM     28  H   UNL     1     -35.937  19.493  -1.295  0.00  0.00    +0.210 HD
ENDBRANCH  10  27
BRANCH  13  29
ATOM     29  O   UNL     1     -35.988  20.356   3.540  0.00  0.00    -0.509 OA
ATOM     30  H   UNL     1     -36.059  20.640   4.430  0.00  0.00    +0.292 HD
ENDBRANCH  13  29
TORSDOF 2
ENDMDL
MODEL 4
REMARK VINA RESULT:      -6.1      3.624      5.503
REMARK  Name = 54693454
REMARK  2 active torsions:
REMARK  status: ('A' for Active; 'I' for Inactive)
REMARK    1  A    between atoms: C_10  and  O_27
REMARK    2  A    between atoms: C_13  and  O_29
REMARK                            x       y       z     vdW  Elec       q    Type
REMARK                         _______ _______ _______ _____ _____    ______ ____
ROOT
ATOM      1  O   UNL     1     -30.712  22.544  -1.615  0.00  0.00    -0.350 OA
ATOM      2  O   UNL     1     -32.725  19.825  -0.092  0.00  0.00    -0.473 OA
ATOM      3  O   UNL     1     -36.920  24.713   1.559  0.00  0.00    -0.289 OA
ATOM      4  O   UNL     1     -34.575  23.077   5.325  0.00  0.00    -0.270 OA
ATOM      5  N   UNL     1     -36.572  22.527   4.236  0.00  0.00    -0.295 N 
ATOM      6  C   UNL     1     -31.957  23.140  -1.239  0.00  0.00    +0.146 C 
ATOM      7  C   UNL     1     -31.499  21.833  -0.644  0.00  0.00    +0.186 C 
ATOM      8  C   UNL     1     -31.838  24.420  -0.477  0.00  0.00    +0.035 C 
ATOM      9  C   UNL     1     -33.082  24.656   0.388  0.00  0.00    +0.032 C 
ATOM     10  C   UNL     1     -33.035  25.987   1.158  0.00  0.00    +0.118 C 
ATOM     11  C   UNL     1     -32.039  20.528  -1.135  0.00  0.00    +0.237 C 
ATOM     12  C   UNL     1     -34.269  26.182   2.078  0.00  0.00    +0.084 C 
ATOM     13  C   UNL     1     -34.353  25.127   3.171  0.00  0.00    +0.120 C 
ATOM     14  C   UNL     1     -34.272  27.580   2.718  0.00  0.00    +0.010 C 
ATOM     15  C   UNL     1     -37.390  22.901   3.093  0.00  0.00    +0.139 C 
ATOM     16  C   UNL     1     -35.354  24.245   3.349  0.00  0.00    +0.119 C 
ATOM     17  C   UNL     1     -36.590  24.059   2.533  0.00  0.00    +0.198 C 
ATOM     18  C   UNL     1     -37.608  21.754   2.102  0.00  0.00    +0.054 C 
ATOM     19  C   UNL     1     -35.397  23.236   4.440  0.00  0.00    +0.252 C 
ATOM     20  C   UNL     1     -33.932  20.311   0.335  0.00  0.00    +0.139 C 
ATOM     21  C   UNL     1     -36.347  21.213   1.470  0.00  0.00    -0.020 C 
ATOM     22  C   UNL     1     -34.353  19.836   1.580  0.00  0.00    +0.037 C 
ATOM     23  C   UNL     1     -34.745  21.205  -0.361  0.00  0.00    +0.037 C 
ATOM     24  C   UNL     1     -35.549  20.283   2.144  0.00  0.00    -0.001 C 
ATOM     25  C   UNL     1     -35.939  21.658   0.206  0.00  0.00    -0.001 C 
ATOM     26  H   UNL     1     -36.841  21.799   4.840  0.00  0.00    +0.150 HD
ENDROOT
BRANCH  10  27
ATOM     27  O   UNL     1     -33.008  27.062   0.216  0.00  0.00    -0.384 OA
ATOM     28  H   UNL     1     -32.297  27.679   0.450  0.00  0.00    +0.210 HD
ENDBRANCH  10  27
BRANCH  13  29
ATOM     29  O   UNL     1     -33.248  25.164   4.011  0.00  0.00    -0.509 OA
ATOM     30  H   UNL     1     -33.301  25.603   4.836  0.00  0.00    +0.292 HD
ENDBRANCH  13  29
TORSDOF 2
ENDMDL
MODEL 5
REMARK VINA RESULT:      -6.1      3.139      5.534
REMARK  Name = 54693454
REMARK  2 active torsions:
REMARK  status: ('A' for Active; 'I' for Inactive)
REMARK    1  A    between atoms: C_10  and  O_27
REMARK    2  A    between atoms: C_13  and  O_29
REMARK                            x       y       z     vdW  Elec       q    Type
REMARK                         _______ _______ _______ _____ _____    ______ ____
ROOT
ATOM      1  O   UNL     1     -32.635  20.108  -0.526  0.00  0.00    -0.350 OA
ATOM      2  O   UNL     1     -34.759  19.910   2.510  0.00  0.00    -0.473 OA
ATOM      3  O   UNL     1     -35.998  26.329   1.294  0.00  0.00    -0.289 OA
ATOM      4  O   UNL     1     -33.164  25.775   5.039  0.00  0.00    -0.270 OA
ATOM      5  N   UNL     1     -35.478  25.870   4.698  0.00  0.00    -0.295 N 
ATOM      6  C   UNL     1     -33.350  21.346  -0.465  0.00  0.00    +0.146 C 
ATOM      7  C   UNL     1     -33.199  20.463   0.748  0.00  0.00    +0.186 C 
ATOM      8  C   UNL     1     -32.507  22.568  -0.639  0.00  0.00    +0.035 C 
ATOM      9  C   UNL     1     -33.167  23.783   0.026  0.00  0.00    +0.032 C 
ATOM     10  C   UNL     1     -32.366  25.082  -0.165  0.00  0.00    +0.118 C 
ATOM     11  C   UNL     1     -34.310  19.567   1.193  0.00  0.00    +0.237 C 
ATOM     12  C   UNL     1     -33.010  26.288   0.568  0.00  0.00    +0.084 C 
ATOM     13  C   UNL     1     -33.050  26.099   2.077  0.00  0.00    +0.120 C 
ATOM     14  C   UNL     1     -32.277  27.598   0.238  0.00  0.00    +0.010 C 
ATOM     15  C   UNL     1     -36.473  26.004   3.645  0.00  0.00    +0.139 C 
ATOM     16  C   UNL     1     -34.154  26.059   2.844  0.00  0.00    +0.119 C 
ATOM     17  C   UNL     1     -35.584  26.160   2.428  0.00  0.00    +0.198 C 
ATOM     18  C   UNL     1     -37.437  24.817   3.567  0.00  0.00    +0.054 C 
ATOM     19  C   UNL     1     -34.142  25.881   4.320  0.00  0.00    +0.252 C 
ATOM     20  C   UNL     1     -35.460  21.074   2.674  0.00  0.00    +0.139 C 
ATOM     21  C   UNL     1     -36.785  23.488   3.268  0.00  0.00    -0.020 C 
ATOM     22  C   UNL     1     -35.524  21.545   3.989  0.00  0.00    +0.037 C 
ATOM     23  C   UNL     1     -36.099  21.792   1.664  0.00  0.00    +0.037 C 
ATOM     24  C   UNL     1     -36.180  22.740   4.284  0.00  0.00    -0.001 C 
ATOM     25  C   UNL     1     -36.749  22.994   1.958  0.00  0.00    -0.001 C 
ATOM     26  H   UNL     1     -35.742  25.775   5.641  0.00  0.00    +0.150 HD
ENDROOT
BRANCH  10  27
ATOM     27  O   UNL     1     -32.311  25.387  -1.561  0.00  0.00    -0.384 OA
ATOM     28  H   UNL     1     -32.433  24.573  -2.075  0.00  0.00    +0.210 HD
ENDBRANCH  10  27
BRANCH  13  29
ATOM     29  O   UNL     1     -31.776  25.969   2.614  0.00  0.00    -0.509 OA
ATOM     30  H   UNL     1     -31.253  25.221   2.404  0.00  0.00    +0.292 HD
ENDBRANCH  13  29
TORSDOF 2
ENDMDL
MODEL 6
REMARK VINA RESULT:      -6.1      2.612      4.535
REMARK  Name = 54693454
REMARK  2 active torsions:
REMARK  status: ('A' for Active; 'I' for Inactive)
REMARK    1  A    between atoms: C_10  and  O_27
REMARK    2  A    between atoms: C_13  and  O_29
REMARK                            x       y       z     vdW  Elec       q    Type
REMARK                         _______ _______ _______ _____ _____    ______ ____
ROOT
ATOM      1  O   UNL     1     -31.868  24.942  -1.663  0.00  0.00    -0.350 OA
ATOM      2  O   UNL     1     -33.153  27.735   0.415  0.00  0.00    -0.473 OA
ATOM      3  O   UNL     1     -34.873  22.934   4.682  0.00  0.00    -0.289 OA
ATOM      4  O   UNL     1     -38.647  24.772   2.505  0.00  0.00    -0.270 OA
ATOM      5  N   UNL     1     -37.443  25.259   4.452  0.00  0.00    -0.295 N 
ATOM      6  C   UNL     1     -32.219  24.365  -0.402  0.00  0.00    +0.146 C 
ATOM      7  C   UNL     1     -32.764  25.702  -0.834  0.00  0.00    +0.186 C 
ATOM      8  C   UNL     1     -33.052  23.127  -0.487  0.00  0.00    +0.035 C 
ATOM      9  C   UNL     1     -33.873  22.935   0.795  0.00  0.00    +0.032 C 
ATOM     10  C   UNL     1     -34.713  21.647   0.783  0.00  0.00    +0.118 C 
ATOM     11  C   UNL     1     -32.181  26.978  -0.317  0.00  0.00    +0.237 C 
ATOM     12  C   UNL     1     -35.587  21.499   2.057  0.00  0.00    +0.084 C 
ATOM     13  C   UNL     1     -36.617  22.610   2.189  0.00  0.00    +0.120 C 
ATOM     14  C   UNL     1     -36.300  20.137   2.090  0.00  0.00    +0.010 C 
ATOM     15  C   UNL     1     -36.286  24.824   5.218  0.00  0.00    +0.139 C 
ATOM     16  C   UNL     1     -36.703  23.499   3.196  0.00  0.00    +0.119 C 
ATOM     17  C   UNL     1     -35.825  23.639   4.395  0.00  0.00    +0.198 C 
ATOM     18  C   UNL     1     -35.227  25.916   5.391  0.00  0.00    +0.054 C 
ATOM     19  C   UNL     1     -37.736  24.564   3.287  0.00  0.00    +0.252 C 
ATOM     20  C   UNL     1     -33.551  27.269   1.639  0.00  0.00    +0.139 C 
ATOM     21  C   UNL     1     -34.623  26.425   4.103  0.00  0.00    -0.020 C 
ATOM     22  C   UNL     1     -34.750  27.809   2.115  0.00  0.00    +0.037 C 
ATOM     23  C   UNL     1     -32.868  26.339   2.421  0.00  0.00    +0.037 C 
ATOM     24  C   UNL     1     -35.282  27.391   3.335  0.00  0.00    -0.001 C 
ATOM     25  C   UNL     1     -33.404  25.914   3.639  0.00  0.00    -0.001 C 
ATOM     26  H   UNL     1     -37.995  26.018   4.747  0.00  0.00    +0.150 HD
ENDROOT
BRANCH  10  27
ATOM     27  O   UNL     1     -33.832  20.523   0.715  0.00  0.00    -0.384 OA
ATOM     28  H   UNL     1     -34.200  19.861   0.109  0.00  0.00    +0.210 HD
ENDBRANCH  10  27
BRANCH  13  29
ATOM     29  O   UNL     1     -37.506  22.620   1.123  0.00  0.00    -0.509 OA
ATOM     30  H   UNL     1     -37.881  23.427   0.832  0.00  0.00    +0.292 HD
ENDBRANCH  13  29
TORSDOF 2
ENDMDL
MODEL 7
REMARK VINA RESULT:      -5.9      2.796      3.864
REMARK  Name = 54693454
REMARK  2 active torsions:
REMARK  status: ('A' for Active; 'I' for Inactive)
REMARK    1  A    between atoms: C_10  and  O_27
REMARK    2  A    between atoms: C_13  and  O_29
REMARK                            x       y       z     vdW  Elec       q    Type
REMARK                         _______ _______ _______ _____ _____    ______ ____
ROOT
ATOM      1  O   UNL     1     -35.563  27.191   4.125  0.00  0.00    -0.350 OA
ATOM      2  O   UNL     1     -34.754  23.606   4.631  0.00  0.00    -0.473 OA
ATOM      3  O   UNL     1     -37.501  22.789  -1.370  0.00  0.00    -0.289 OA
ATOM      4  O   UNL     1     -40.287  21.124   2.070  0.00  0.00    -0.270 OA
ATOM      5  N   UNL     1     -38.563  20.250   0.750  0.00  0.00    -0.295 N 
ATOM      6  C   UNL     1     -35.829  26.548   2.875  0.00  0.00    +0.146 C 
ATOM      7  C   UNL     1     -35.734  25.764   4.159  0.00  0.00    +0.186 C 
ATOM      8  C   UNL     1     -37.155  26.877   2.268  0.00  0.00    +0.035 C 
ATOM      9  C   UNL     1     -37.620  25.754   1.333  0.00  0.00    +0.032 C 
ATOM     10  C   UNL     1     -38.958  26.063   0.641  0.00  0.00    +0.118 C 
ATOM     11  C   UNL     1     -34.493  25.010   4.513  0.00  0.00    +0.237 C 
ATOM     12  C   UNL     1     -39.448  24.890  -0.250  0.00  0.00    +0.084 C 
ATOM     13  C   UNL     1     -39.730  23.629   0.551  0.00  0.00    +0.120 C 
ATOM     14  C   UNL     1     -40.705  25.281  -1.045  0.00  0.00    +0.010 C 
ATOM     15  C   UNL     1     -37.622  20.624  -0.294  0.00  0.00    +0.139 C 
ATOM     16  C   UNL     1     -39.118  22.439   0.403  0.00  0.00    +0.119 C 
ATOM     17  C   UNL     1     -38.021  22.065  -0.537  0.00  0.00    +0.198 C 
ATOM     18  C   UNL     1     -36.157  20.441   0.115  0.00  0.00    +0.054 C 
ATOM     19  C   UNL     1     -39.436  21.228   1.205  0.00  0.00    +0.252 C 
ATOM     20  C   UNL     1     -35.014  22.896   3.489  0.00  0.00    +0.139 C 
ATOM     21  C   UNL     1     -35.720  21.273   1.297  0.00  0.00    -0.020 C 
ATOM     22  C   UNL     1     -35.633  21.659   3.691  0.00  0.00    +0.037 C 
ATOM     23  C   UNL     1     -34.708  23.298   2.190  0.00  0.00    +0.037 C 
ATOM     24  C   UNL     1     -35.984  20.855   2.606  0.00  0.00    -0.001 C 
ATOM     25  C   UNL     1     -35.066  22.496   1.102  0.00  0.00    -0.001 C 
ATOM     26  H   UNL     1     -38.579  19.338   1.120  0.00  0.00    +0.150 HD
ENDROOT
BRANCH  10  27
ATOM     27  O   UNL     1     -38.791  27.214  -0.190  0.00  0.00    -0.384 OA
ATOM     28  H   UNL     1     -39.513  27.840  -0.024  0.00  0.00    +0.210 HD
ENDBRANCH  10  27
BRANCH  13  29
ATOM     29  O   UNL     1     -40.730  23.828   1.493  0.00  0.00    -0.509 OA
ATOM     30  H   UNL     1     -41.028  23.113   2.019  0.00  0.00    +0.292 HD
ENDBRANCH  13  29
TORSDOF 2
ENDMDL
MODEL 8
REMARK VINA RESULT:      -5.9      2.733      6.818
REMARK  Name = 54693454
REMARK  2 active torsions:
REMARK  status: ('A' for Active; 'I' for Inactive)
REMARK    1  A    between atoms: C_10  and  O_27
REMARK    2  A    between atoms: C_13  and  O_29
REMARK                            x       y       z     vdW  Elec       q    Type
REMARK                         _______ _______ _______ _____ _____    ______ ____
ROOT
ATOM      1  O   UNL     1     -36.313  24.437   5.509  0.00  0.00    -0.350 OA
ATOM      2  O   UNL     1     -36.492  25.100   1.862  0.00  0.00    -0.473 OA
ATOM      3  O   UNL     1     -30.329  27.477   2.633  0.00  0.00    -0.289 OA
ATOM      4  O   UNL     1     -33.464  30.945   1.920  0.00  0.00    -0.270 OA
ATOM      5  N   UNL     1     -32.137  29.589   0.550  0.00  0.00    -0.295 N 
ATOM      6  C   UNL     1     -34.995  24.831   5.116  0.00  0.00    +0.146 C 
ATOM      7  C   UNL     1     -36.198  25.142   4.261  0.00  0.00    +0.186 C 
ATOM      8  C   UNL     1     -34.369  25.879   5.978  0.00  0.00    +0.035 C 
ATOM      9  C   UNL     1     -33.307  26.664   5.197  0.00  0.00    +0.032 C 
ATOM     10  C   UNL     1     -32.594  27.725   6.052  0.00  0.00    +0.118 C 
ATOM     11  C   UNL     1     -36.527  24.315   3.060  0.00  0.00    +0.237 C 
ATOM     12  C   UNL     1     -31.570  28.554   5.232  0.00  0.00    +0.084 C 
ATOM     13  C   UNL     1     -32.228  29.359   4.121  0.00  0.00    +0.120 C 
ATOM     14  C   UNL     1     -30.766  29.501   6.138  0.00  0.00    +0.010 C 
ATOM     15  C   UNL     1     -31.177  28.498   0.608  0.00  0.00    +0.139 C 
ATOM     16  C   UNL     1     -31.987  29.237   2.803  0.00  0.00    +0.119 C 
ATOM     17  C   UNL     1     -31.062  28.296   2.106  0.00  0.00    +0.198 C 
ATOM     18  C   UNL     1     -31.627  27.251  -0.158  0.00  0.00    +0.054 C 
ATOM     19  C   UNL     1     -32.650  30.054   1.752  0.00  0.00    +0.252 C 
ATOM     20  C   UNL     1     -35.275  25.522   1.398  0.00  0.00    +0.139 C 
ATOM     21  C   UNL     1     -32.904  26.622   0.347  0.00  0.00    -0.020 C 
ATOM     22  C   UNL     1     -35.326  26.581   0.486  0.00  0.00    +0.037 C 
ATOM     23  C   UNL     1     -34.036  24.987   1.748  0.00  0.00    +0.037 C 
ATOM     24  C   UNL     1     -34.152  27.127  -0.035  0.00  0.00    -0.001 C 
ATOM     25  C   UNL     1     -32.860  25.538   1.232  0.00  0.00    -0.001 C 
ATOM     26  H   UNL     1     -32.414  29.980  -0.310  0.00  0.00    +0.150 HD
ENDROOT
BRANCH  10  27
ATOM     27  O   UNL     1     -31.890  27.067   7.108  0.00  0.00    -0.384 OA
ATOM     28  H   UNL     1     -32.432  27.075   7.912  0.00  0.00    +0.210 HD
ENDBRANCH  10  27
BRANCH  13  29
ATOM     29  O   UNL     1     -33.143  30.276   4.620  0.00  0.00    -0.509 OA
ATOM     30  H   UNL     1     -34.055  30.179   4.432  0.00  0.00    +0.292 HD
ENDBRANCH  13  29
TORSDOF 2
ENDMDL
MODEL 9
REMARK VINA RESULT:      -5.9      3.109      6.518
REMARK  Name = 54693454
REMARK  2 active torsions:
REMARK  status: ('A' for Active; 'I' for Inactive)
REMARK    1  A    between atoms: C_10  and  O_27
REMARK    2  A    between atoms: C_13  and  O_29
REMARK                            x       y       z     vdW  Elec       q    Type
REMARK                         _______ _______ _______ _____ _____    ______ ____
ROOT
ATOM      1  O   UNL     1     -40.984  26.309   1.640  0.00  0.00    -0.350 OA
ATOM      2  O   UNL     1     -40.390  23.449  -0.647  0.00  0.00    -0.473 OA
ATOM      3  O   UNL     1     -35.785  21.660   3.805  0.00  0.00    -0.289 OA
ATOM      4  O   UNL     1     -33.826  23.331  -0.162  0.00  0.00    -0.270 OA
ATOM      5  N   UNL     1     -34.528  21.230   0.595  0.00  0.00    -0.295 N 
ATOM      6  C   UNL     1     -40.096  25.428   2.334  0.00  0.00    +0.146 C 
ATOM      7  C   UNL     1     -40.272  25.351   0.839  0.00  0.00    +0.186 C 
ATOM      8  C   UNL     1     -38.899  26.090   2.938  0.00  0.00    +0.035 C 
ATOM      9  C   UNL     1     -37.747  25.090   3.098  0.00  0.00    +0.032 C 
ATOM     10  C   UNL     1     -36.504  25.705   3.761  0.00  0.00    +0.118 C 
ATOM     11  C   UNL     1     -41.144  24.308   0.217  0.00  0.00    +0.237 C 
ATOM     12  C   UNL     1     -35.325  24.700   3.856  0.00  0.00    +0.084 C 
ATOM     13  C   UNL     1     -34.829  24.253   2.490  0.00  0.00    +0.120 C 
ATOM     14  C   UNL     1     -34.152  25.291   4.656  0.00  0.00    +0.010 C 
ATOM     15  C   UNL     1     -35.151  20.577   1.735  0.00  0.00    +0.139 C 
ATOM     16  C   UNL     1     -34.826  22.992   2.020  0.00  0.00    +0.119 C 
ATOM     17  C   UNL     1     -35.314  21.747   2.683  0.00  0.00    +0.198 C 
ATOM     18  C   UNL     1     -36.463  19.868   1.385  0.00  0.00    +0.054 C 
ATOM     19  C   UNL     1     -34.321  22.600   0.678  0.00  0.00    +0.252 C 
ATOM     20  C   UNL     1     -39.515  22.562  -0.079  0.00  0.00    +0.139 C 
ATOM     21  C   UNL     1     -37.553  20.772   0.859  0.00  0.00    -0.020 C 
ATOM     22  C   UNL     1     -38.549  22.047  -0.949  0.00  0.00    +0.037 C 
ATOM     23  C   UNL     1     -39.523  22.144   1.251  0.00  0.00    +0.037 C 
ATOM     24  C   UNL     1     -37.576  21.161  -0.485  0.00  0.00    -0.001 C 
ATOM     25  C   UNL     1     -38.545  21.263   1.718  0.00  0.00    -0.001 C 
ATOM     26  H   UNL     1     -34.264  20.721  -0.205  0.00  0.00    +0.150 HD
ENDROOT
BRANCH  10  27
ATOM     27  O   UNL     1     -36.846  26.117   5.087  0.00  0.00    -0.384 OA
ATOM     28  H   UNL     1     -36.522  27.018   5.239  0.00  0.00    +0.210 HD
ENDBRANCH  10  27
BRANCH  13  29
ATOM     29  O   UNL     1     -34.355  25.319   1.738  0.00  0.00    -0.509 OA
ATOM     30  H   UNL     1     -34.759  26.161   1.810  0.00  0.00    +0.292 HD
ENDBRANCH  13  29
TORSDOF 2
ENDMDL
