MODEL 1
REMARK VINA RESULT:      -6.4      0.000      0.000
REMARK  Name = 52921432
REMARK  3 active torsions:
REMARK  status: ('A' for Active; 'I' for Inactive)
REMARK    1  A    between atoms: C_10  and  N_15
REMARK    2  A    between atoms: N_15  and  S_17
REMARK    3  A    between atoms: S_17  and  C_21
REMARK                            x       y       z     vdW  Elec       q    Type
REMARK                         _______ _______ _______ _____ _____    ______ ____
ROOT
ATOM      1  S   UNL     1     -38.846  21.507   1.887  0.00  0.00    +0.006 S 
ATOM      2  O   UNL     1     -37.943  23.915   1.747  0.00  0.00    -0.461 OA
ATOM      3  N   UNL     1     -37.080  22.657   3.539  0.00  0.00    -0.278 N 
ATOM      4  C   UNL     1     -37.173  25.105   2.099  0.00  0.00    +0.155 C 
ATOM      5  C   UNL     1     -36.295  24.929   3.321  0.00  0.00    +0.028 C 
ATOM      6  C   UNL     1     -36.283  23.708   3.996  0.00  0.00    +0.050 C 
ATOM      7  C   UNL     1     -38.213  26.210   2.322  0.00  0.00    +0.048 C 
ATOM      8  C   UNL     1     -36.331  25.428   0.857  0.00  0.00    +0.048 C 
ATOM      9  C   UNL     1     -35.481  25.966   3.805  0.00  0.00    +0.016 C 
ATOM     10  C   UNL     1     -34.681  25.780   4.935  0.00  0.00    +0.065 C 
ATOM     11  C   UNL     1     -35.483  23.516   5.128  0.00  0.00    +0.016 C 
ATOM     12  C   UNL     1     -34.682  24.554   5.595  0.00  0.00    +0.017 C 
ATOM     13  C   UNL     1     -37.892  22.752   2.441  0.00  0.00    +0.233 C 
ATOM     14  H   UNL     1     -37.057  21.804   4.031  0.00  0.00    +0.156 HD
ENDROOT
BRANCH  10  15
ATOM     15  N   UNL     1     -33.861  26.847   5.412  0.00  0.00    -0.215 N 
ATOM     16  H   UNL     1     -33.865  27.095   6.365  0.00  0.00    +0.174 HD
BRANCH  15  17
ATOM     17  S   UNL     1     -32.867  27.694   4.289  0.00  0.00    +0.079 S 
ATOM     18  O   UNL     1     -33.652  28.742   3.660  0.00  0.00    -0.149 OA
ATOM     19  O   UNL     1     -32.132  26.753   3.466  0.00  0.00    -0.149 OA
BRANCH  17  21
ATOM     20  S   UNL     1     -30.113  28.596   4.745  0.00  0.00    -0.066 S 
ATOM     21  C   UNL     1     -31.707  28.494   5.361  0.00  0.00    +0.155 C 
ATOM     22  C   UNL     1     -31.816  29.063   6.610  0.00  0.00    +0.027 C 
ATOM     23  C   UNL     1     -30.575  29.591   7.068  0.00  0.00    +0.009 C 
ATOM     24  C   UNL     1     -29.564  29.405   6.151  0.00  0.00    +0.037 C 
ENDBRANCH  17  21
ENDBRANCH  15  17
ENDBRANCH  10  15
TORSDOF 3
ENDMDL
MODEL 2
REMARK VINA RESULT:      -6.2      5.051      7.187
REMARK  Name = 52921432
REMARK  3 active torsions:
REMARK  status: ('A' for Active; 'I' for Inactive)
REMARK    1  A    between atoms: C_10  and  N_15
REMARK    2  A    between atoms: N_15  and  S_17
REMARK    3  A    between atoms: S_17  and  C_21
REMARK                            x       y       z     vdW  Elec       q    Type
REMARK                         _______ _______ _______ _____ _____    ______ ____
ROOT
ATOM      1  S   UNL     1     -33.488  16.419  -2.813  0.00  0.00    +0.006 S 
ATOM      2  O   UNL     1     -32.736  17.878  -0.828  0.00  0.00    -0.461 OA
ATOM      3  N   UNL     1     -35.061  17.858  -1.192  0.00  0.00    -0.278 N 
ATOM      4  C   UNL     1     -32.835  18.783   0.314  0.00  0.00    +0.155 C 
ATOM      5  C   UNL     1     -34.253  19.199   0.646  0.00  0.00    +0.028 C 
ATOM      6  C   UNL     1     -35.315  18.719  -0.122  0.00  0.00    +0.050 C 
ATOM      7  C   UNL     1     -31.976  19.999  -0.054  0.00  0.00    +0.048 C 
ATOM      8  C   UNL     1     -32.193  18.030   1.487  0.00  0.00    +0.048 C 
ATOM      9  C   UNL     1     -34.542  20.062   1.716  0.00  0.00    +0.016 C 
ATOM     10  C   UNL     1     -35.859  20.432   2.002  0.00  0.00    +0.065 C 
ATOM     11  C   UNL     1     -36.635  19.086   0.160  0.00  0.00    +0.016 C 
ATOM     12  C   UNL     1     -36.904  19.943   1.224  0.00  0.00    +0.017 C 
ATOM     13  C   UNL     1     -33.803  17.445  -1.541  0.00  0.00    +0.233 C 
ATOM     14  H   UNL     1     -35.824  17.533  -1.722  0.00  0.00    +0.156 HD
ENDROOT
BRANCH  10  15
ATOM     15  N   UNL     1     -36.131  21.311   3.093  0.00  0.00    -0.215 N 
ATOM     16  H   UNL     1     -35.925  21.042   4.017  0.00  0.00    +0.174 HD
BRANCH  15  17
ATOM     17  S   UNL     1     -36.826  22.852   2.762  0.00  0.00    +0.079 S 
ATOM     18  O   UNL     1     -38.245  22.805   3.066  0.00  0.00    -0.149 OA
ATOM     19  O   UNL     1     -36.383  23.331   1.467  0.00  0.00    -0.149 OA
BRANCH  17  21
ATOM     20  S   UNL     1     -36.767  25.419   4.180  0.00  0.00    -0.066 S 
ATOM     21  C   UNL     1     -36.069  23.866   4.000  0.00  0.00    +0.155 C 
ATOM     22  C   UNL     1     -35.017  23.669   4.867  0.00  0.00    +0.027 C 
ATOM     23  C   UNL     1     -34.781  24.806   5.690  0.00  0.00    +0.009 C 
ATOM     24  C   UNL     1     -35.661  25.831   5.422  0.00  0.00    +0.037 C 
ENDBRANCH  17  21
ENDBRANCH  15  17
ENDBRANCH  10  15
TORSDOF 3
ENDMDL
MODEL 3
REMARK VINA RESULT:      -5.9      1.990      2.362
REMARK  Name = 52921432
REMARK  3 active torsions:
REMARK  status: ('A' for Active; 'I' for Inactive)
REMARK    1  A    between atoms: C_10  and  N_15
REMARK    2  A    between atoms: N_15  and  S_17
REMARK    3  A    between atoms: S_17  and  C_21
REMARK                            x       y       z     vdW  Elec       q    Type
REMARK                         _______ _______ _______ _____ _____    ______ ____
ROOT
ATOM      1  S   UNL     1     -39.467  21.455   1.589  0.00  0.00    +0.006 S 
ATOM      2  O   UNL     1     -38.802  23.938   1.750  0.00  0.00    -0.461 OA
ATOM      3  N   UNL     1     -37.567  22.509   3.154  0.00  0.00    -0.278 N 
ATOM      4  C   UNL     1     -38.090  25.133   2.195  0.00  0.00    +0.155 C 
ATOM      5  C   UNL     1     -37.019  24.859   3.231  0.00  0.00    +0.028 C 
ATOM      6  C   UNL     1     -36.799  23.554   3.673  0.00  0.00    +0.050 C 
ATOM      7  C   UNL     1     -39.171  26.067   2.752  0.00  0.00    +0.048 C 
ATOM      8  C   UNL     1     -37.482  25.742   0.924  0.00  0.00    +0.048 C 
ATOM      9  C   UNL     1     -36.229  25.887   3.772  0.00  0.00    +0.016 C 
ATOM     10  C   UNL     1     -35.249  25.610   4.728  0.00  0.00    +0.065 C 
ATOM     11  C   UNL     1     -35.819  23.270   4.630  0.00  0.00    +0.016 C 
ATOM     12  C   UNL     1     -35.044  24.301   5.156  0.00  0.00    +0.017 C 
ATOM     13  C   UNL     1     -38.546  22.692   2.215  0.00  0.00    +0.233 C 
ATOM     14  H   UNL     1     -37.395  21.597   3.480  0.00  0.00    +0.156 HD
ENDROOT
BRANCH  10  15
ATOM     15  N   UNL     1     -34.458  26.670   5.266  0.00  0.00    -0.215 N 
ATOM     16  H   UNL     1     -34.735  27.134   6.088  0.00  0.00    +0.174 HD
BRANCH  15  17
ATOM     17  S   UNL     1     -33.011  27.121   4.448  0.00  0.00    +0.079 S 
ATOM     18  O   UNL     1     -32.733  26.146   3.408  0.00  0.00    -0.149 OA
ATOM     19  O   UNL     1     -31.980  27.461   5.410  0.00  0.00    -0.149 OA
BRANCH  17  21
ATOM     20  S   UNL     1     -32.441  29.937   3.858  0.00  0.00    -0.066 S 
ATOM     21  C   UNL     1     -33.503  28.614   3.633  0.00  0.00    +0.155 C 
ATOM     22  C   UNL     1     -34.581  28.944   2.842  0.00  0.00    +0.027 C 
ATOM     23  C   UNL     1     -34.534  30.301   2.413  0.00  0.00    +0.009 C 
ATOM     24  C   UNL     1     -33.422  30.958   2.894  0.00  0.00    +0.037 C 
ENDBRANCH  17  21
ENDBRANCH  15  17
ENDBRANCH  10  15
TORSDOF 3
ENDMDL
MODEL 4
REMARK VINA RESULT:      -5.9      4.954      7.430
REMARK  Name = 52921432
REMARK  3 active torsions:
REMARK  status: ('A' for Active; 'I' for Inactive)
REMARK    1  A    between atoms: C_10  and  N_15
REMARK    2  A    between atoms: N_15  and  S_17
REMARK    3  A    between atoms: S_17  and  C_21
REMARK                            x       y       z     vdW  Elec       q    Type
REMARK                         _______ _______ _______ _____ _____    ______ ____
ROOT
ATOM      1  S   UNL     1     -32.813  16.299  -2.248  0.00  0.00    +0.006 S 
ATOM      2  O   UNL     1     -35.208  17.132  -1.798  0.00  0.00    -0.461 OA
ATOM      3  N   UNL     1     -33.592  17.973  -0.308  0.00  0.00    -0.278 N 
ATOM      4  C   UNL     1     -36.303  17.852  -1.153  0.00  0.00    +0.155 C 
ATOM      5  C   UNL     1     -35.871  18.694   0.030  0.00  0.00    +0.028 C 
ATOM      6  C   UNL     1     -34.528  18.722   0.408  0.00  0.00    +0.050 C 
ATOM      7  C   UNL     1     -37.304  16.771  -0.725  0.00  0.00    +0.048 C 
ATOM      8  C   UNL     1     -36.921  18.725  -2.254  0.00  0.00    +0.048 C 
ATOM      9  C   UNL     1     -36.787  19.459   0.770  0.00  0.00    +0.016 C 
ATOM     10  C   UNL     1     -36.365  20.227   1.858  0.00  0.00    +0.065 C 
ATOM     11  C   UNL     1     -34.099  19.489   1.496  0.00  0.00    +0.016 C 
ATOM     12  C   UNL     1     -35.021  20.242   2.220  0.00  0.00    +0.017 C 
ATOM     13  C   UNL     1     -33.919  17.195  -1.387  0.00  0.00    +0.233 C 
ATOM     14  H   UNL     1     -32.650  18.006  -0.024  0.00  0.00    +0.156 HD
ENDROOT
BRANCH  10  15
ATOM     15  N   UNL     1     -37.313  20.997   2.598  0.00  0.00    -0.215 N 
ATOM     16  H   UNL     1     -37.898  20.566   3.263  0.00  0.00    +0.174 HD
BRANCH  15  17
ATOM     17  S   UNL     1     -37.414  22.691   2.306  0.00  0.00    +0.079 S 
ATOM     18  O   UNL     1     -38.801  23.106   2.411  0.00  0.00    -0.149 OA
ATOM     19  O   UNL     1     -36.646  23.040   1.126  0.00  0.00    -0.149 OA
BRANCH  17  21
ATOM     20  S   UNL     1     -36.875  25.012   4.016  0.00  0.00    -0.066 S 
ATOM     21  C   UNL     1     -36.571  23.355   3.714  0.00  0.00    +0.155 C 
ATOM     22  C   UNL     1     -35.706  22.811   4.637  0.00  0.00    +0.027 C 
ATOM     23  C   UNL     1     -35.286  23.766   5.606  0.00  0.00    +0.009 C 
ATOM     24  C   UNL     1     -35.847  25.006   5.387  0.00  0.00    +0.037 C 
ENDBRANCH  17  21
ENDBRANCH  15  17
ENDBRANCH  10  15
TORSDOF 3
ENDMDL
MODEL 5
REMARK VINA RESULT:      -5.8      4.327      6.090
REMARK  Name = 52921432
REMARK  3 active torsions:
REMARK  status: ('A' for Active; 'I' for Inactive)
REMARK    1  A    between atoms: C_10  and  N_15
REMARK    2  A    between atoms: N_15  and  S_17
REMARK    3  A    between atoms: S_17  and  C_21
REMARK                            x       y       z     vdW  Elec       q    Type
REMARK                         _______ _______ _______ _____ _____    ______ ____
ROOT
ATOM      1  S   UNL     1     -44.165  24.519  -1.289  0.00  0.00    +0.006 S 
ATOM      2  O   UNL     1     -43.060  26.094   0.423  0.00  0.00    -0.461 OA
ATOM      3  N   UNL     1     -42.064  23.967   0.276  0.00  0.00    -0.278 N 
ATOM      4  C   UNL     1     -42.132  26.553   1.454  0.00  0.00    +0.155 C 
ATOM      5  C   UNL     1     -41.100  25.518   1.855  0.00  0.00    +0.028 C 
ATOM      6  C   UNL     1     -41.106  24.262   1.249  0.00  0.00    +0.050 C 
ATOM      7  C   UNL     1     -43.012  26.945   2.648  0.00  0.00    +0.048 C 
ATOM      8  C   UNL     1     -41.460  27.803   0.870  0.00  0.00    +0.048 C 
ATOM      9  C   UNL     1     -40.123  25.783   2.829  0.00  0.00    +0.016 C 
ATOM     10  C   UNL     1     -39.183  24.813   3.182  0.00  0.00    +0.065 C 
ATOM     11  C   UNL     1     -40.167  23.286   1.599  0.00  0.00    +0.016 C 
ATOM     12  C   UNL     1     -39.205  23.565   2.567  0.00  0.00    +0.017 C 
ATOM     13  C   UNL     1     -43.020  24.858  -0.131  0.00  0.00    +0.233 C 
ATOM     14  H   UNL     1     -42.050  23.074  -0.138  0.00  0.00    +0.156 HD
ENDROOT
BRANCH  10  15
ATOM     15  N   UNL     1     -38.199  25.102   4.176  0.00  0.00    -0.215 N 
ATOM     16  H   UNL     1     -38.465  25.281   5.107  0.00  0.00    +0.174 HD
BRANCH  15  17
ATOM     17  S   UNL     1     -36.540  25.132   3.715  0.00  0.00    +0.079 S 
ATOM     18  O   UNL     1     -35.906  26.295   4.311  0.00  0.00    -0.149 OA
ATOM     19  O   UNL     1     -36.414  24.896   2.290  0.00  0.00    -0.149 OA
BRANCH  17  21
ATOM     20  S   UNL     1     -35.708  22.323   3.575  0.00  0.00    -0.066 S 
ATOM     21  C   UNL     1     -35.902  23.712   4.557  0.00  0.00    +0.155 C 
ATOM     22  C   UNL     1     -35.522  23.480   5.860  0.00  0.00    +0.027 C 
ATOM     23  C   UNL     1     -35.064  22.146   6.055  0.00  0.00    +0.009 C 
ATOM     24  C   UNL     1     -35.113  21.407   4.894  0.00  0.00    +0.037 C 
ENDBRANCH  17  21
ENDBRANCH  15  17
ENDBRANCH  10  15
TORSDOF 3
ENDMDL
MODEL 6
REMARK VINA RESULT:      -5.8      4.825      6.822
REMARK  Name = 52921432
REMARK  3 active torsions:
REMARK  status: ('A' for Active; 'I' for Inactive)
REMARK    1  A    between atoms: C_10  and  N_15
REMARK    2  A    between atoms: N_15  and  S_17
REMARK    3  A    between atoms: S_17  and  C_21
REMARK                            x       y       z     vdW  Elec       q    Type
REMARK                         _______ _______ _______ _____ _____    ______ ____
ROOT
ATOM      1  S   UNL     1     -34.531  17.167  -2.938  0.00  0.00    +0.006 S 
ATOM      2  O   UNL     1     -33.328  18.168  -0.892  0.00  0.00    -0.461 OA
ATOM      3  N   UNL     1     -35.650  18.546  -0.934  0.00  0.00    -0.278 N 
ATOM      4  C   UNL     1     -33.146  18.885   0.367  0.00  0.00    +0.155 C 
ATOM      5  C   UNL     1     -34.429  19.446   0.945  0.00  0.00    +0.028 C 
ATOM      6  C   UNL     1     -35.635  19.255   0.270  0.00  0.00    +0.050 C 
ATOM      7  C   UNL     1     -32.145  20.006   0.056  0.00  0.00    +0.048 C 
ATOM      8  C   UNL     1     -32.508  17.871   1.326  0.00  0.00    +0.048 C 
ATOM      9  C   UNL     1     -34.449  20.162   2.153  0.00  0.00    +0.016 C 
ATOM     10  C   UNL     1     -35.645  20.671   2.665  0.00  0.00    +0.065 C 
ATOM     11  C   UNL     1     -36.836  19.762   0.777  0.00  0.00    +0.016 C 
ATOM     12  C   UNL     1     -36.838  20.470   1.976  0.00  0.00    +0.017 C 
ATOM     13  C   UNL     1     -34.526  18.013  -1.505  0.00  0.00    +0.233 C 
ATOM     14  H   UNL     1     -36.511  18.424  -1.394  0.00  0.00    +0.156 HD
ENDROOT
BRANCH  10  15
ATOM     15  N   UNL     1     -35.642  21.397   3.894  0.00  0.00    -0.215 N 
ATOM     16  H   UNL     1     -35.259  21.001   4.709  0.00  0.00    +0.174 HD
BRANCH  15  17
ATOM     17  S   UNL     1     -36.323  22.979   3.923  0.00  0.00    +0.079 S 
ATOM     18  O   UNL     1     -36.241  23.503   5.275  0.00  0.00    -0.149 OA
ATOM     19  O   UNL     1     -37.593  22.988   3.224  0.00  0.00    -0.149 OA
BRANCH  17  21
ATOM     20  S   UNL     1     -34.179  24.979   3.833  0.00  0.00    -0.066 S 
ATOM     21  C   UNL     1     -35.163  23.893   2.947  0.00  0.00    +0.155 C 
ATOM     22  C   UNL     1     -34.878  23.918   1.600  0.00  0.00    +0.027 C 
ATOM     23  C   UNL     1     -33.837  24.839   1.290  0.00  0.00    +0.009 C 
ATOM     24  C   UNL     1     -33.366  25.485   2.412  0.00  0.00    +0.037 C 
ENDBRANCH  17  21
ENDBRANCH  15  17
ENDBRANCH  10  15
TORSDOF 3
ENDMDL
MODEL 7
REMARK VINA RESULT:      -5.8      4.463      6.038
REMARK  Name = 52921432
REMARK  3 active torsions:
REMARK  status: ('A' for Active; 'I' for Inactive)
REMARK    1  A    between atoms: C_10  and  N_15
REMARK    2  A    between atoms: N_15  and  S_17
REMARK    3  A    between atoms: S_17  and  C_21
REMARK                            x       y       z     vdW  Elec       q    Type
REMARK                         _______ _______ _______ _____ _____    ______ ____
ROOT
ATOM      1  S   UNL     1     -35.989  15.865  -1.049  0.00  0.00    +0.006 S 
ATOM      2  O   UNL     1     -34.301  17.640  -0.250  0.00  0.00    -0.461 OA
ATOM      3  N   UNL     1     -36.555  18.207   0.119  0.00  0.00    -0.278 N 
ATOM      4  C   UNL     1     -33.803  18.882   0.334  0.00  0.00    +0.155 C 
ATOM      5  C   UNL     1     -34.894  19.806   0.833  0.00  0.00    +0.028 C 
ATOM      6  C   UNL     1     -36.232  19.432   0.706  0.00  0.00    +0.050 C 
ATOM      7  C   UNL     1     -32.979  19.550  -0.775  0.00  0.00    +0.048 C 
ATOM      8  C   UNL     1     -32.878  18.452   1.480  0.00  0.00    +0.048 C 
ATOM      9  C   UNL     1     -34.603  21.045   1.429  0.00  0.00    +0.016 C 
ATOM     10  C   UNL     1     -35.627  21.881   1.881  0.00  0.00    +0.065 C 
ATOM     11  C   UNL     1     -37.262  20.265   1.157  0.00  0.00    +0.016 C 
ATOM     12  C   UNL     1     -36.955  21.490   1.745  0.00  0.00    +0.017 C 
ATOM     13  C   UNL     1     -35.616  17.328  -0.349  0.00  0.00    +0.233 C 
ATOM     14  H   UNL     1     -37.505  17.963   0.039  0.00  0.00    +0.156 HD
ENDROOT
BRANCH  10  15
ATOM     15  N   UNL     1     -35.309  23.136   2.482  0.00  0.00    -0.215 N 
ATOM     16  H   UNL     1     -34.855  23.839   1.964  0.00  0.00    +0.174 HD
BRANCH  15  17
ATOM     17  S   UNL     1     -35.733  23.396   4.131  0.00  0.00    +0.079 S 
ATOM     18  O   UNL     1     -35.211  22.302   4.931  0.00  0.00    -0.149 OA
ATOM     19  O   UNL     1     -37.133  23.759   4.234  0.00  0.00    -0.149 OA
BRANCH  17  21
ATOM     20  S   UNL     1     -34.145  25.672   3.181  0.00  0.00    -0.066 S 
ATOM     21  C   UNL     1     -34.773  24.829   4.532  0.00  0.00    +0.155 C 
ATOM     22  C   UNL     1     -34.417  25.422   5.723  0.00  0.00    +0.027 C 
ATOM     23  C   UNL     1     -33.618  26.584   5.525  0.00  0.00    +0.009 C 
ATOM     24  C   UNL     1     -33.393  26.835   4.189  0.00  0.00    +0.037 C 
ENDBRANCH  17  21
ENDBRANCH  15  17
ENDBRANCH  10  15
TORSDOF 3
ENDMDL
MODEL 8
REMARK VINA RESULT:      -5.7      5.348      7.796
REMARK  Name = 52921432
REMARK  3 active torsions:
REMARK  status: ('A' for Active; 'I' for Inactive)
REMARK    1  A    between atoms: C_10  and  N_15
REMARK    2  A    between atoms: N_15  and  S_17
REMARK    3  A    between atoms: S_17  and  C_21
REMARK                            x       y       z     vdW  Elec       q    Type
REMARK                         _______ _______ _______ _____ _____    ______ ____
ROOT
ATOM      1  S   UNL     1     -33.334  17.015  -3.181  0.00  0.00    +0.006 S 
ATOM      2  O   UNL     1     -32.568  18.178  -1.014  0.00  0.00    -0.461 OA
ATOM      3  N   UNL     1     -34.895  18.211  -1.363  0.00  0.00    -0.278 N 
ATOM      4  C   UNL     1     -32.660  18.912   0.246  0.00  0.00    +0.155 C 
ATOM      5  C   UNL     1     -34.076  19.277   0.642  0.00  0.00    +0.028 C 
ATOM      6  C   UNL     1     -35.142  18.911  -0.180  0.00  0.00    +0.050 C 
ATOM      7  C   UNL     1     -31.802  20.168   0.049  0.00  0.00    +0.048 C 
ATOM      8  C   UNL     1     -32.012  18.000   1.297  0.00  0.00    +0.048 C 
ATOM      9  C   UNL     1     -34.358  19.980   1.825  0.00  0.00    +0.016 C 
ATOM     10  C   UNL     1     -35.673  20.305   2.168  0.00  0.00    +0.065 C 
ATOM     11  C   UNL     1     -36.460  19.235   0.158  0.00  0.00    +0.016 C 
ATOM     12  C   UNL     1     -36.723  19.932   1.334  0.00  0.00    +0.017 C 
ATOM     13  C   UNL     1     -33.640  17.850  -1.774  0.00  0.00    +0.233 C 
ATOM     14  H   UNL     1     -35.662  17.964  -1.929  0.00  0.00    +0.156 HD
ENDROOT
BRANCH  10  15
ATOM     15  N   UNL     1     -35.937  21.022   3.374  0.00  0.00    -0.215 N 
ATOM     16  H   UNL     1     -36.295  20.556   4.165  0.00  0.00    +0.174 HD
BRANCH  15  17
ATOM     17  S   UNL     1     -35.620  22.714   3.420  0.00  0.00    +0.079 S 
ATOM     18  O   UNL     1     -34.821  23.076   2.263  0.00  0.00    -0.149 OA
ATOM     19  O   UNL     1     -35.183  23.103   4.747  0.00  0.00    -0.149 OA
BRANCH  17  21
ATOM     20  S   UNL     1     -37.429  25.006   3.706  0.00  0.00    -0.066 S 
ATOM     21  C   UNL     1     -37.234  23.394   3.162  0.00  0.00    +0.155 C 
ATOM     22  C   UNL     1     -38.390  22.893   2.605  0.00  0.00    +0.027 C 
ATOM     23  C   UNL     1     -39.449  23.844   2.625  0.00  0.00    +0.009 C 
ATOM     24  C   UNL     1     -39.064  25.037   3.196  0.00  0.00    +0.037 C 
ENDBRANCH  17  21
ENDBRANCH  15  17
ENDBRANCH  10  15
TORSDOF 3
ENDMDL
MODEL 9
REMARK VINA RESULT:      -5.7      3.394      5.247
REMARK  Name = 52921432
REMARK  3 active torsions:
REMARK  status: ('A' for Active; 'I' for Inactive)
REMARK    1  A    between atoms: C_10  and  N_15
REMARK    2  A    between atoms: N_15  and  S_17
REMARK    3  A    between atoms: S_17  and  C_21
REMARK                            x       y       z     vdW  Elec       q    Type
REMARK                         _______ _______ _______ _____ _____    ______ ____
ROOT
ATOM      1  S   UNL     1     -34.029  17.413  -0.311  0.00  0.00    +0.006 S 
ATOM      2  O   UNL     1     -35.948  19.113  -0.559  0.00  0.00    -0.461 OA
ATOM      3  N   UNL     1     -34.731  19.308   1.446  0.00  0.00    -0.278 N 
ATOM      4  C   UNL     1     -36.845  20.215  -0.224  0.00  0.00    +0.155 C 
ATOM      5  C   UNL     1     -36.553  20.858   1.117  0.00  0.00    +0.028 C 
ATOM      6  C   UNL     1     -35.505  20.378   1.902  0.00  0.00    +0.050 C 
ATOM      7  C   UNL     1     -38.256  19.613  -0.251  0.00  0.00    +0.048 C 
ATOM      8  C   UNL     1     -36.692  21.229  -1.366  0.00  0.00    +0.048 C 
ATOM      9  C   UNL     1     -37.311  21.935   1.604  0.00  0.00    +0.016 C 
ATOM     10  C   UNL     1     -37.023  22.511   2.844  0.00  0.00    +0.065 C 
ATOM     11  C   UNL     1     -35.211  20.950   3.144  0.00  0.00    +0.016 C 
ATOM     12  C   UNL     1     -35.973  22.018   3.613  0.00  0.00    +0.017 C 
ATOM     13  C   UNL     1     -34.944  18.687   0.244  0.00  0.00    +0.233 C 
ATOM     14  H   UNL     1     -33.997  18.985   2.016  0.00  0.00    +0.156 HD
ENDROOT
BRANCH  10  15
ATOM     15  N   UNL     1     -37.807  23.604   3.321  0.00  0.00    -0.215 N 
ATOM     16  H   UNL     1     -38.581  23.447   3.910  0.00  0.00    +0.174 HD
BRANCH  15  17
ATOM     17  S   UNL     1     -37.374  25.203   2.848  0.00  0.00    +0.079 S 
ATOM     18  O   UNL     1     -38.485  26.095   3.128  0.00  0.00    -0.149 OA
ATOM     19  O   UNL     1     -36.780  25.187   1.526  0.00  0.00    -0.149 OA
BRANCH  17  21
ATOM     20  S   UNL     1     -34.841  26.578   3.391  0.00  0.00    -0.066 S 
ATOM     21  C   UNL     1     -36.097  25.593   4.010  0.00  0.00    +0.155 C 
ATOM     22  C   UNL     1     -35.894  25.267   5.333  0.00  0.00    +0.027 C 
ATOM     23  C   UNL     1     -34.692  25.833   5.845  0.00  0.00    +0.009 C 
ATOM     24  C   UNL     1     -34.021  26.571   4.895  0.00  0.00    +0.037 C 
ENDBRANCH  17  21
ENDBRANCH  15  17
ENDBRANCH  10  15
TORSDOF 3
ENDMDL
