MODEL 1
REMARK VINA RESULT:      -6.1      0.000      0.000
REMARK  Name = 191307
REMARK  3 active torsions:
REMARK  status: ('A' for Active; 'I' for Inactive)
REMARK    1  A    between atoms: N_3  and  S_12
REMARK    2  A    between atoms: S_12  and  C_13
REMARK    3  A    between atoms: C_14  and  N_21
REMARK                            x       y       z     vdW  Elec       q    Type
REMARK                         _______ _______ _______ _____ _____    ______ ____
ROOT
ATOM      1  S   UNL     1     -35.753  23.063   1.969  0.00  0.00    -0.056 S 
ATOM      2  N   UNL     1     -35.332  20.726   2.975  0.00  0.00    -0.383 NA
ATOM      3  N   UNL     1     -35.554  20.782   0.625  0.00  0.00    -0.254 N 
ATOM      4  C   UNL     1     -35.582  22.955   3.682  0.00  0.00    +0.130 C 
ATOM      5  C   UNL     1     -35.361  21.621   4.035  0.00  0.00    +0.125 C 
ATOM      6  C   UNL     1     -35.526  21.372   1.849  0.00  0.00    +0.217 C 
ATOM      7  C   UNL     1     -35.639  23.978   4.643  0.00  0.00    -0.008 C 
ATOM      8  C   UNL     1     -35.192  21.301   5.400  0.00  0.00    +0.029 C 
ATOM      9  C   UNL     1     -35.469  23.635   5.985  0.00  0.00    -0.003 C 
ATOM     10  C   UNL     1     -35.248  22.315   6.362  0.00  0.00    +0.002 C 
ATOM     11  H   UNL     1     -35.668  21.367  -0.159  0.00  0.00    +0.163 HD
ENDROOT
BRANCH   3  12
ATOM     12  S   UNL     1     -35.407  19.146   0.352  0.00  0.00    -0.021 S 
BRANCH  12  13
ATOM     13  C   UNL     1     -33.627  19.008   0.362  0.00  0.00    +0.043 C 
ATOM     14  C   UNL     1     -30.849  18.792   0.378  0.00  0.00    +0.143 C 
ATOM     15  C   UNL     1     -32.857  19.920  -0.354  0.00  0.00    +0.009 C 
ATOM     16  C   UNL     1     -33.014  17.988   1.087  0.00  0.00    +0.009 C 
ATOM     17  C   UNL     1     -31.466  19.812  -0.348  0.00  0.00    +0.025 C 
ATOM     18  C   UNL     1     -31.624  17.880   1.094  0.00  0.00    +0.025 C 
BRANCH  14  21
ATOM     19  O   UNL     1     -28.895  17.827   1.130  0.00  0.00    -0.126 OA
ATOM     20  O   UNL     1     -28.760  19.441  -0.352  0.00  0.00    -0.126 OA
ATOM     21  N   UNL     1     -29.434  18.682   0.385  0.00  0.00    +0.058 N 
ENDBRANCH  14  21
ENDBRANCH  12  13
ENDBRANCH   3  12
TORSDOF 3
ENDMDL
MODEL 2
REMARK VINA RESULT:      -6.0      5.974      8.077
REMARK  Name = 191307
REMARK  3 active torsions:
REMARK  status: ('A' for Active; 'I' for Inactive)
REMARK    1  A    between atoms: N_3  and  S_12
REMARK    2  A    between atoms: S_12  and  C_13
REMARK    3  A    between atoms: C_14  and  N_21
REMARK                            x       y       z     vdW  Elec       q    Type
REMARK                         _______ _______ _______ _____ _____    ______ ____
ROOT
ATOM      1  S   UNL     1     -31.007  27.992   2.959  0.00  0.00    -0.056 S 
ATOM      2  N   UNL     1     -32.979  28.304   4.591  0.00  0.00    -0.383 NA
ATOM      3  N   UNL     1     -33.559  27.452   2.467  0.00  0.00    -0.254 N 
ATOM      4  C   UNL     1     -30.649  28.612   4.529  0.00  0.00    +0.130 C 
ATOM      5  C   UNL     1     -31.834  28.709   5.263  0.00  0.00    +0.125 C 
ATOM      6  C   UNL     1     -32.663  27.910   3.380  0.00  0.00    +0.217 C 
ATOM      7  C   UNL     1     -29.408  28.984   5.071  0.00  0.00    -0.008 C 
ATOM      8  C   UNL     1     -31.774  29.197   6.587  0.00  0.00    +0.029 C 
ATOM      9  C   UNL     1     -29.376  29.464   6.382  0.00  0.00    -0.003 C 
ATOM     10  C   UNL     1     -30.541  29.570   7.132  0.00  0.00    +0.002 C 
ATOM     11  H   UNL     1     -33.208  27.146   1.599  0.00  0.00    +0.163 HD
ENDROOT
BRANCH   3  12
ATOM     12  S   UNL     1     -35.205  27.368   2.706  0.00  0.00    -0.021 S 
BRANCH  12  13
ATOM     13  C   UNL     1     -35.299  25.784   3.524  0.00  0.00    +0.043 C 
ATOM     14  C   UNL     1     -35.447  23.310   4.799  0.00  0.00    +0.143 C 
ATOM     15  C   UNL     1     -35.606  25.720   4.880  0.00  0.00    +0.009 C 
ATOM     16  C   UNL     1     -35.067  24.615   2.801  0.00  0.00    +0.009 C 
ATOM     17  C   UNL     1     -35.679  24.482   5.520  0.00  0.00    +0.025 C 
ATOM     18  C   UNL     1     -35.140  23.378   3.440  0.00  0.00    +0.025 C 
BRANCH  14  21
ATOM     19  O   UNL     1     -35.111  21.030   4.844  0.00  0.00    -0.126 OA
ATOM     20  O   UNL     1     -35.996  21.991   6.608  0.00  0.00    -0.126 OA
ATOM     21  N   UNL     1     -35.522  22.050   5.448  0.00  0.00    +0.058 N 
ENDBRANCH  14  21
ENDBRANCH  12  13
ENDBRANCH   3  12
TORSDOF 3
ENDMDL
MODEL 3
REMARK VINA RESULT:      -5.9      1.682      2.455
REMARK  Name = 191307
REMARK  3 active torsions:
REMARK  status: ('A' for Active; 'I' for Inactive)
REMARK    1  A    between atoms: N_3  and  S_12
REMARK    2  A    between atoms: S_12  and  C_13
REMARK    3  A    between atoms: C_14  and  N_21
REMARK                            x       y       z     vdW  Elec       q    Type
REMARK                         _______ _______ _______ _____ _____    ______ ____
ROOT
ATOM      1  S   UNL     1     -35.266  22.237   5.247  0.00  0.00    -0.056 S 
ATOM      2  N   UNL     1     -35.499  23.002   2.796  0.00  0.00    -0.383 NA
ATOM      3  N   UNL     1     -35.786  20.687   3.156  0.00  0.00    -0.254 N 
ATOM      4  C   UNL     1     -35.067  23.918   4.918  0.00  0.00    +0.130 C 
ATOM      5  C   UNL     1     -35.229  24.137   3.547  0.00  0.00    +0.125 C 
ATOM      6  C   UNL     1     -35.541  21.953   3.583  0.00  0.00    +0.217 C 
ATOM      7  C   UNL     1     -34.789  24.967   5.810  0.00  0.00    -0.008 C 
ATOM      8  C   UNL     1     -35.106  25.454   3.052  0.00  0.00    +0.029 C 
ATOM      9  C   UNL     1     -34.673  26.260   5.294  0.00  0.00    -0.003 C 
ATOM     10  C   UNL     1     -34.829  26.503   3.934  0.00  0.00    +0.002 C 
ATOM     11  H   UNL     1     -35.833  19.977   3.838  0.00  0.00    +0.163 HD
ENDROOT
BRANCH   3  12
ATOM     12  S   UNL     1     -36.014  20.245   1.567  0.00  0.00    -0.021 S 
BRANCH  12  13
ATOM     13  C   UNL     1     -34.312  20.000   1.086  0.00  0.00    +0.043 C 
ATOM     14  C   UNL     1     -31.655  19.617   0.337  0.00  0.00    +0.143 C 
ATOM     15  C   UNL     1     -33.653  20.975   0.342  0.00  0.00    +0.009 C 
ATOM     16  C   UNL     1     -33.647  18.833   1.458  0.00  0.00    +0.009 C 
ATOM     17  C   UNL     1     -32.324  20.784  -0.034  0.00  0.00    +0.025 C 
ATOM     18  C   UNL     1     -32.318  18.641   1.082  0.00  0.00    +0.025 C 
BRANCH  14  21
ATOM     19  O   UNL     1     -29.783  20.211  -0.872  0.00  0.00    -0.126 OA
ATOM     20  O   UNL     1     -29.660  18.466   0.456  0.00  0.00    -0.126 OA
ATOM     21  N   UNL     1     -30.302  19.422  -0.045  0.00  0.00    +0.058 N 
ENDBRANCH  14  21
ENDBRANCH  12  13
ENDBRANCH   3  12
TORSDOF 3
ENDMDL
MODEL 4
REMARK VINA RESULT:      -5.9      4.275      7.328
REMARK  Name = 191307
REMARK  3 active torsions:
REMARK  status: ('A' for Active; 'I' for Inactive)
REMARK    1  A    between atoms: N_3  and  S_12
REMARK    2  A    between atoms: S_12  and  C_13
REMARK    3  A    between atoms: C_14  and  N_21
REMARK                            x       y       z     vdW  Elec       q    Type
REMARK                         _______ _______ _______ _____ _____    ______ ____
ROOT
ATOM      1  S   UNL     1     -35.812  20.578   2.664  0.00  0.00    -0.056 S 
ATOM      2  N   UNL     1     -35.469  22.951   1.715  0.00  0.00    -0.383 NA
ATOM      3  N   UNL     1     -37.205  22.746   3.302  0.00  0.00    -0.254 N 
ATOM      4  C   UNL     1     -34.558  20.794   1.500  0.00  0.00    +0.130 C 
ATOM      5  C   UNL     1     -34.526  22.135   1.107  0.00  0.00    +0.125 C 
ATOM      6  C   UNL     1     -36.194  22.241   2.547  0.00  0.00    +0.217 C 
ATOM      7  C   UNL     1     -33.667  19.844   0.973  0.00  0.00    -0.008 C 
ATOM      8  C   UNL     1     -33.567  22.538   0.152  0.00  0.00    +0.029 C 
ATOM      9  C   UNL     1     -32.729  20.269   0.030  0.00  0.00    -0.003 C 
ATOM     10  C   UNL     1     -32.677  21.598  -0.377  0.00  0.00    +0.002 C 
ATOM     11  H   UNL     1     -37.660  22.132   3.923  0.00  0.00    +0.163 HD
ENDROOT
BRANCH   3  12
ATOM     12  S   UNL     1     -37.731  24.325   3.256  0.00  0.00    -0.021 S 
BRANCH  12  13
ATOM     13  C   UNL     1     -36.334  25.120   4.034  0.00  0.00    +0.043 C 
ATOM     14  C   UNL     1     -34.154  26.360   5.248  0.00  0.00    +0.143 C 
ATOM     15  C   UNL     1     -35.634  26.113   3.354  0.00  0.00    +0.009 C 
ATOM     16  C   UNL     1     -35.949  24.744   5.319  0.00  0.00    +0.009 C 
ATOM     17  C   UNL     1     -34.542  26.734   3.961  0.00  0.00    +0.025 C 
ATOM     18  C   UNL     1     -34.858  25.364   5.926  0.00  0.00    +0.025 C 
BRANCH  14  21
ATOM     19  O   UNL     1     -32.207  27.590   5.148  0.00  0.00    -0.126 OA
ATOM     20  O   UNL     1     -32.929  26.934   7.115  0.00  0.00    -0.126 OA
ATOM     21  N   UNL     1     -33.044  26.991   5.867  0.00  0.00    +0.058 N 
ENDBRANCH  14  21
ENDBRANCH  12  13
ENDBRANCH   3  12
TORSDOF 3
ENDMDL
MODEL 5
REMARK VINA RESULT:      -5.8      7.599      9.694
REMARK  Name = 191307
REMARK  3 active torsions:
REMARK  status: ('A' for Active; 'I' for Inactive)
REMARK    1  A    between atoms: N_3  and  S_12
REMARK    2  A    between atoms: S_12  and  C_13
REMARK    3  A    between atoms: C_14  and  N_21
REMARK                            x       y       z     vdW  Elec       q    Type
REMARK                         _______ _______ _______ _____ _____    ______ ____
ROOT
ATOM      1  S   UNL     1     -32.897  26.219   2.650  0.00  0.00    -0.056 S 
ATOM      2  N   UNL     1     -33.990  27.626   4.515  0.00  0.00    -0.383 NA
ATOM      3  N   UNL     1     -32.409  28.773   3.188  0.00  0.00    -0.254 N 
ATOM      4  C   UNL     1     -34.062  25.438   3.655  0.00  0.00    +0.130 C 
ATOM      5  C   UNL     1     -34.538  26.354   4.597  0.00  0.00    +0.125 C 
ATOM      6  C   UNL     1     -33.121  27.667   3.533  0.00  0.00    +0.217 C 
ATOM      7  C   UNL     1     -34.520  24.111   3.612  0.00  0.00    -0.008 C 
ATOM      8  C   UNL     1     -35.508  25.924   5.530  0.00  0.00    +0.029 C 
ATOM      9  C   UNL     1     -35.479  23.712   4.544  0.00  0.00    -0.003 C 
ATOM     10  C   UNL     1     -35.969  24.604   5.492  0.00  0.00    +0.002 C 
ATOM     11  H   UNL     1     -31.811  28.704   2.408  0.00  0.00    +0.163 HD
ENDROOT
BRANCH   3  12
ATOM     12  S   UNL     1     -32.474  30.234   3.984  0.00  0.00    -0.021 S 
BRANCH  12  13
ATOM     13  C   UNL     1     -31.166  29.975   5.172  0.00  0.00    +0.043 C 
ATOM     14  C   UNL     1     -29.125  29.572   7.026  0.00  0.00    +0.143 C 
ATOM     15  C   UNL     1     -29.848  30.262   4.826  0.00  0.00    +0.009 C 
ATOM     16  C   UNL     1     -31.467  29.487   6.441  0.00  0.00    +0.009 C 
ATOM     17  C   UNL     1     -28.825  30.060   5.753  0.00  0.00    +0.025 C 
ATOM     18  C   UNL     1     -30.446  29.285   7.369  0.00  0.00    +0.025 C 
BRANCH  14  21
ATOM     19  O   UNL     1     -27.643  28.204   8.143  0.00  0.00    -0.126 OA
ATOM     20  O   UNL     1     -27.636  30.351   8.605  0.00  0.00    -0.126 OA
ATOM     21  N   UNL     1     -28.085  29.366   7.970  0.00  0.00    +0.058 N 
ENDBRANCH  14  21
ENDBRANCH  12  13
ENDBRANCH   3  12
TORSDOF 3
ENDMDL
MODEL 6
REMARK VINA RESULT:      -5.8      5.661      7.513
REMARK  Name = 191307
REMARK  3 active torsions:
REMARK  status: ('A' for Active; 'I' for Inactive)
REMARK    1  A    between atoms: N_3  and  S_12
REMARK    2  A    between atoms: S_12  and  C_13
REMARK    3  A    between atoms: C_14  and  N_21
REMARK                            x       y       z     vdW  Elec       q    Type
REMARK                         _______ _______ _______ _____ _____    ______ ____
ROOT
ATOM      1  S   UNL     1     -32.773  28.480   3.352  0.00  0.00    -0.056 S 
ATOM      2  N   UNL     1     -32.608  27.595   5.769  0.00  0.00    -0.383 NA
ATOM      3  N   UNL     1     -34.410  26.736   4.506  0.00  0.00    -0.254 N 
ATOM      4  C   UNL     1     -31.478  29.069   4.327  0.00  0.00    +0.130 C 
ATOM      5  C   UNL     1     -31.554  28.480   5.592  0.00  0.00    +0.125 C 
ATOM      6  C   UNL     1     -33.309  27.519   4.662  0.00  0.00    +0.217 C 
ATOM      7  C   UNL     1     -30.468  29.986   3.995  0.00  0.00    -0.008 C 
ATOM      8  C   UNL     1     -30.583  28.822   6.559  0.00  0.00    +0.029 C 
ATOM      9  C   UNL     1     -29.520  30.308   4.969  0.00  0.00    -0.003 C 
ATOM     10  C   UNL     1     -29.574  29.735   6.234  0.00  0.00    +0.002 C 
ATOM     11  H   UNL     1     -34.839  26.726   3.620  0.00  0.00    +0.163 HD
ENDROOT
BRANCH   3  12
ATOM     12  S   UNL     1     -35.085  25.794   5.702  0.00  0.00    -0.021 S 
BRANCH  12  13
ATOM     13  C   UNL     1     -35.257  24.262   4.802  0.00  0.00    +0.043 C 
ATOM     14  C   UNL     1     -35.525  21.870   3.397  0.00  0.00    +0.143 C 
ATOM     15  C   UNL     1     -35.448  24.285   3.423  0.00  0.00    +0.009 C 
ATOM     16  C   UNL     1     -35.199  23.047   5.482  0.00  0.00    +0.009 C 
ATOM     17  C   UNL     1     -35.583  23.088   2.719  0.00  0.00    +0.025 C 
ATOM     18  C   UNL     1     -35.334  21.850   4.779  0.00  0.00    +0.025 C 
BRANCH  14  21
ATOM     19  O   UNL     1     -36.761  20.386   2.138  0.00  0.00    -0.126 OA
ATOM     20  O   UNL     1     -34.680  19.873   2.613  0.00  0.00    -0.126 OA
ATOM     21  N   UNL     1     -35.662  20.651   2.682  0.00  0.00    +0.058 N 
ENDBRANCH  14  21
ENDBRANCH  12  13
ENDBRANCH   3  12
TORSDOF 3
ENDMDL
MODEL 7
REMARK VINA RESULT:      -5.6      3.628      6.957
REMARK  Name = 191307
REMARK  3 active torsions:
REMARK  status: ('A' for Active; 'I' for Inactive)
REMARK    1  A    between atoms: N_3  and  S_12
REMARK    2  A    between atoms: S_12  and  C_13
REMARK    3  A    between atoms: C_14  and  N_21
REMARK                            x       y       z     vdW  Elec       q    Type
REMARK                         _______ _______ _______ _____ _____    ______ ____
ROOT
ATOM      1  S   UNL     1     -32.688  18.289   1.405  0.00  0.00    -0.056 S 
ATOM      2  N   UNL     1     -33.346  20.527   0.306  0.00  0.00    -0.383 NA
ATOM      3  N   UNL     1     -35.061  19.471   1.537  0.00  0.00    -0.254 N 
ATOM      4  C   UNL     1     -31.478  19.111   0.491  0.00  0.00    +0.130 C 
ATOM      5  C   UNL     1     -32.017  20.293  -0.021  0.00  0.00    +0.125 C 
ATOM      6  C   UNL     1     -33.795  19.543   1.048  0.00  0.00    +0.217 C 
ATOM      7  C   UNL     1     -30.147  18.735   0.246  0.00  0.00    -0.008 C 
ATOM      8  C   UNL     1     -31.194  21.130  -0.808  0.00  0.00    +0.029 C 
ATOM      9  C   UNL     1     -29.354  19.579  -0.534  0.00  0.00    -0.003 C 
ATOM     10  C   UNL     1     -29.868  20.761  -1.055  0.00  0.00    +0.002 C 
ATOM     11  H   UNL     1     -35.283  18.706   2.117  0.00  0.00    +0.163 HD
ENDROOT
BRANCH   3  12
ATOM     12  S   UNL     1     -36.265  20.580   1.230  0.00  0.00    -0.021 S 
BRANCH  12  13
ATOM     13  C   UNL     1     -35.743  21.887   2.328  0.00  0.00    +0.043 C 
ATOM     14  C   UNL     1     -34.928  23.928   4.042  0.00  0.00    +0.143 C 
ATOM     15  C   UNL     1     -35.718  21.670   3.703  0.00  0.00    +0.009 C 
ATOM     16  C   UNL     1     -35.363  23.122   1.806  0.00  0.00    +0.009 C 
ATOM     17  C   UNL     1     -35.311  22.691   4.562  0.00  0.00    +0.025 C 
ATOM     18  C   UNL     1     -34.955  24.143   2.664  0.00  0.00    +0.025 C 
BRANCH  14  21
ATOM     19  O   UNL     1     -33.310  25.326   4.905  0.00  0.00    -0.126 OA
ATOM     20  O   UNL     1     -35.361  25.502   5.670  0.00  0.00    -0.126 OA
ATOM     21  N   UNL     1     -34.513  24.968   4.915  0.00  0.00    +0.058 N 
ENDBRANCH  14  21
ENDBRANCH  12  13
ENDBRANCH   3  12
TORSDOF 3
ENDMDL
MODEL 8
REMARK VINA RESULT:      -5.6      4.270      7.281
REMARK  Name = 191307
REMARK  3 active torsions:
REMARK  status: ('A' for Active; 'I' for Inactive)
REMARK    1  A    between atoms: N_3  and  S_12
REMARK    2  A    between atoms: S_12  and  C_13
REMARK    3  A    between atoms: C_14  and  N_21
REMARK                            x       y       z     vdW  Elec       q    Type
REMARK                         _______ _______ _______ _____ _____    ______ ____
ROOT
ATOM      1  S   UNL     1     -37.056  20.996   1.638  0.00  0.00    -0.056 S 
ATOM      2  N   UNL     1     -34.887  20.650   2.990  0.00  0.00    -0.383 NA
ATOM      3  N   UNL     1     -36.452  22.126   3.963  0.00  0.00    -0.254 N 
ATOM      4  C   UNL     1     -35.872  19.928   0.980  0.00  0.00    +0.130 C 
ATOM      5  C   UNL     1     -34.778  19.870   1.847  0.00  0.00    +0.125 C 
ATOM      6  C   UNL     1     -36.037  21.281   2.982  0.00  0.00    +0.217 C 
ATOM      7  C   UNL     1     -35.910  19.195  -0.217  0.00  0.00    -0.008 C 
ATOM      8  C   UNL     1     -33.682  19.048   1.502  0.00  0.00    +0.029 C 
ATOM      9  C   UNL     1     -34.814  18.390  -0.535  0.00  0.00    -0.003 C 
ATOM     10  C   UNL     1     -33.714  18.315   0.311  0.00  0.00    +0.002 C 
ATOM     11  H   UNL     1     -37.351  22.518   3.876  0.00  0.00    +0.163 HD
ENDROOT
BRANCH   3  12
ATOM     12  S   UNL     1     -35.552  22.548   5.300  0.00  0.00    -0.021 S 
BRANCH  12  13
ATOM     13  C   UNL     1     -34.992  24.160   4.776  0.00  0.00    +0.043 C 
ATOM     14  C   UNL     1     -34.117  26.676   3.957  0.00  0.00    +0.143 C 
ATOM     15  C   UNL     1     -34.488  25.058   5.713  0.00  0.00    +0.009 C 
ATOM     16  C   UNL     1     -35.060  24.516   3.430  0.00  0.00    +0.009 C 
ATOM     17  C   UNL     1     -34.050  26.318   5.304  0.00  0.00    +0.025 C 
ATOM     18  C   UNL     1     -34.623  25.775   3.021  0.00  0.00    +0.025 C 
BRANCH  14  21
ATOM     19  O   UNL     1     -34.512  28.881   3.410  0.00  0.00    -0.126 OA
ATOM     20  O   UNL     1     -32.450  28.134   3.314  0.00  0.00    -0.126 OA
ATOM     21  N   UNL     1     -33.671  27.958   3.540  0.00  0.00    +0.058 N 
ENDBRANCH  14  21
ENDBRANCH  12  13
ENDBRANCH   3  12
TORSDOF 3
ENDMDL
MODEL 9
REMARK VINA RESULT:      -5.5      1.614      2.029
REMARK  Name = 191307
REMARK  3 active torsions:
REMARK  status: ('A' for Active; 'I' for Inactive)
REMARK    1  A    between atoms: N_3  and  S_12
REMARK    2  A    between atoms: S_12  and  C_13
REMARK    3  A    between atoms: C_14  and  N_21
REMARK                            x       y       z     vdW  Elec       q    Type
REMARK                         _______ _______ _______ _____ _____    ______ ____
ROOT
ATOM      1  S   UNL     1     -34.664  23.734   1.519  0.00  0.00    -0.056 S 
ATOM      2  N   UNL     1     -35.719  21.839   2.913  0.00  0.00    -0.383 NA
ATOM      3  N   UNL     1     -35.539  21.402   0.600  0.00  0.00    -0.254 N 
ATOM      4  C   UNL     1     -34.823  23.992   3.217  0.00  0.00    +0.130 C 
ATOM      5  C   UNL     1     -35.410  22.864   3.796  0.00  0.00    +0.125 C 
ATOM      6  C   UNL     1     -35.371  22.187   1.697  0.00  0.00    +0.217 C 
ATOM      7  C   UNL     1     -34.455  25.112   3.980  0.00  0.00    -0.008 C 
ATOM      8  C   UNL     1     -35.636  22.857   5.191  0.00  0.00    +0.029 C 
ATOM      9  C   UNL     1     -34.689  25.080   5.356  0.00  0.00    -0.003 C 
ATOM     10  C   UNL     1     -35.272  23.970   5.957  0.00  0.00    +0.002 C 
ATOM     11  H   UNL     1     -35.207  21.747  -0.261  0.00  0.00    +0.163 HD
ENDROOT
BRANCH   3  12
ATOM     12  S   UNL     1     -36.261  19.902   0.603  0.00  0.00    -0.021 S 
BRANCH  12  13
ATOM     13  C   UNL     1     -34.803  18.877   0.508  0.00  0.00    +0.043 C 
ATOM     14  C   UNL     1     -32.527  17.276   0.359  0.00  0.00    +0.143 C 
ATOM     15  C   UNL     1     -34.745  17.837  -0.417  0.00  0.00    +0.009 C 
ATOM     16  C   UNL     1     -33.727  19.119   1.359  0.00  0.00    +0.009 C 
ATOM     17  C   UNL     1     -33.606  17.035  -0.492  0.00  0.00    +0.025 C 
ATOM     18  C   UNL     1     -32.589  18.317   1.285  0.00  0.00    +0.025 C 
BRANCH  14  21
ATOM     19  O   UNL     1     -31.503  15.214   0.232  0.00  0.00    -0.126 OA
ATOM     20  O   UNL     1     -30.238  17.008   0.269  0.00  0.00    -0.126 OA
ATOM     21  N   UNL     1     -31.367  16.461   0.284  0.00  0.00    +0.058 N 
ENDBRANCH  14  21
ENDBRANCH  12  13
ENDBRANCH   3  12
TORSDOF 3
ENDMDL
