MODEL 1
REMARK VINA RESULT:      -5.2      0.000      0.000
REMARK  Name = 192636
REMARK  10 active torsions:
REMARK  status: ('A' for Active; 'I' for Inactive)
REMARK    1  A    between atoms: C_1  and  C_4
REMARK    2  A    between atoms: C_1  and  S_9
REMARK    3  A    between atoms: C_1  and  C_18
REMARK    4  A    between atoms: S_9  and  C_10
REMARK    5  A    between atoms: C_10  and  C_11
REMARK    6  A    between atoms: C_11  and  O_12
REMARK    7  A    between atoms: C_11  and  C_15
REMARK    8  A    between atoms: C_15  and  O_16
REMARK    9  A    between atoms: C_18  and  C_20
REMARK   10  A    between atoms: C_20  and  O_21
REMARK                            x       y       z     vdW  Elec       q    Type
REMARK                         _______ _______ _______ _____ _____    ______ ____
ROOT
ATOM      1  C   UNL     1     -36.022  24.056   4.636  0.00  0.00    +0.095 C 
ENDROOT
BRANCH   1   4
ATOM      2  N   UNL     1     -35.689  26.147   3.323  0.00  0.00    -0.318 N 
ATOM      3  N   UNL     1     -34.206  27.293   4.514  0.00  0.00    -0.315 N 
ATOM      4  C   UNL     1     -35.382  25.415   4.403  0.00  0.00    +0.048 C 
ATOM      5  C   UNL     1     -34.486  26.099   5.132  0.00  0.00    +0.070 C 
ATOM      6  C   UNL     1     -34.946  27.290   3.428  0.00  0.00    +0.182 C 
ATOM      7  H   UNL     1     -36.317  25.910   2.603  0.00  0.00    +0.148 HD
ATOM      8  H   UNL     1     -33.586  27.996   4.818  0.00  0.00    +0.148 HD
ENDBRANCH   1   4
BRANCH   1   9
ATOM      9  S   UNL     1     -37.223  23.686   3.338  0.00  0.00    -0.132 S 
BRANCH   9  10
ATOM     10  C   UNL     1     -36.165  22.632   2.297  0.00  0.00    +0.099 C 
BRANCH  10  11
ATOM     11  C   UNL     1     -36.935  21.420   1.781  0.00  0.00    +0.220 C 
BRANCH  11  12
ATOM     12  O   UNL     1     -38.134  21.281   2.533  0.00  0.00    -0.374 OA
ATOM     13  H   UNL     1     -38.220  22.028   3.145  0.00  0.00    +0.211 HD
ENDBRANCH  11  12
BRANCH  11  15
ATOM     14  O   UNL     1     -35.048  20.095   2.555  0.00  0.00    -0.248 OA
ATOM     15  C   UNL     1     -36.127  20.153   1.981  0.00  0.00    +0.342 C 
BRANCH  15  16
ATOM     16  O   UNL     1     -36.729  19.068   1.429  0.00  0.00    -0.479 OA
ATOM     17  H   UNL     1     -37.400  18.615   1.901  0.00  0.00    +0.295 HD
ENDBRANCH  15  16
ENDBRANCH  11  15
ENDBRANCH  10  11
ENDBRANCH   9  10
ENDBRANCH   1   9
BRANCH   1  18
ATOM     18  C   UNL     1     -35.008  22.913   4.752  0.00  0.00    +0.126 C 
BRANCH  18  20
ATOM     19  O   UNL     1     -36.100  22.136   6.763  0.00  0.00    -0.250 OA
ATOM     20  C   UNL     1     -35.469  21.873   5.748  0.00  0.00    +0.315 C 
BRANCH  20  21
ATOM     21  O   UNL     1     -35.090  20.614   5.414  0.00  0.00    -0.480 OA
ATOM     22  H   UNL     1     -35.671  20.064   4.924  0.00  0.00    +0.295 HD
ENDBRANCH  20  21
ENDBRANCH  18  20
ENDBRANCH   1  18
TORSDOF 10
ENDMDL
MODEL 2
REMARK VINA RESULT:      -5.2      1.946      2.504
REMARK  Name = 192636
REMARK  10 active torsions:
REMARK  status: ('A' for Active; 'I' for Inactive)
REMARK    1  A    between atoms: C_1  and  C_4
REMARK    2  A    between atoms: C_1  and  S_9
REMARK    3  A    between atoms: C_1  and  C_18
REMARK    4  A    between atoms: S_9  and  C_10
REMARK    5  A    between atoms: C_10  and  C_11
REMARK    6  A    between atoms: C_11  and  O_12
REMARK    7  A    between atoms: C_11  and  C_15
REMARK    8  A    between atoms: C_15  and  O_16
REMARK    9  A    between atoms: C_18  and  C_20
REMARK   10  A    between atoms: C_20  and  O_21
REMARK                            x       y       z     vdW  Elec       q    Type
REMARK                         _______ _______ _______ _____ _____    ______ ____
ROOT
ATOM      1  C   UNL     1     -36.096  22.996   3.466  0.00  0.00    +0.095 C 
ENDROOT
BRANCH   1   4
ATOM      2  N   UNL     1     -38.393  23.909   3.164  0.00  0.00    -0.318 N 
ATOM      3  N   UNL     1     -38.177  26.065   3.649  0.00  0.00    -0.315 N 
ATOM      4  C   UNL     1     -37.109  24.128   3.481  0.00  0.00    +0.048 C 
ATOM      5  C   UNL     1     -36.967  25.430   3.777  0.00  0.00    +0.070 C 
ATOM      6  C   UNL     1     -39.014  25.122   3.279  0.00  0.00    +0.182 C 
ATOM      7  H   UNL     1     -38.804  23.053   2.902  0.00  0.00    +0.148 HD
ATOM      8  H   UNL     1     -38.375  27.018   3.801  0.00  0.00    +0.148 HD
ENDBRANCH   1   4
BRANCH   1   9
ATOM      9  S   UNL     1     -35.139  23.016   1.934  0.00  0.00    -0.132 S 
BRANCH   9  10
ATOM     10  C   UNL     1     -35.408  21.285   1.437  0.00  0.00    +0.099 C 
BRANCH  10  11
ATOM     11  C   UNL     1     -36.820  20.825   1.789  0.00  0.00    +0.220 C 
BRANCH  11  12
ATOM     12  O   UNL     1     -36.737  19.734   2.698  0.00  0.00    -0.374 OA
ATOM     13  H   UNL     1     -35.828  19.397   2.716  0.00  0.00    +0.211 HD
ENDBRANCH  11  12
BRANCH  11  15
ATOM     14  O   UNL     1     -36.993  20.012  -0.497  0.00  0.00    -0.248 OA
ATOM     15  C   UNL     1     -37.540  20.327   0.551  0.00  0.00    +0.342 C 
BRANCH  15  16
ATOM     16  O   UNL     1     -38.887  20.284   0.723  0.00  0.00    -0.479 OA
ATOM     17  H   UNL     1     -39.294  20.831   1.366  0.00  0.00    +0.295 HD
ENDBRANCH  15  16
ENDBRANCH  11  15
ENDBRANCH  10  11
ENDBRANCH   9  10
ENDBRANCH   1   9
BRANCH   1  18
ATOM     18  C   UNL     1     -35.151  23.003   4.674  0.00  0.00    +0.126 C 
BRANCH  18  20
ATOM     19  O   UNL     1     -36.022  22.076   6.730  0.00  0.00    -0.250 OA
ATOM     20  C   UNL     1     -35.494  21.892   5.641  0.00  0.00    +0.315 C 
BRANCH  20  21
ATOM     21  O   UNL     1     -35.132  20.665   5.190  0.00  0.00    -0.480 OA
ATOM     22  H   UNL     1     -35.775  19.988   5.107  0.00  0.00    +0.295 HD
ENDBRANCH  20  21
ENDBRANCH  18  20
ENDBRANCH   1  18
TORSDOF 10
ENDMDL
MODEL 3
REMARK VINA RESULT:      -5.1      2.347      3.779
REMARK  Name = 192636
REMARK  10 active torsions:
REMARK  status: ('A' for Active; 'I' for Inactive)
REMARK    1  A    between atoms: C_1  and  C_4
REMARK    2  A    between atoms: C_1  and  S_9
REMARK    3  A    between atoms: C_1  and  C_18
REMARK    4  A    between atoms: S_9  and  C_10
REMARK    5  A    between atoms: C_10  and  C_11
REMARK    6  A    between atoms: C_11  and  O_12
REMARK    7  A    between atoms: C_11  and  C_15
REMARK    8  A    between atoms: C_15  and  O_16
REMARK    9  A    between atoms: C_18  and  C_20
REMARK   10  A    between atoms: C_20  and  O_21
REMARK                            x       y       z     vdW  Elec       q    Type
REMARK                         _______ _______ _______ _____ _____    ______ ____
ROOT
ATOM      1  C   UNL     1     -36.044  25.526   3.059  0.00  0.00    +0.095 C 
ENDROOT
BRANCH   1   4
ATOM      2  N   UNL     1     -35.026  25.555   5.333  0.00  0.00    -0.318 N 
ATOM      3  N   UNL     1     -33.443  27.105   5.188  0.00  0.00    -0.315 N 
ATOM      4  C   UNL     1     -35.049  26.044   4.085  0.00  0.00    +0.048 C 
ATOM      5  C   UNL     1     -34.095  26.983   3.986  0.00  0.00    +0.070 C 
ATOM      6  C   UNL     1     -34.028  26.232   5.977  0.00  0.00    +0.182 C 
ATOM      7  H   UNL     1     -35.607  24.854   5.708  0.00  0.00    +0.148 HD
ATOM      8  H   UNL     1     -32.701  27.714   5.410  0.00  0.00    +0.148 HD
ENDBRANCH   1   4
BRANCH   1   9
ATOM      9  S   UNL     1     -35.386  24.075   2.208  0.00  0.00    -0.132 S 
BRANCH   9  10
ATOM     10  C   UNL     1     -36.383  22.805   3.050  0.00  0.00    +0.099 C 
BRANCH  10  11
ATOM     11  C   UNL     1     -35.493  21.762   3.719  0.00  0.00    +0.220 C 
BRANCH  11  12
ATOM     12  O   UNL     1     -35.940  20.465   3.343  0.00  0.00    -0.374 OA
ATOM     13  H   UNL     1     -35.694  19.826   4.030  0.00  0.00    +0.211 HD
ENDBRANCH  11  12
BRANCH  11  15
ATOM     14  O   UNL     1     -35.987  22.844   5.840  0.00  0.00    -0.248 OA
ATOM     15  C   UNL     1     -35.604  21.856   5.227  0.00  0.00    +0.342 C 
BRANCH  15  16
ATOM     16  O   UNL     1     -35.207  20.713   5.844  0.00  0.00    -0.479 OA
ATOM     17  H   UNL     1     -35.820  20.016   5.976  0.00  0.00    +0.295 HD
ENDBRANCH  15  16
ENDBRANCH  11  15
ENDBRANCH  10  11
ENDBRANCH   9  10
ENDBRANCH   1   9
BRANCH   1  18
ATOM     18  C   UNL     1     -37.423  25.207   3.649  0.00  0.00    +0.126 C 
BRANCH  18  20
ATOM     19  O   UNL     1     -39.703  25.722   3.035  0.00  0.00    -0.250 OA
ATOM     20  C   UNL     1     -38.511  25.986   2.945  0.00  0.00    +0.315 C 
BRANCH  20  21
ATOM     21  O   UNL     1     -38.030  26.996   2.179  0.00  0.00    -0.480 OA
ATOM     22  H   UNL     1     -38.369  27.130   1.315  0.00  0.00    +0.295 HD
ENDBRANCH  20  21
ENDBRANCH  18  20
ENDBRANCH   1  18
TORSDOF 10
ENDMDL
MODEL 4
REMARK VINA RESULT:      -5.0      3.593      5.599
REMARK  Name = 192636
REMARK  10 active torsions:
REMARK  status: ('A' for Active; 'I' for Inactive)
REMARK    1  A    between atoms: C_1  and  C_4
REMARK    2  A    between atoms: C_1  and  S_9
REMARK    3  A    between atoms: C_1  and  C_18
REMARK    4  A    between atoms: S_9  and  C_10
REMARK    5  A    between atoms: C_10  and  C_11
REMARK    6  A    between atoms: C_11  and  O_12
REMARK    7  A    between atoms: C_11  and  C_15
REMARK    8  A    between atoms: C_15  and  O_16
REMARK    9  A    between atoms: C_18  and  C_20
REMARK   10  A    between atoms: C_20  and  O_21
REMARK                            x       y       z     vdW  Elec       q    Type
REMARK                         _______ _______ _______ _____ _____    ______ ____
ROOT
ATOM      1  C   UNL     1     -36.155  24.439   3.349  0.00  0.00    +0.095 C 
ENDROOT
BRANCH   1   4
ATOM      2  N   UNL     1     -35.813  23.561   5.655  0.00  0.00    -0.318 N 
ATOM      3  N   UNL     1     -35.439  21.393   5.349  0.00  0.00    -0.315 N 
ATOM      4  C   UNL     1     -35.871  23.320   4.337  0.00  0.00    +0.048 C 
ATOM      5  C   UNL     1     -35.646  22.011   4.141  0.00  0.00    +0.070 C 
ATOM      6  C   UNL     1     -35.545  22.354   6.239  0.00  0.00    +0.182 C 
ATOM      7  H   UNL     1     -35.936  24.426   6.107  0.00  0.00    +0.148 HD
ATOM      8  H   UNL     1     -35.251  20.440   5.512  0.00  0.00    +0.148 HD
ENDBRANCH   1   4
BRANCH   1   9
ATOM      9  S   UNL     1     -34.802  24.601   2.163  0.00  0.00    -0.132 S 
BRANCH   9  10
ATOM     10  C   UNL     1     -34.509  26.389   2.345  0.00  0.00    +0.099 C 
BRANCH  10  11
ATOM     11  C   UNL     1     -34.937  26.878   3.726  0.00  0.00    +0.220 C 
BRANCH  11  12
ATOM     12  O   UNL     1     -35.235  28.267   3.651  0.00  0.00    -0.374 OA
ATOM     13  H   UNL     1     -35.337  28.526   2.722  0.00  0.00    +0.211 HD
ENDBRANCH  11  12
BRANCH  11  15
ATOM     14  O   UNL     1     -32.619  26.874   4.465  0.00  0.00    -0.248 OA
ATOM     15  C   UNL     1     -33.805  26.714   4.721  0.00  0.00    +0.342 C 
BRANCH  15  16
ATOM     16  O   UNL     1     -34.251  26.343   5.949  0.00  0.00    -0.479 OA
ATOM     17  H   UNL     1     -35.114  26.583   6.225  0.00  0.00    +0.295 HD
ENDBRANCH  15  16
ENDBRANCH  11  15
ENDBRANCH  10  11
ENDBRANCH   9  10
ENDBRANCH   1   9
BRANCH   1  18
ATOM     18  C   UNL     1     -37.486  24.279   2.606  0.00  0.00    +0.126 C 
BRANCH  18  20
ATOM     19  O   UNL     1     -39.622  24.529   3.710  0.00  0.00    -0.250 OA
ATOM     20  C   UNL     1     -38.592  25.045   3.296  0.00  0.00    +0.315 C 
BRANCH  20  21
ATOM     21  O   UNL     1     -38.339  26.374   3.389  0.00  0.00    -0.480 OA
ATOM     22  H   UNL     1     -38.046  26.849   2.636  0.00  0.00    +0.295 HD
ENDBRANCH  20  21
ENDBRANCH  18  20
ENDBRANCH   1  18
TORSDOF 10
ENDMDL
MODEL 5
REMARK VINA RESULT:      -5.0      2.462      3.389
REMARK  Name = 192636
REMARK  10 active torsions:
REMARK  status: ('A' for Active; 'I' for Inactive)
REMARK    1  A    between atoms: C_1  and  C_4
REMARK    2  A    between atoms: C_1  and  S_9
REMARK    3  A    between atoms: C_1  and  C_18
REMARK    4  A    between atoms: S_9  and  C_10
REMARK    5  A    between atoms: C_10  and  C_11
REMARK    6  A    between atoms: C_11  and  O_12
REMARK    7  A    between atoms: C_11  and  C_15
REMARK    8  A    between atoms: C_15  and  O_16
REMARK    9  A    between atoms: C_18  and  C_20
REMARK   10  A    between atoms: C_20  and  O_21
REMARK                            x       y       z     vdW  Elec       q    Type
REMARK                         _______ _______ _______ _____ _____    ______ ____
ROOT
ATOM      1  C   UNL     1     -35.117  24.041   4.748  0.00  0.00    +0.095 C 
ENDROOT
BRANCH   1   4
ATOM      2  N   UNL     1     -33.995  25.963   3.628  0.00  0.00    -0.318 N 
ATOM      3  N   UNL     1     -33.361  27.263   5.313  0.00  0.00    -0.315 N 
ATOM      4  C   UNL     1     -34.381  25.370   4.767  0.00  0.00    +0.048 C 
ATOM      5  C   UNL     1     -34.003  26.149   5.793  0.00  0.00    +0.070 C 
ATOM      6  C   UNL     1     -33.373  27.120   4.007  0.00  0.00    +0.182 C 
ATOM      7  H   UNL     1     -34.130  25.633   2.711  0.00  0.00    +0.148 HD
ATOM      8  H   UNL     1     -32.976  28.007   5.833  0.00  0.00    +0.148 HD
ENDBRANCH   1   4
BRANCH   1   9
ATOM      9  S   UNL     1     -35.473  23.534   3.051  0.00  0.00    -0.132 S 
BRANCH   9  10
ATOM     10  C   UNL     1     -37.291  23.585   3.140  0.00  0.00    +0.099 C 
BRANCH  10  11
ATOM     11  C   UNL     1     -37.780  24.955   3.600  0.00  0.00    +0.220 C 
BRANCH  11  12
ATOM     12  O   UNL     1     -39.165  24.870   3.913  0.00  0.00    -0.374 OA
ATOM     13  H   UNL     1     -39.272  24.669   4.856  0.00  0.00    +0.211 HD
ENDBRANCH  11  12
BRANCH  11  15
ATOM     14  O   UNL     1     -38.151  25.882   1.382  0.00  0.00    -0.248 OA
ATOM     15  C   UNL     1     -37.632  25.973   2.487  0.00  0.00    +0.342 C 
BRANCH  15  16
ATOM     16  O   UNL     1     -36.831  27.011   2.843  0.00  0.00    -0.479 OA
ATOM     17  H   UNL     1     -36.792  27.285   3.738  0.00  0.00    +0.295 HD
ENDBRANCH  15  16
ENDBRANCH  11  15
ENDBRANCH  10  11
ENDBRANCH   9  10
ENDBRANCH   1   9
BRANCH   1  18
ATOM     18  C   UNL     1     -34.377  22.919   5.485  0.00  0.00    +0.126 C 
BRANCH  18  20
ATOM     19  O   UNL     1     -36.224  22.024   6.761  0.00  0.00    -0.250 OA
ATOM     20  C   UNL     1     -35.334  21.841   5.941  0.00  0.00    +0.315 C 
BRANCH  20  21
ATOM     21  O   UNL     1     -35.090  20.637   5.366  0.00  0.00    -0.480 OA
ATOM     22  H   UNL     1     -34.284  20.491   4.910  0.00  0.00    +0.295 HD
ENDBRANCH  20  21
ENDBRANCH  18  20
ENDBRANCH   1  18
TORSDOF 10
ENDMDL
MODEL 6
REMARK VINA RESULT:      -5.0      2.468      3.911
REMARK  Name = 192636
REMARK  10 active torsions:
REMARK  status: ('A' for Active; 'I' for Inactive)
REMARK    1  A    between atoms: C_1  and  C_4
REMARK    2  A    between atoms: C_1  and  S_9
REMARK    3  A    between atoms: C_1  and  C_18
REMARK    4  A    between atoms: S_9  and  C_10
REMARK    5  A    between atoms: C_10  and  C_11
REMARK    6  A    between atoms: C_11  and  O_12
REMARK    7  A    between atoms: C_11  and  C_15
REMARK    8  A    between atoms: C_15  and  O_16
REMARK    9  A    between atoms: C_18  and  C_20
REMARK   10  A    between atoms: C_20  and  O_21
REMARK                            x       y       z     vdW  Elec       q    Type
REMARK                         _______ _______ _______ _____ _____    ______ ____
ROOT
ATOM      1  C   UNL     1     -36.526  22.352   2.788  0.00  0.00    +0.095 C 
ENDROOT
BRANCH   1   4
ATOM      2  N   UNL     1     -35.929  21.729   5.125  0.00  0.00    -0.318 N 
ATOM      3  N   UNL     1     -35.149  23.616   5.997  0.00  0.00    -0.315 N 
ATOM      4  C   UNL     1     -35.991  22.672   4.174  0.00  0.00    +0.048 C 
ATOM      5  C   UNL     1     -35.521  23.818   4.691  0.00  0.00    +0.070 C 
ATOM      6  C   UNL     1     -35.408  22.348   6.227  0.00  0.00    +0.182 C 
ATOM      7  H   UNL     1     -36.203  20.786   5.047  0.00  0.00    +0.148 HD
ATOM      8  H   UNL     1     -34.771  24.276   6.623  0.00  0.00    +0.148 HD
ENDBRANCH   1   4
BRANCH   1   9
ATOM      9  S   UNL     1     -37.164  23.842   1.992  0.00  0.00    -0.132 S 
BRANCH   9  10
ATOM     10  C   UNL     1     -38.931  23.597   2.358  0.00  0.00    +0.099 C 
BRANCH  10  11
ATOM     11  C   UNL     1     -39.654  22.958   1.176  0.00  0.00    +0.220 C 
BRANCH  11  12
ATOM     12  O   UNL     1     -41.025  23.333   1.216  0.00  0.00    -0.374 OA
ATOM     13  H   UNL     1     -41.264  23.590   2.120  0.00  0.00    +0.211 HD
ENDBRANCH  11  12
BRANCH  11  15
ATOM     14  O   UNL     1     -38.948  20.720   0.532  0.00  0.00    -0.248 OA
ATOM     15  C   UNL     1     -39.598  21.446   1.273  0.00  0.00    +0.342 C 
BRANCH  15  16
ATOM     16  O   UNL     1     -40.377  20.967   2.277  0.00  0.00    -0.479 OA
ATOM     17  H   UNL     1     -41.216  20.597   2.083  0.00  0.00    +0.295 HD
ENDBRANCH  15  16
ENDBRANCH  11  15
ENDBRANCH  10  11
ENDBRANCH   9  10
ENDBRANCH   1   9
BRANCH   1  18
ATOM     18  C   UNL     1     -35.500  21.669   1.877  0.00  0.00    +0.126 C 
BRANCH  18  20
ATOM     19  O   UNL     1     -35.101  19.420   1.088  0.00  0.00    -0.250 OA
ATOM     20  C   UNL     1     -35.744  20.179   1.801  0.00  0.00    +0.315 C 
BRANCH  20  21
ATOM     21  O   UNL     1     -36.770  19.768   2.587  0.00  0.00    -0.480 OA
ATOM     22  H   UNL     1     -36.662  19.734   3.517  0.00  0.00    +0.295 HD
ENDBRANCH  20  21
ENDBRANCH  18  20
ENDBRANCH   1  18
TORSDOF 10
ENDMDL
MODEL 7
REMARK VINA RESULT:      -4.9      1.611      2.302
REMARK  Name = 192636
REMARK  10 active torsions:
REMARK  status: ('A' for Active; 'I' for Inactive)
REMARK    1  A    between atoms: C_1  and  C_4
REMARK    2  A    between atoms: C_1  and  S_9
REMARK    3  A    between atoms: C_1  and  C_18
REMARK    4  A    between atoms: S_9  and  C_10
REMARK    5  A    between atoms: C_10  and  C_11
REMARK    6  A    between atoms: C_11  and  O_12
REMARK    7  A    between atoms: C_11  and  C_15
REMARK    8  A    between atoms: C_15  and  O_16
REMARK    9  A    between atoms: C_18  and  C_20
REMARK   10  A    between atoms: C_20  and  O_21
REMARK                            x       y       z     vdW  Elec       q    Type
REMARK                         _______ _______ _______ _____ _____    ______ ____
ROOT
ATOM      1  C   UNL     1     -36.344  24.340   4.565  0.00  0.00    +0.095 C 
ENDROOT
BRANCH   1   4
ATOM      2  N   UNL     1     -34.436  25.359   5.801  0.00  0.00    -0.318 N 
ATOM      3  N   UNL     1     -34.036  27.245   4.701  0.00  0.00    -0.315 N 
ATOM      4  C   UNL     1     -35.314  25.434   4.791  0.00  0.00    +0.048 C 
ATOM      5  C   UNL     1     -35.080  26.573   4.118  0.00  0.00    +0.070 C 
ATOM      6  C   UNL     1     -33.671  26.488   5.712  0.00  0.00    +0.182 C 
ATOM      7  H   UNL     1     -34.358  24.640   6.470  0.00  0.00    +0.148 HD
ATOM      8  H   UNL     1     -33.646  28.107   4.424  0.00  0.00    +0.148 HD
ENDBRANCH   1   4
BRANCH   1   9
ATOM      9  S   UNL     1     -37.594  24.876   3.378  0.00  0.00    -0.132 S 
BRANCH   9  10
ATOM     10  C   UNL     1     -37.617  23.385   2.333  0.00  0.00    +0.099 C 
BRANCH  10  11
ATOM     11  C   UNL     1     -39.027  23.085   1.833  0.00  0.00    +0.220 C 
BRANCH  11  12
ATOM     12  O   UNL     1     -39.963  23.782   2.647  0.00  0.00    -0.374 OA
ATOM     13  H   UNL     1     -39.709  23.693   3.580  0.00  0.00    +0.211 HD
ENDBRANCH  11  12
BRANCH  11  15
ATOM     14  O   UNL     1     -40.427  21.098   1.754  0.00  0.00    -0.248 OA
ATOM     15  C   UNL     1     -39.333  21.606   1.960  0.00  0.00    +0.342 C 
BRANCH  15  16
ATOM     16  O   UNL     1     -38.248  20.890   2.354  0.00  0.00    -0.479 OA
ATOM     17  H   UNL     1     -37.881  20.245   1.781  0.00  0.00    +0.295 HD
ENDBRANCH  15  16
ENDBRANCH  11  15
ENDBRANCH  10  11
ENDBRANCH   9  10
ENDBRANCH   1   9
BRANCH   1  18
ATOM     18  C   UNL     1     -35.733  23.007   4.118  0.00  0.00    +0.126 C 
BRANCH  18  20
ATOM     19  O   UNL     1     -35.769  22.368   6.449  0.00  0.00    -0.250 OA
ATOM     20  C   UNL     1     -35.611  22.045   5.278  0.00  0.00    +0.315 C 
BRANCH  20  21
ATOM     21  O   UNL     1     -35.283  20.787   4.893  0.00  0.00    -0.480 OA
ATOM     22  H   UNL     1     -34.833  20.648   4.082  0.00  0.00    +0.295 HD
ENDBRANCH  20  21
ENDBRANCH  18  20
ENDBRANCH   1  18
TORSDOF 10
ENDMDL
MODEL 8
REMARK VINA RESULT:      -4.9      2.623      3.656
REMARK  Name = 192636
REMARK  10 active torsions:
REMARK  status: ('A' for Active; 'I' for Inactive)
REMARK    1  A    between atoms: C_1  and  C_4
REMARK    2  A    between atoms: C_1  and  S_9
REMARK    3  A    between atoms: C_1  and  C_18
REMARK    4  A    between atoms: S_9  and  C_10
REMARK    5  A    between atoms: C_10  and  C_11
REMARK    6  A    between atoms: C_11  and  O_12
REMARK    7  A    between atoms: C_11  and  C_15
REMARK    8  A    between atoms: C_15  and  O_16
REMARK    9  A    between atoms: C_18  and  C_20
REMARK   10  A    between atoms: C_20  and  O_21
REMARK                            x       y       z     vdW  Elec       q    Type
REMARK                         _______ _______ _______ _____ _____    ______ ____
ROOT
ATOM      1  C   UNL     1     -36.396  24.178   3.729  0.00  0.00    +0.095 C 
ENDROOT
BRANCH   1   4
ATOM      2  N   UNL     1     -35.928  23.179   5.963  0.00  0.00    -0.318 N 
ATOM      3  N   UNL     1     -35.095  21.177   5.488  0.00  0.00    -0.315 N 
ATOM      4  C   UNL     1     -35.904  23.056   4.629  0.00  0.00    +0.048 C 
ATOM      5  C   UNL     1     -35.401  21.847   4.329  0.00  0.00    +0.070 C 
ATOM      6  C   UNL     1     -35.424  22.007   6.452  0.00  0.00    +0.182 C 
ATOM      7  H   UNL     1     -36.244  23.954   6.483  0.00  0.00    +0.148 HD
ATOM      8  H   UNL     1     -34.712  20.273   5.576  0.00  0.00    +0.148 HD
ENDBRANCH   1   4
BRANCH   1   9
ATOM      9  S   UNL     1     -37.895  23.682   2.852  0.00  0.00    -0.132 S 
BRANCH   9  10
ATOM     10  C   UNL     1     -37.106  22.808   1.463  0.00  0.00    +0.099 C 
BRANCH  10  11
ATOM     11  C   UNL     1     -37.710  21.421   1.272  0.00  0.00    +0.220 C 
BRANCH  11  12
ATOM     12  O   UNL     1     -38.650  21.179   2.312  0.00  0.00    -0.374 OA
ATOM     13  H   UNL     1     -39.480  21.640   2.112  0.00  0.00    +0.211 HD
ENDBRANCH  11  12
BRANCH  11  15
ATOM     14  O   UNL     1     -35.675  20.255   0.629  0.00  0.00    -0.248 OA
ATOM     15  C   UNL     1     -36.638  20.355   1.377  0.00  0.00    +0.342 C 
BRANCH  15  16
ATOM     16  O   UNL     1     -36.871  19.491   2.399  0.00  0.00    -0.479 OA
ATOM     17  H   UNL     1     -36.198  18.901   2.676  0.00  0.00    +0.295 HD
ENDBRANCH  15  16
ENDBRANCH  11  15
ENDBRANCH  10  11
ENDBRANCH   9  10
ENDBRANCH   1   9
BRANCH   1  18
ATOM     18  C   UNL     1     -36.635  25.498   4.471  0.00  0.00    +0.126 C 
BRANCH  18  20
ATOM     19  O   UNL     1     -34.399  25.948   5.272  0.00  0.00    -0.250 OA
ATOM     20  C   UNL     1     -35.357  26.296   4.593  0.00  0.00    +0.315 C 
BRANCH  20  21
ATOM     21  O   UNL     1     -35.386  27.455   3.889  0.00  0.00    -0.480 OA
ATOM     22  H   UNL     1     -36.186  27.937   3.814  0.00  0.00    +0.295 HD
ENDBRANCH  20  21
ENDBRANCH  18  20
ENDBRANCH   1  18
TORSDOF 10
ENDMDL
MODEL 9
REMARK VINA RESULT:      -4.8      3.309      5.150
REMARK  Name = 192636
REMARK  10 active torsions:
REMARK  status: ('A' for Active; 'I' for Inactive)
REMARK    1  A    between atoms: C_1  and  C_4
REMARK    2  A    between atoms: C_1  and  S_9
REMARK    3  A    between atoms: C_1  and  C_18
REMARK    4  A    between atoms: S_9  and  C_10
REMARK    5  A    between atoms: C_10  and  C_11
REMARK    6  A    between atoms: C_11  and  O_12
REMARK    7  A    between atoms: C_11  and  C_15
REMARK    8  A    between atoms: C_15  and  O_16
REMARK    9  A    between atoms: C_18  and  C_20
REMARK   10  A    between atoms: C_20  and  O_21
REMARK                            x       y       z     vdW  Elec       q    Type
REMARK                         _______ _______ _______ _____ _____    ______ ____
ROOT
ATOM      1  C   UNL     1     -35.950  23.377   3.331  0.00  0.00    +0.095 C 
ENDROOT
BRANCH   1   4
ATOM      2  N   UNL     1     -37.924  24.749   3.983  0.00  0.00    -0.318 N 
ATOM      3  N   UNL     1     -39.378  24.403   2.342  0.00  0.00    -0.315 N 
ATOM      4  C   UNL     1     -37.354  23.912   3.105  0.00  0.00    +0.048 C 
ATOM      5  C   UNL     1     -38.226  23.695   2.107  0.00  0.00    +0.070 C 
ATOM      6  C   UNL     1     -39.164  25.026   3.479  0.00  0.00    +0.182 C 
ATOM      7  H   UNL     1     -37.531  25.093   4.818  0.00  0.00    +0.148 HD
ATOM      8  H   UNL     1     -40.188  24.437   1.781  0.00  0.00    +0.148 HD
ENDBRANCH   1   4
BRANCH   1   9
ATOM      9  S   UNL     1     -34.718  24.654   2.989  0.00  0.00    -0.132 S 
BRANCH   9  10
ATOM     10  C   UNL     1     -34.115  24.895   4.690  0.00  0.00    +0.099 C 
BRANCH  10  11
ATOM     11  C   UNL     1     -34.307  26.339   5.142  0.00  0.00    +0.220 C 
BRANCH  11  12
ATOM     12  O   UNL     1     -35.660  26.717   4.918  0.00  0.00    -0.374 OA
ATOM     13  H   UNL     1     -35.832  26.750   3.964  0.00  0.00    +0.211 HD
ENDBRANCH  11  12
BRANCH  11  15
ATOM     14  O   UNL     1     -32.227  27.155   4.179  0.00  0.00    -0.248 OA
ATOM     15  C   UNL     1     -33.437  27.272   4.322  0.00  0.00    +0.342 C 
BRANCH  15  16
ATOM     16  O   UNL     1     -34.152  28.284   3.767  0.00  0.00    -0.479 OA
ATOM     17  H   UNL     1     -33.827  29.163   3.806  0.00  0.00    +0.295 HD
ENDBRANCH  15  16
ENDBRANCH  11  15
ENDBRANCH  10  11
ENDBRANCH   9  10
ENDBRANCH   1   9
BRANCH   1  18
ATOM     18  C   UNL     1     -35.732  22.801   4.735  0.00  0.00    +0.126 C 
BRANCH  18  20
ATOM     19  O   UNL     1     -35.268  20.701   3.630  0.00  0.00    -0.250 OA
ATOM     20  C   UNL     1     -35.395  21.328   4.674  0.00  0.00    +0.315 C 
BRANCH  20  21
ATOM     21  O   UNL     1     -35.273  20.760   5.899  0.00  0.00    -0.480 OA
ATOM     22  H   UNL     1     -34.634  20.090   6.043  0.00  0.00    +0.295 HD
ENDBRANCH  20  21
ENDBRANCH  18  20
ENDBRANCH   1  18
TORSDOF 10
ENDMDL
