MODEL 1
REMARK VINA RESULT:      -6.7      0.000      0.000
REMARK  Name = 5321461
REMARK  9 active torsions:
REMARK  status: ('A' for Active; 'I' for Inactive)
REMARK    1  A    between atoms: O_1  and  C_3
REMARK    2  A    between atoms: O_1  and  C_17
REMARK    3  A    between atoms: C_5  and  C_13
REMARK    4  A    between atoms: C_6  and  O_10
REMARK    5  A    between atoms: C_13  and  O_14
REMARK    6  A    between atoms: C_17  and  C_18
REMARK    7  A    between atoms: C_20  and  O_27
REMARK    8  A    between atoms: C_21  and  C_30
REMARK    9  A    between atoms: C_23  and  O_25
REMARK                            x       y       z     vdW  Elec       q    Type
REMARK                         _______ _______ _______ _____ _____    ______ ____
ROOT
ATOM      1  O   UNL     1     -32.370  27.349   4.506  0.00  0.00    -0.421 OA
ENDROOT
BRANCH   1   3
ATOM      2  C   UNL     1     -34.556  27.139   3.543  0.00  0.00    +0.047 C 
ATOM      3  C   UNL     1     -33.561  26.634   4.350  0.00  0.00    +0.147 C 
ATOM      4  C   UNL     1     -34.870  24.711   4.881  0.00  0.00    -0.010 C 
ATOM      5  C   UNL     1     -35.895  25.198   4.070  0.00  0.00    +0.105 C 
ATOM      6  C   UNL     1     -35.738  26.412   3.401  0.00  0.00    +0.138 C 
ATOM      7  C   UNL     1     -33.689  25.439   5.023  0.00  0.00    +0.033 C 
ATOM      8  C   UNL     1     -34.386  28.440   2.827  0.00  0.00    +0.037 C 
ATOM      9  C   UNL     1     -35.009  23.415   5.610  0.00  0.00    +0.031 C 
BRANCH   6  10
ATOM     10  O   UNL     1     -36.739  26.891   2.606  0.00  0.00    -0.506 OA
ATOM     11  H   UNL     1     -36.921  27.811   2.584  0.00  0.00    +0.292 HD
ENDBRANCH   6  10
BRANCH   5  13
ATOM     12  O   UNL     1     -37.215  23.295   3.469  0.00  0.00    -0.245 OA
ATOM     13  C   UNL     1     -37.133  24.440   3.919  0.00  0.00    +0.341 C 
BRANCH  13  14
ATOM     14  O   UNL     1     -38.220  25.141   4.335  0.00  0.00    -0.477 OA
ATOM     15  H   UNL     1     -38.537  25.038   5.211  0.00  0.00    +0.295 HD
ENDBRANCH  13  14
ENDBRANCH   5  13
ENDBRANCH   1   3
BRANCH   1  17
ATOM     16  O   UNL     1     -32.938  27.684   6.742  0.00  0.00    -0.244 OA
ATOM     17  C   UNL     1     -32.209  27.910   5.769  0.00  0.00    +0.348 C 
BRANCH  17  18
ATOM     18  C   UNL     1     -31.054  28.802   5.798  0.00  0.00    +0.106 C 
ATOM     19  C   UNL     1     -31.143  30.083   5.252  0.00  0.00    -0.010 C 
ATOM     20  C   UNL     1     -29.859  28.370   6.374  0.00  0.00    +0.146 C 
ATOM     21  C   UNL     1     -28.754  29.219   6.403  0.00  0.00    +0.110 C 
ATOM     22  C   UNL     1     -30.037  30.931   5.282  0.00  0.00    +0.033 C 
ATOM     23  C   UNL     1     -28.842  30.500   5.858  0.00  0.00    +0.144 C 
ATOM     24  C   UNL     1     -32.410  30.571   4.628  0.00  0.00    +0.031 C 
BRANCH  23  25
ATOM     25  O   UNL     1     -27.774  31.346   5.876  0.00  0.00    -0.471 OA
ATOM     26  C   UNL     1     -27.873  32.532   5.089  0.00  0.00    +0.252 C 
ENDBRANCH  23  25
BRANCH  20  27
ATOM     27  O   UNL     1     -29.772  27.118   6.908  0.00  0.00    -0.505 OA
ATOM     28  H   UNL     1     -28.964  26.823   7.282  0.00  0.00    +0.292 HD
ENDBRANCH  20  27
BRANCH  21  30
ATOM     29  O   UNL     1     -27.415  28.413   8.181  0.00  0.00    -0.283 OA
ATOM     30  C   UNL     1     -27.502  28.771   7.005  0.00  0.00    +0.240 C 
ENDBRANCH  21  30
ENDBRANCH  17  18
ENDBRANCH   1  17
TORSDOF 9
ENDMDL
MODEL 2
REMARK VINA RESULT:      -6.7      3.232      6.167
REMARK  Name = 5321461
REMARK  9 active torsions:
REMARK  status: ('A' for Active; 'I' for Inactive)
REMARK    1  A    between atoms: O_1  and  C_3
REMARK    2  A    between atoms: O_1  and  C_17
REMARK    3  A    between atoms: C_5  and  C_13
REMARK    4  A    between atoms: C_6  and  O_10
REMARK    5  A    between atoms: C_13  and  O_14
REMARK    6  A    between atoms: C_17  and  C_18
REMARK    7  A    between atoms: C_20  and  O_27
REMARK    8  A    between atoms: C_21  and  C_30
REMARK    9  A    between atoms: C_23  and  O_25
REMARK                            x       y       z     vdW  Elec       q    Type
REMARK                         _______ _______ _______ _____ _____    ______ ____
ROOT
ATOM      1  O   UNL     1     -37.688  24.321   3.981  0.00  0.00    -0.421 OA
ENDROOT
BRANCH   1   3
ATOM      2  C   UNL     1     -36.370  22.360   3.569  0.00  0.00    +0.047 C 
ATOM      3  C   UNL     1     -37.358  23.232   3.169  0.00  0.00    +0.147 C 
ATOM      4  C   UNL     1     -37.730  21.998   1.161  0.00  0.00    -0.010 C 
ATOM      5  C   UNL     1     -36.733  21.099   1.541  0.00  0.00    +0.105 C 
ATOM      6  C   UNL     1     -36.053  21.281   2.746  0.00  0.00    +0.138 C 
ATOM      7  C   UNL     1     -38.046  23.078   1.985  0.00  0.00    +0.033 C 
ATOM      8  C   UNL     1     -35.642  22.556   4.860  0.00  0.00    +0.037 C 
ATOM      9  C   UNL     1     -38.476  21.830  -0.123  0.00  0.00    +0.031 C 
BRANCH   6  10
ATOM     10  O   UNL     1     -35.078  20.403   3.121  0.00  0.00    -0.506 OA
ATOM     11  H   UNL     1     -34.898  20.262   4.030  0.00  0.00    +0.292 HD
ENDBRANCH   6  10
BRANCH   5  13
ATOM     12  O   UNL     1     -35.716  20.030  -0.341  0.00  0.00    -0.245 OA
ATOM     13  C   UNL     1     -36.400  19.968   0.682  0.00  0.00    +0.341 C 
BRANCH  13  14
ATOM     14  O   UNL     1     -36.933  18.802   1.133  0.00  0.00    -0.477 OA
ATOM     15  H   UNL     1     -36.951  18.048   0.578  0.00  0.00    +0.295 HD
ENDBRANCH  13  14
ENDBRANCH   5  13
ENDBRANCH   1   3
BRANCH   1  17
ATOM     16  O   UNL     1     -38.302  26.297   2.906  0.00  0.00    -0.244 OA
ATOM     17  C   UNL     1     -37.439  25.558   3.395  0.00  0.00    +0.348 C 
BRANCH  17  18
ATOM     18  C   UNL     1     -36.016  25.878   3.440  0.00  0.00    +0.106 C 
ATOM     19  C   UNL     1     -35.276  25.954   2.260  0.00  0.00    -0.010 C 
ATOM     20  C   UNL     1     -35.395  26.105   4.669  0.00  0.00    +0.146 C 
ATOM     21  C   UNL     1     -34.035  26.409   4.716  0.00  0.00    +0.110 C 
ATOM     22  C   UNL     1     -33.917  26.259   2.308  0.00  0.00    +0.033 C 
ATOM     23  C   UNL     1     -33.295  26.488   3.536  0.00  0.00    +0.144 C 
ATOM     24  C   UNL     1     -35.915  25.715   0.930  0.00  0.00    +0.031 C 
BRANCH  23  25
ATOM     25  O   UNL     1     -31.966  26.785   3.559  0.00  0.00    -0.471 OA
ATOM     26  C   UNL     1     -31.571  28.037   3.000  0.00  0.00    +0.252 C 
ENDBRANCH  23  25
BRANCH  20  27
ATOM     27  O   UNL     1     -36.117  26.029   5.824  0.00  0.00    -0.505 OA
ATOM     28  H   UNL     1     -36.954  25.606   5.827  0.00  0.00    +0.292 HD
ENDBRANCH  20  27
BRANCH  21  30
ATOM     29  O   UNL     1     -32.899  27.738   6.311  0.00  0.00    -0.283 OA
ATOM     30  C   UNL     1     -33.382  26.649   5.999  0.00  0.00    +0.240 C 
ENDBRANCH  21  30
ENDBRANCH  17  18
ENDBRANCH   1  17
TORSDOF 9
ENDMDL
MODEL 3
REMARK VINA RESULT:      -6.6      5.139      7.997
REMARK  Name = 5321461
REMARK  9 active torsions:
REMARK  status: ('A' for Active; 'I' for Inactive)
REMARK    1  A    between atoms: O_1  and  C_3
REMARK    2  A    between atoms: O_1  and  C_17
REMARK    3  A    between atoms: C_5  and  C_13
REMARK    4  A    between atoms: C_6  and  O_10
REMARK    5  A    between atoms: C_13  and  O_14
REMARK    6  A    between atoms: C_17  and  C_18
REMARK    7  A    between atoms: C_20  and  O_27
REMARK    8  A    between atoms: C_21  and  C_30
REMARK    9  A    between atoms: C_23  and  O_25
REMARK                            x       y       z     vdW  Elec       q    Type
REMARK                         _______ _______ _______ _____ _____    ______ ____
ROOT
ATOM      1  O   UNL     1     -34.675  25.360   4.061  0.00  0.00    -0.421 OA
ENDROOT
BRANCH   1   3
ATOM      2  C   UNL     1     -35.136  23.045   4.487  0.00  0.00    +0.047 C 
ATOM      3  C   UNL     1     -34.902  24.064   3.589  0.00  0.00    +0.147 C 
ATOM      4  C   UNL     1     -35.105  22.573   1.738  0.00  0.00    -0.010 C 
ATOM      5  C   UNL     1     -35.344  21.522   2.624  0.00  0.00    +0.105 C 
ATOM      6  C   UNL     1     -35.360  21.759   3.999  0.00  0.00    +0.138 C 
ATOM      7  C   UNL     1     -34.880  23.859   2.227  0.00  0.00    +0.033 C 
ATOM      8  C   UNL     1     -35.152  23.301   5.960  0.00  0.00    +0.037 C 
ATOM      9  C   UNL     1     -35.081  22.350   0.261  0.00  0.00    +0.031 C 
BRANCH   6  10
ATOM     10  O   UNL     1     -35.594  20.733   4.868  0.00  0.00    -0.506 OA
ATOM     11  H   UNL     1     -36.075  20.888   5.657  0.00  0.00    +0.292 HD
ENDBRANCH   6  10
BRANCH   5  13
ATOM     12  O   UNL     1     -34.758  19.496   1.494  0.00  0.00    -0.245 OA
ATOM     13  C   UNL     1     -35.579  20.174   2.116  0.00  0.00    +0.341 C 
BRANCH  13  14
ATOM     14  O   UNL     1     -36.828  19.724   2.405  0.00  0.00    -0.477 OA
ATOM     15  H   UNL     1     -37.422  19.512   1.713  0.00  0.00    +0.295 HD
ENDBRANCH  13  14
ENDBRANCH   5  13
ENDBRANCH   1   3
BRANCH   1  17
ATOM     16  O   UNL     1     -36.104  26.424   5.564  0.00  0.00    -0.244 OA
ATOM     17  C   UNL     1     -35.834  26.041   4.420  0.00  0.00    +0.348 C 
BRANCH  17  18
ATOM     18  C   UNL     1     -36.694  26.254   3.260  0.00  0.00    +0.106 C 
ATOM     19  C   UNL     1     -36.285  27.103   2.231  0.00  0.00    -0.010 C 
ATOM     20  C   UNL     1     -37.927  25.607   3.182  0.00  0.00    +0.146 C 
ATOM     21  C   UNL     1     -38.750  25.808   2.075  0.00  0.00    +0.110 C 
ATOM     22  C   UNL     1     -37.109  27.303   1.124  0.00  0.00    +0.033 C 
ATOM     23  C   UNL     1     -38.342  26.655   1.045  0.00  0.00    +0.144 C 
ATOM     24  C   UNL     1     -34.970  27.810   2.288  0.00  0.00    +0.031 C 
BRANCH  23  25
ATOM     25  O   UNL     1     -39.131  26.866  -0.045  0.00  0.00    -0.471 OA
ATOM     26  C   UNL     1     -39.569  28.203  -0.280  0.00  0.00    +0.252 C 
ENDBRANCH  23  25
BRANCH  20  27
ATOM     27  O   UNL     1     -38.327  24.776   4.188  0.00  0.00    -0.505 OA
ATOM     28  H   UNL     1     -38.809  23.997   3.989  0.00  0.00    +0.292 HD
ENDBRANCH  20  27
BRANCH  21  30
ATOM     29  O   UNL     1     -40.171  23.917   2.153  0.00  0.00    -0.283 OA
ATOM     30  C   UNL     1     -40.041  25.131   1.990  0.00  0.00    +0.240 C 
ENDBRANCH  21  30
ENDBRANCH  17  18
ENDBRANCH   1  17
TORSDOF 9
ENDMDL
MODEL 4
REMARK VINA RESULT:      -6.5      5.815      9.302
REMARK  Name = 5321461
REMARK  9 active torsions:
REMARK  status: ('A' for Active; 'I' for Inactive)
REMARK    1  A    between atoms: O_1  and  C_3
REMARK    2  A    between atoms: O_1  and  C_17
REMARK    3  A    between atoms: C_5  and  C_13
REMARK    4  A    between atoms: C_6  and  O_10
REMARK    5  A    between atoms: C_13  and  O_14
REMARK    6  A    between atoms: C_17  and  C_18
REMARK    7  A    between atoms: C_20  and  O_27
REMARK    8  A    between atoms: C_21  and  C_30
REMARK    9  A    between atoms: C_23  and  O_25
REMARK                            x       y       z     vdW  Elec       q    Type
REMARK                         _______ _______ _______ _____ _____    ______ ____
ROOT
ATOM      1  O   UNL     1     -35.657  24.642   0.893  0.00  0.00    -0.421 OA
ENDROOT
BRANCH   1   3
ATOM      2  C   UNL     1     -35.816  22.636   2.197  0.00  0.00    +0.047 C 
ATOM      3  C   UNL     1     -35.584  23.992   2.128  0.00  0.00    +0.147 C 
ATOM      4  C   UNL     1     -35.200  24.118   4.479  0.00  0.00    -0.010 C 
ATOM      5  C   UNL     1     -35.431  22.745   4.580  0.00  0.00    +0.105 C 
ATOM      6  C   UNL     1     -35.739  22.005   3.439  0.00  0.00    +0.138 C 
ATOM      7  C   UNL     1     -35.279  24.748   3.238  0.00  0.00    +0.033 C 
ATOM      8  C   UNL     1     -36.146  21.844   0.973  0.00  0.00    +0.037 C 
ATOM      9  C   UNL     1     -34.869  24.938   5.683  0.00  0.00    +0.031 C 
BRANCH   6  10
ATOM     10  O   UNL     1     -35.965  20.662   3.533  0.00  0.00    -0.506 OA
ATOM     11  H   UNL     1     -36.404  20.211   2.839  0.00  0.00    +0.292 HD
ENDBRANCH   6  10
BRANCH   5  13
ATOM     12  O   UNL     1     -36.210  22.141   6.759  0.00  0.00    -0.245 OA
ATOM     13  C   UNL     1     -35.351  22.082   5.877  0.00  0.00    +0.341 C 
BRANCH  13  14
ATOM     14  O   UNL     1     -34.203  21.370   6.022  0.00  0.00    -0.477 OA
ATOM     15  H   UNL     1     -33.455  21.763   6.428  0.00  0.00    +0.295 HD
ENDBRANCH  13  14
ENDBRANCH   5  13
ENDBRANCH   1   3
BRANCH   1  17
ATOM     16  O   UNL     1     -36.068  26.937   0.852  0.00  0.00    -0.244 OA
ATOM     17  C   UNL     1     -36.473  25.770   0.896  0.00  0.00    +0.348 C 
BRANCH  17  18
ATOM     18  C   UNL     1     -37.882  25.392   0.949  0.00  0.00    +0.106 C 
ATOM     19  C   UNL     1     -38.444  24.634  -0.079  0.00  0.00    -0.010 C 
ATOM     20  C   UNL     1     -38.666  25.791   2.031  0.00  0.00    +0.146 C 
ATOM     21  C   UNL     1     -40.013  25.432   2.086  0.00  0.00    +0.110 C 
ATOM     22  C   UNL     1     -39.791  24.276  -0.024  0.00  0.00    +0.033 C 
ATOM     23  C   UNL     1     -40.576  24.674   1.059  0.00  0.00    +0.144 C 
ATOM     24  C   UNL     1     -37.628  24.194  -1.250  0.00  0.00    +0.031 C 
BRANCH  23  25
ATOM     25  O   UNL     1     -41.889  24.312   1.092  0.00  0.00    -0.471 OA
ATOM     26  C   UNL     1     -42.806  25.136   0.375  0.00  0.00    +0.252 C 
ENDBRANCH  23  25
BRANCH  20  27
ATOM     27  O   UNL     1     -38.117  26.532   3.037  0.00  0.00    -0.505 OA
ATOM     28  H   UNL     1     -37.945  26.137   3.870  0.00  0.00    +0.292 HD
ENDBRANCH  20  27
BRANCH  21  30
ATOM     29  O   UNL     1     -41.099  27.028   3.455  0.00  0.00    -0.283 OA
ATOM     30  C   UNL     1     -40.836  25.848   3.217  0.00  0.00    +0.240 C 
ENDBRANCH  21  30
ENDBRANCH  17  18
ENDBRANCH   1  17
TORSDOF 9
ENDMDL
MODEL 5
REMARK VINA RESULT:      -6.4      5.283      9.103
REMARK  Name = 5321461
REMARK  9 active torsions:
REMARK  status: ('A' for Active; 'I' for Inactive)
REMARK    1  A    between atoms: O_1  and  C_3
REMARK    2  A    between atoms: O_1  and  C_17
REMARK    3  A    between atoms: C_5  and  C_13
REMARK    4  A    between atoms: C_6  and  O_10
REMARK    5  A    between atoms: C_13  and  O_14
REMARK    6  A    between atoms: C_17  and  C_18
REMARK    7  A    between atoms: C_20  and  O_27
REMARK    8  A    between atoms: C_21  and  C_30
REMARK    9  A    between atoms: C_23  and  O_25
REMARK                            x       y       z     vdW  Elec       q    Type
REMARK                         _______ _______ _______ _____ _____    ______ ____
ROOT
ATOM      1  O   UNL     1     -37.132  21.537   2.001  0.00  0.00    -0.421 OA
ENDROOT
BRANCH   1   3
ATOM      2  C   UNL     1     -35.938  22.626   3.773  0.00  0.00    +0.047 C 
ATOM      3  C   UNL     1     -36.784  22.703   2.689  0.00  0.00    +0.147 C 
ATOM      4  C   UNL     1     -36.978  25.070   2.920  0.00  0.00    -0.010 C 
ATOM      5  C   UNL     1     -36.123  25.022   4.021  0.00  0.00    +0.105 C 
ATOM      6  C   UNL     1     -35.604  23.800   4.448  0.00  0.00    +0.138 C 
ATOM      7  C   UNL     1     -37.313  23.895   2.246  0.00  0.00    +0.033 C 
ATOM      8  C   UNL     1     -35.382  21.315   4.229  0.00  0.00    +0.037 C 
ATOM      9  C   UNL     1     -37.551  26.363   2.440  0.00  0.00    +0.031 C 
BRANCH   6  10
ATOM     10  O   UNL     1     -34.766  23.749   5.525  0.00  0.00    -0.506 OA
ATOM     11  H   UNL     1     -34.669  24.500   6.078  0.00  0.00    +0.292 HD
ENDBRANCH   6  10
BRANCH   5  13
ATOM     12  O   UNL     1     -34.729  26.888   4.568  0.00  0.00    -0.245 OA
ATOM     13  C   UNL     1     -35.771  26.248   4.729  0.00  0.00    +0.341 C 
BRANCH  13  14
ATOM     14  O   UNL     1     -36.732  26.629   5.610  0.00  0.00    -0.477 OA
ATOM     15  H   UNL     1     -36.959  26.070   6.328  0.00  0.00    +0.295 HD
ENDBRANCH  13  14
ENDBRANCH   5  13
ENDBRANCH   1   3
BRANCH   1  17
ATOM     16  O   UNL     1     -37.438  21.835  -0.291  0.00  0.00    -0.244 OA
ATOM     17  C   UNL     1     -36.725  21.524   0.670  0.00  0.00    +0.348 C 
BRANCH  17  18
ATOM     18  C   UNL     1     -35.334  21.100   0.556  0.00  0.00    +0.106 C 
ATOM     19  C   UNL     1     -34.350  22.015   0.179  0.00  0.00    -0.010 C 
ATOM     20  C   UNL     1     -34.988  19.775   0.823  0.00  0.00    +0.146 C 
ATOM     21  C   UNL     1     -33.660  19.366   0.714  0.00  0.00    +0.110 C 
ATOM     22  C   UNL     1     -33.022  21.606   0.071  0.00  0.00    +0.033 C 
ATOM     23  C   UNL     1     -32.676  20.281   0.339  0.00  0.00    +0.144 C 
ATOM     24  C   UNL     1     -34.691  23.440  -0.114  0.00  0.00    +0.031 C 
BRANCH  23  25
ATOM     25  O   UNL     1     -31.371  19.903   0.227  0.00  0.00    -0.471 OA
ATOM     26  C   UNL     1     -30.602  20.527  -0.798  0.00  0.00    +0.252 C 
ENDBRANCH  23  25
BRANCH  20  27
ATOM     27  O   UNL     1     -35.950  18.879   1.191  0.00  0.00    -0.505 OA
ATOM     28  H   UNL     1     -35.881  18.428   2.010  0.00  0.00    +0.292 HD
ENDBRANCH  20  27
BRANCH  21  30
ATOM     29  O   UNL     1     -33.778  17.026   0.384  0.00  0.00    -0.283 OA
ATOM     30  C   UNL     1     -33.295  17.981   0.994  0.00  0.00    +0.240 C 
ENDBRANCH  21  30
ENDBRANCH  17  18
ENDBRANCH   1  17
TORSDOF 9
ENDMDL
MODEL 6
REMARK VINA RESULT:      -6.4      1.899      2.589
REMARK  Name = 5321461
REMARK  9 active torsions:
REMARK  status: ('A' for Active; 'I' for Inactive)
REMARK    1  A    between atoms: O_1  and  C_3
REMARK    2  A    between atoms: O_1  and  C_17
REMARK    3  A    between atoms: C_5  and  C_13
REMARK    4  A    between atoms: C_6  and  O_10
REMARK    5  A    between atoms: C_13  and  O_14
REMARK    6  A    between atoms: C_17  and  C_18
REMARK    7  A    between atoms: C_20  and  O_27
REMARK    8  A    between atoms: C_21  and  C_30
REMARK    9  A    between atoms: C_23  and  O_25
REMARK                            x       y       z     vdW  Elec       q    Type
REMARK                         _______ _______ _______ _____ _____    ______ ____
ROOT
ATOM      1  O   UNL     1     -32.972  25.904   4.192  0.00  0.00    -0.421 OA
ENDROOT
BRANCH   1   3
ATOM      2  C   UNL     1     -34.195  24.612   2.583  0.00  0.00    +0.047 C 
ATOM      3  C   UNL     1     -33.807  24.825   3.887  0.00  0.00    +0.147 C 
ATOM      4  C   UNL     1     -35.047  22.930   4.639  0.00  0.00    -0.010 C 
ATOM      5  C   UNL     1     -35.455  22.690   3.326  0.00  0.00    +0.105 C 
ATOM      6  C   UNL     1     -35.029  23.532   2.299  0.00  0.00    +0.138 C 
ATOM      7  C   UNL     1     -34.214  24.012   4.922  0.00  0.00    +0.033 C 
ATOM      8  C   UNL     1     -33.736  25.515   1.483  0.00  0.00    +0.037 C 
ATOM      9  C   UNL     1     -35.488  22.048   5.760  0.00  0.00    +0.031 C 
BRANCH   6  10
ATOM     10  O   UNL     1     -35.426  23.299   1.014  0.00  0.00    -0.506 OA
ATOM     11  H   UNL     1     -34.791  23.272   0.324  0.00  0.00    +0.292 HD
ENDBRANCH   6  10
BRANCH   5  13
ATOM     12  O   UNL     1     -35.960  20.390   2.902  0.00  0.00    -0.245 OA
ATOM     13  C   UNL     1     -36.328  21.560   3.025  0.00  0.00    +0.341 C 
BRANCH  13  14
ATOM     14  O   UNL     1     -37.627  21.935   2.890  0.00  0.00    -0.477 OA
ATOM     15  H   UNL     1     -38.154  21.565   2.208  0.00  0.00    +0.295 HD
ENDBRANCH  13  14
ENDBRANCH   5  13
ENDBRANCH   1   3
BRANCH   1  17
ATOM     16  O   UNL     1     -34.846  27.066   4.950  0.00  0.00    -0.244 OA
ATOM     17  C   UNL     1     -33.650  27.035   4.636  0.00  0.00    +0.348 C 
BRANCH  17  18
ATOM     18  C   UNL     1     -32.757  28.188   4.692  0.00  0.00    +0.106 C 
ATOM     19  C   UNL     1     -32.843  29.189   3.724  0.00  0.00    -0.010 C 
ATOM     20  C   UNL     1     -31.815  28.287   5.716  0.00  0.00    +0.146 C 
ATOM     21  C   UNL     1     -30.960  29.387   5.772  0.00  0.00    +0.110 C 
ATOM     22  C   UNL     1     -31.988  30.289   3.781  0.00  0.00    +0.033 C 
ATOM     23  C   UNL     1     -31.046  30.389   4.805  0.00  0.00    +0.144 C 
ATOM     24  C   UNL     1     -33.842  29.109   2.615  0.00  0.00    +0.031 C 
BRANCH  23  25
ATOM     25  O   UNL     1     -30.221  31.472   4.841  0.00  0.00    -0.471 OA
ATOM     26  C   UNL     1     -30.380  32.443   3.808  0.00  0.00    +0.252 C 
ENDBRANCH  23  25
BRANCH  20  27
ATOM     27  O   UNL     1     -31.730  27.308   6.663  0.00  0.00    -0.505 OA
ATOM     28  H   UNL     1     -32.486  26.796   6.877  0.00  0.00    +0.292 HD
ENDBRANCH  20  27
BRANCH  21  30
ATOM     29  O   UNL     1     -29.038  28.701   6.971  0.00  0.00    -0.283 OA
ATOM     30  C   UNL     1     -29.974  29.493   6.842  0.00  0.00    +0.240 C 
ENDBRANCH  21  30
ENDBRANCH  17  18
ENDBRANCH   1  17
TORSDOF 9
ENDMDL
MODEL 7
REMARK VINA RESULT:      -6.4      3.482      9.027
REMARK  Name = 5321461
REMARK  9 active torsions:
REMARK  status: ('A' for Active; 'I' for Inactive)
REMARK    1  A    between atoms: O_1  and  C_3
REMARK    2  A    between atoms: O_1  and  C_17
REMARK    3  A    between atoms: C_5  and  C_13
REMARK    4  A    between atoms: C_6  and  O_10
REMARK    5  A    between atoms: C_13  and  O_14
REMARK    6  A    between atoms: C_17  and  C_18
REMARK    7  A    between atoms: C_20  and  O_27
REMARK    8  A    between atoms: C_21  and  C_30
REMARK    9  A    between atoms: C_23  and  O_25
REMARK                            x       y       z     vdW  Elec       q    Type
REMARK                         _______ _______ _______ _____ _____    ______ ____
ROOT
ATOM      1  O   UNL     1     -35.003  23.163   3.310  0.00  0.00    -0.421 OA
ENDROOT
BRANCH   1   3
ATOM      2  C   UNL     1     -34.506  25.256   2.250  0.00  0.00    +0.047 C 
ATOM      3  C   UNL     1     -34.549  24.482   3.389  0.00  0.00    +0.147 C 
ATOM      4  C   UNL     1     -33.701  26.271   4.721  0.00  0.00    -0.010 C 
ATOM      5  C   UNL     1     -33.647  27.078   3.584  0.00  0.00    +0.105 C 
ATOM      6  C   UNL     1     -34.050  26.570   2.349  0.00  0.00    +0.138 C 
ATOM      7  C   UNL     1     -34.157  24.957   4.622  0.00  0.00    +0.033 C 
ATOM      8  C   UNL     1     -34.939  24.710   0.927  0.00  0.00    +0.037 C 
ATOM      9  C   UNL     1     -33.276  26.787   6.057  0.00  0.00    +0.031 C 
BRANCH   6  10
ATOM     10  O   UNL     1     -33.999  27.356   1.235  0.00  0.00    -0.506 OA
ATOM     11  H   UNL     1     -34.681  27.977   1.067  0.00  0.00    +0.292 HD
ENDBRANCH   6  10
BRANCH   5  13
ATOM     12  O   UNL     1     -31.989  28.790   3.795  0.00  0.00    -0.245 OA
ATOM     13  C   UNL     1     -33.170  28.453   3.683  0.00  0.00    +0.341 C 
BRANCH  13  14
ATOM     14  O   UNL     1     -34.185  29.356   3.638  0.00  0.00    -0.477 OA
ATOM     15  H   UNL     1     -35.001  29.165   4.058  0.00  0.00    +0.295 HD
ENDBRANCH  13  14
ENDBRANCH   5  13
ENDBRANCH   1   3
BRANCH   1  17
ATOM     16  O   UNL     1     -36.149  22.618   5.266  0.00  0.00    -0.244 OA
ATOM     17  C   UNL     1     -36.145  22.912   4.065  0.00  0.00    +0.348 C 
BRANCH  17  18
ATOM     18  C   UNL     1     -37.347  23.050   3.250  0.00  0.00    +0.106 C 
ATOM     19  C   UNL     1     -37.660  22.085   2.293  0.00  0.00    -0.010 C 
ATOM     20  C   UNL     1     -38.184  24.152   3.430  0.00  0.00    +0.146 C 
ATOM     21  C   UNL     1     -39.334  24.287   2.653  0.00  0.00    +0.110 C 
ATOM     22  C   UNL     1     -38.810  22.221   1.516  0.00  0.00    +0.033 C 
ATOM     23  C   UNL     1     -39.648  23.322   1.696  0.00  0.00    +0.144 C 
ATOM     24  C   UNL     1     -36.782  20.895   2.078  0.00  0.00    +0.031 C 
BRANCH  23  25
ATOM     25  O   UNL     1     -40.767  23.435   0.926  0.00  0.00    -0.471 OA
ATOM     26  C   UNL     1     -40.579  23.477  -0.487  0.00  0.00    +0.252 C 
ENDBRANCH  23  25
BRANCH  20  27
ATOM     27  O   UNL     1     -37.878  25.096   4.366  0.00  0.00    -0.505 OA
ATOM     28  H   UNL     1     -37.575  24.835   5.214  0.00  0.00    +0.292 HD
ENDBRANCH  20  27
BRANCH  21  30
ATOM     29  O   UNL     1     -39.851  26.597   2.623  0.00  0.00    -0.283 OA
ATOM     30  C   UNL     1     -40.212  25.438   2.839  0.00  0.00    +0.240 C 
ENDBRANCH  21  30
ENDBRANCH  17  18
ENDBRANCH   1  17
TORSDOF 9
ENDMDL
MODEL 8
REMARK VINA RESULT:      -6.3      2.340      4.087
REMARK  Name = 5321461
REMARK  9 active torsions:
REMARK  status: ('A' for Active; 'I' for Inactive)
REMARK    1  A    between atoms: O_1  and  C_3
REMARK    2  A    between atoms: O_1  and  C_17
REMARK    3  A    between atoms: C_5  and  C_13
REMARK    4  A    between atoms: C_6  and  O_10
REMARK    5  A    between atoms: C_13  and  O_14
REMARK    6  A    between atoms: C_17  and  C_18
REMARK    7  A    between atoms: C_20  and  O_27
REMARK    8  A    between atoms: C_21  and  C_30
REMARK    9  A    between atoms: C_23  and  O_25
REMARK                            x       y       z     vdW  Elec       q    Type
REMARK                         _______ _______ _______ _____ _____    ______ ____
ROOT
ATOM      1  O   UNL     1     -34.168  24.910   5.360  0.00  0.00    -0.421 OA
ENDROOT
BRANCH   1   3
ATOM      2  C   UNL     1     -35.040  22.773   4.709  0.00  0.00    +0.047 C 
ATOM      3  C   UNL     1     -34.561  24.016   4.360  0.00  0.00    +0.147 C 
ATOM      4  C   UNL     1     -34.836  23.547   2.037  0.00  0.00    -0.010 C 
ATOM      5  C   UNL     1     -35.326  22.281   2.362  0.00  0.00    +0.105 C 
ATOM      6  C   UNL     1     -35.427  21.895   3.698  0.00  0.00    +0.138 C 
ATOM      7  C   UNL     1     -34.449  24.425   3.049  0.00  0.00    +0.033 C 
ATOM      8  C   UNL     1     -35.149  22.361   6.142  0.00  0.00    +0.037 C 
ATOM      9  C   UNL     1     -34.715  23.989   0.615  0.00  0.00    +0.031 C 
BRANCH   6  10
ATOM     10  O   UNL     1     -35.906  20.658   4.019  0.00  0.00    -0.506 OA
ATOM     11  H   UNL     1     -36.735  20.374   3.685  0.00  0.00    +0.292 HD
ENDBRANCH   6  10
BRANCH   5  13
ATOM     12  O   UNL     1     -36.773  21.441   0.652  0.00  0.00    -0.245 OA
ATOM     13  C   UNL     1     -35.732  21.359   1.306  0.00  0.00    +0.341 C 
BRANCH  13  14
ATOM     14  O   UNL     1     -34.821  20.371   1.106  0.00  0.00    -0.477 OA
ATOM     15  H   UNL     1     -34.228  20.418   0.382  0.00  0.00    +0.295 HD
ENDBRANCH  13  14
ENDBRANCH   5  13
ENDBRANCH   1   3
BRANCH   1  17
ATOM     16  O   UNL     1     -35.950  26.410   5.456  0.00  0.00    -0.244 OA
ATOM     17  C   UNL     1     -34.755  26.168   5.256  0.00  0.00    +0.348 C 
BRANCH  17  18
ATOM     18  C   UNL     1     -33.765  27.174   4.884  0.00  0.00    +0.106 C 
ATOM     19  C   UNL     1     -33.905  27.889   3.694  0.00  0.00    -0.010 C 
ATOM     20  C   UNL     1     -32.677  27.419   5.721  0.00  0.00    +0.146 C 
ATOM     21  C   UNL     1     -31.729  28.379   5.369  0.00  0.00    +0.110 C 
ATOM     22  C   UNL     1     -32.957  28.850   3.343  0.00  0.00    +0.033 C 
ATOM     23  C   UNL     1     -31.868  29.095   4.180  0.00  0.00    +0.144 C 
ATOM     24  C   UNL     1     -35.059  27.647   2.777  0.00  0.00    +0.031 C 
BRANCH  23  25
ATOM     25  O   UNL     1     -30.954  30.038   3.817  0.00  0.00    -0.471 OA
ATOM     26  C   UNL     1     -31.391  31.396   3.814  0.00  0.00    +0.252 C 
ENDBRANCH  23  25
BRANCH  20  27
ATOM     27  O   UNL     1     -32.539  26.720   6.885  0.00  0.00    -0.505 OA
ATOM     28  H   UNL     1     -32.681  25.793   6.895  0.00  0.00    +0.292 HD
ENDBRANCH  20  27
BRANCH  21  30
ATOM     29  O   UNL     1     -29.696  27.813   6.441  0.00  0.00    -0.283 OA
ATOM     30  C   UNL     1     -30.589  28.638   6.244  0.00  0.00    +0.240 C 
ENDBRANCH  21  30
ENDBRANCH  17  18
ENDBRANCH   1  17
TORSDOF 9
ENDMDL
MODEL 9
REMARK VINA RESULT:      -6.2      3.256      6.702
REMARK  Name = 5321461
REMARK  9 active torsions:
REMARK  status: ('A' for Active; 'I' for Inactive)
REMARK    1  A    between atoms: O_1  and  C_3
REMARK    2  A    between atoms: O_1  and  C_17
REMARK    3  A    between atoms: C_5  and  C_13
REMARK    4  A    between atoms: C_6  and  O_10
REMARK    5  A    between atoms: C_13  and  O_14
REMARK    6  A    between atoms: C_17  and  C_18
REMARK    7  A    between atoms: C_20  and  O_27
REMARK    8  A    between atoms: C_21  and  C_30
REMARK    9  A    between atoms: C_23  and  O_25
REMARK                            x       y       z     vdW  Elec       q    Type
REMARK                         _______ _______ _______ _____ _____    ______ ____
ROOT
ATOM      1  O   UNL     1     -37.334  24.645   1.941  0.00  0.00    -0.421 OA
ENDROOT
BRANCH   1   3
ATOM      2  C   UNL     1     -38.321  22.591   1.195  0.00  0.00    +0.047 C 
ATOM      3  C   UNL     1     -37.197  23.326   1.500  0.00  0.00    +0.147 C 
ATOM      4  C   UNL     1     -35.767  21.496   0.953  0.00  0.00    -0.010 C 
ATOM      5  C   UNL     1     -36.889  20.729   0.636  0.00  0.00    +0.105 C 
ATOM      6  C   UNL     1     -38.165  21.276   0.758  0.00  0.00    +0.138 C 
ATOM      7  C   UNL     1     -35.924  22.811   1.391  0.00  0.00    +0.033 C 
ATOM      8  C   UNL     1     -39.689  23.180   1.326  0.00  0.00    +0.037 C 
ATOM      9  C   UNL     1     -34.387  20.937   0.833  0.00  0.00    +0.031 C 
BRANCH   6  10
ATOM     10  O   UNL     1     -39.264  20.528   0.449  0.00  0.00    -0.506 OA
ATOM     11  H   UNL     1     -39.608  19.919   1.073  0.00  0.00    +0.292 HD
ENDBRANCH   6  10
BRANCH   5  13
ATOM     12  O   UNL     1     -36.362  19.017  -0.950  0.00  0.00    -0.245 OA
ATOM     13  C   UNL     1     -36.729  19.352   0.178  0.00  0.00    +0.341 C 
BRANCH  13  14
ATOM     14  O   UNL     1     -37.033  18.449   1.146  0.00  0.00    -0.477 OA
ATOM     15  H   UNL     1     -37.320  18.742   1.989  0.00  0.00    +0.295 HD
ENDBRANCH  13  14
ENDBRANCH   5  13
ENDBRANCH   1   3
BRANCH   1  17
ATOM     16  O   UNL     1     -38.174  24.421   4.104  0.00  0.00    -0.244 OA
ATOM     17  C   UNL     1     -37.287  24.786   3.325  0.00  0.00    +0.348 C 
BRANCH  17  18
ATOM     18  C   UNL     1     -36.039  25.418   3.741  0.00  0.00    +0.106 C 
ATOM     19  C   UNL     1     -35.180  24.761   4.624  0.00  0.00    -0.010 C 
ATOM     20  C   UNL     1     -35.706  26.682   3.255  0.00  0.00    +0.146 C 
ATOM     21  C   UNL     1     -34.514  27.289   3.651  0.00  0.00    +0.110 C 
ATOM     22  C   UNL     1     -33.989  25.369   5.019  0.00  0.00    +0.033 C 
ATOM     23  C   UNL     1     -33.655  26.633   4.532  0.00  0.00    +0.144 C 
ATOM     24  C   UNL     1     -35.512  23.408   5.162  0.00  0.00    +0.031 C 
BRANCH  23  25
ATOM     25  O   UNL     1     -32.486  27.208   4.932  0.00  0.00    -0.471 OA
ATOM     26  C   UNL     1     -32.382  27.576   6.306  0.00  0.00    +0.252 C 
ENDBRANCH  23  25
BRANCH  20  27
ATOM     27  O   UNL     1     -36.545  27.325   2.392  0.00  0.00    -0.505 OA
ATOM     28  H   UNL     1     -37.283  27.800   2.722  0.00  0.00    +0.292 HD
ENDBRANCH  20  27
BRANCH  21  30
ATOM     29  O   UNL     1     -34.872  29.604   3.313  0.00  0.00    -0.283 OA
ATOM     30  C   UNL     1     -34.162  28.611   3.143  0.00  0.00    +0.240 C 
ENDBRANCH  21  30
ENDBRANCH  17  18
ENDBRANCH   1  17
TORSDOF 9
ENDMDL
