MODEL 1
REMARK VINA RESULT:      -5.9      0.000      0.000
REMARK  Name = 5486548
REMARK  2 active torsions:
REMARK  status: ('A' for Active; 'I' for Inactive)
REMARK    1  A    between atoms: C_6  and  N_15
REMARK    2  A    between atoms: C_9  and  N_22
REMARK                            x       y       z     vdW  Elec       q    Type
REMARK                         _______ _______ _______ _____ _____    ______ ____
ROOT
ATOM      1  O   UNL     1     -32.948  28.927   3.147  0.00  0.00    -0.262 OA
ATOM      2  O   UNL     1     -32.481  28.612   5.734  0.00  0.00    -0.262 OA
ATOM      3  N   UNL     1     -33.918  26.836   3.004  0.00  0.00    -0.316 N 
ATOM      4  N   UNL     1     -33.430  26.506   5.712  0.00  0.00    -0.316 N 
ATOM      5  C   UNL     1     -34.302  25.647   3.635  0.00  0.00    +0.076 A 
ATOM      6  C   UNL     1     -35.303  23.455   3.546  0.00  0.00    +0.081 C 
ATOM      7  C   UNL     1     -34.057  25.481   4.994  0.00  0.00    +0.077 A 
ATOM      8  C   UNL     1     -34.926  24.635   2.904  0.00  0.00    +0.035 C 
ATOM      9  C   UNL     1     -35.057  23.288   4.910  0.00  0.00    +0.158 C 
ATOM     10  C   UNL     1     -34.433  24.302   5.639  0.00  0.00    +0.044 C 
ATOM     11  C   UNL     1     -33.298  27.874   3.665  0.00  0.00    +0.314 A 
ATOM     12  C   UNL     1     -33.032  27.695   5.139  0.00  0.00    +0.314 A 
ATOM     13  H   UNL     1     -34.101  26.935   2.041  0.00  0.00    +0.169 HD
ATOM     14  H   UNL     1     -33.264  26.372   6.673  0.00  0.00    +0.169 HD
ENDROOT
BRANCH   6  15
ATOM     15  N   UNL     1     -35.921  22.462   2.801  0.00  0.00    -0.244 N 
ATOM     16  N   UNL     1     -37.545  21.225   1.913  0.00  0.00    -0.224 NA
ATOM     17  C   UNL     1     -35.300  21.516   2.029  0.00  0.00    +0.092 C 
ATOM     18  C   UNL     1     -37.270  22.244   2.698  0.00  0.00    +0.172 C 
ATOM     19  C   UNL     1     -36.321  20.768   1.493  0.00  0.00    +0.117 C 
ENDBRANCH   6  15
BRANCH   9  22
ATOM     20  O   UNL     1     -36.292  22.158   6.496  0.00  0.00    -0.126 OA
ATOM     21  O   UNL     1     -34.887  21.015   5.256  0.00  0.00    -0.126 OA
ATOM     22  N   UNL     1     -35.430  22.093   5.588  0.00  0.00    +0.059 N 
ENDBRANCH   9  22
TORSDOF 2
ENDMDL
MODEL 2
REMARK VINA RESULT:      -5.7      3.879      6.185
REMARK  Name = 5486548
REMARK  2 active torsions:
REMARK  status: ('A' for Active; 'I' for Inactive)
REMARK    1  A    between atoms: C_6  and  N_15
REMARK    2  A    between atoms: C_9  and  N_22
REMARK                            x       y       z     vdW  Elec       q    Type
REMARK                         _______ _______ _______ _____ _____    ______ ____
ROOT
ATOM      1  O   UNL     1     -41.712  26.652   0.842  0.00  0.00    -0.262 OA
ATOM      2  O   UNL     1     -42.223  24.060   0.670  0.00  0.00    -0.262 OA
ATOM      3  N   UNL     1     -39.714  26.250   1.928  0.00  0.00    -0.316 N 
ATOM      4  N   UNL     1     -40.248  23.536   1.748  0.00  0.00    -0.316 N 
ATOM      5  C   UNL     1     -38.799  25.330   2.453  0.00  0.00    +0.076 A 
ATOM      6  C   UNL     1     -36.725  24.848   3.585  0.00  0.00    +0.081 C 
ATOM      7  C   UNL     1     -39.068  23.968   2.363  0.00  0.00    +0.077 A 
ATOM      8  C   UNL     1     -37.627  25.776   3.065  0.00  0.00    +0.035 C 
ATOM      9  C   UNL     1     -36.994  23.481   3.495  0.00  0.00    +0.158 C 
ATOM     10  C   UNL     1     -38.167  23.036   2.883  0.00  0.00    +0.044 C 
ATOM     11  C   UNL     1     -40.890  25.877   1.314  0.00  0.00    +0.314 A 
ATOM     12  C   UNL     1     -41.181  24.400   1.215  0.00  0.00    +0.314 A 
ATOM     13  H   UNL     1     -39.507  27.210   2.001  0.00  0.00    +0.169 HD
ATOM     14  H   UNL     1     -40.422  22.569   1.692  0.00  0.00    +0.169 HD
ENDROOT
BRANCH   6  15
ATOM     15  N   UNL     1     -35.567  25.314   4.189  0.00  0.00    -0.244 N 
ATOM     16  N   UNL     1     -33.426  25.862   4.450  0.00  0.00    -0.224 NA
ATOM     17  C   UNL     1     -35.453  25.810   5.461  0.00  0.00    +0.092 C 
ATOM     18  C   UNL     1     -34.320  25.367   3.623  0.00  0.00    +0.172 C 
ATOM     19  C   UNL     1     -34.126  26.139   5.597  0.00  0.00    +0.117 C 
ENDBRANCH   6  15
BRANCH   9  22
ATOM     20  O   UNL     1     -35.359  21.878   3.224  0.00  0.00    -0.126 OA
ATOM     21  O   UNL     1     -36.054  22.329   5.257  0.00  0.00    -0.126 OA
ATOM     22  N   UNL     1     -36.091  22.514   4.019  0.00  0.00    +0.059 N 
ENDBRANCH   9  22
TORSDOF 2
ENDMDL
MODEL 3
REMARK VINA RESULT:      -5.7      2.385      6.620
REMARK  Name = 5486548
REMARK  2 active torsions:
REMARK  status: ('A' for Active; 'I' for Inactive)
REMARK    1  A    between atoms: C_6  and  N_15
REMARK    2  A    between atoms: C_9  and  N_22
REMARK                            x       y       z     vdW  Elec       q    Type
REMARK                         _______ _______ _______ _____ _____    ______ ____
ROOT
ATOM      1  O   UNL     1     -37.526  23.565   3.546  0.00  0.00    -0.262 OA
ATOM      2  O   UNL     1     -36.222  22.731   5.694  0.00  0.00    -0.262 OA
ATOM      3  N   UNL     1     -36.180  25.434   3.378  0.00  0.00    -0.316 N 
ATOM      4  N   UNL     1     -34.814  24.561   5.625  0.00  0.00    -0.316 N 
ATOM      5  C   UNL     1     -35.113  26.192   3.875  0.00  0.00    +0.076 A 
ATOM      6  C   UNL     1     -33.676  28.125   3.750  0.00  0.00    +0.081 C 
ATOM      7  C   UNL     1     -34.427  25.753   5.003  0.00  0.00    +0.077 A 
ATOM      8  C   UNL     1     -34.741  27.379   3.243  0.00  0.00    +0.035 C 
ATOM      9  C   UNL     1     -32.988  27.685   4.883  0.00  0.00    +0.158 C 
ATOM     10  C   UNL     1     -33.362  26.497   5.513  0.00  0.00    +0.044 C 
ATOM     11  C   UNL     1     -36.600  24.254   3.953  0.00  0.00    +0.314 A 
ATOM     12  C   UNL     1     -35.856  23.778   5.176  0.00  0.00    +0.314 A 
ATOM     13  H   UNL     1     -36.653  25.760   2.577  0.00  0.00    +0.169 HD
ATOM     14  H   UNL     1     -34.317  24.266   6.422  0.00  0.00    +0.169 HD
ENDROOT
BRANCH   6  15
ATOM     15  N   UNL     1     -33.324  29.301   3.107  0.00  0.00    -0.244 N 
ATOM     16  N   UNL     1     -32.295  30.679   1.694  0.00  0.00    -0.224 NA
ATOM     17  C   UNL     1     -33.828  30.550   3.358  0.00  0.00    +0.092 C 
ATOM     18  C   UNL     1     -32.406  29.433   2.099  0.00  0.00    +0.172 C 
ATOM     19  C   UNL     1     -33.179  31.380   2.476  0.00  0.00    +0.117 C 
ENDBRANCH   6  15
BRANCH   9  22
ATOM     20  O   UNL     1     -30.733  28.125   5.076  0.00  0.00    -0.126 OA
ATOM     21  O   UNL     1     -32.141  29.361   6.220  0.00  0.00    -0.126 OA
ATOM     22  N   UNL     1     -31.899  28.428   5.421  0.00  0.00    +0.059 N 
ENDBRANCH   9  22
TORSDOF 2
ENDMDL
MODEL 4
REMARK VINA RESULT:      -5.6      2.535      7.116
REMARK  Name = 5486548
REMARK  2 active torsions:
REMARK  status: ('A' for Active; 'I' for Inactive)
REMARK    1  A    between atoms: C_6  and  N_15
REMARK    2  A    between atoms: C_9  and  N_22
REMARK                            x       y       z     vdW  Elec       q    Type
REMARK                         _______ _______ _______ _____ _____    ______ ____
ROOT
ATOM      1  O   UNL     1     -36.305  22.871   5.627  0.00  0.00    -0.262 OA
ATOM      2  O   UNL     1     -37.707  23.885   3.623  0.00  0.00    -0.262 OA
ATOM      3  N   UNL     1     -34.834  24.651   5.580  0.00  0.00    -0.316 N 
ATOM      4  N   UNL     1     -36.302  25.714   3.484  0.00  0.00    -0.316 N 
ATOM      5  C   UNL     1     -34.442  25.867   5.010  0.00  0.00    +0.076 A 
ATOM      6  C   UNL     1     -32.938  27.750   4.913  0.00  0.00    +0.081 C 
ATOM      7  C   UNL     1     -35.178  26.400   3.957  0.00  0.00    +0.077 A 
ATOM      8  C   UNL     1     -33.318  26.539   5.492  0.00  0.00    +0.035 C 
ATOM      9  C   UNL     1     -33.677  28.285   3.857  0.00  0.00    +0.158 C 
ATOM     10  C   UNL     1     -34.801  27.612   3.375  0.00  0.00    +0.044 C 
ATOM     11  C   UNL     1     -35.931  23.936   5.152  0.00  0.00    +0.314 A 
ATOM     12  C   UNL     1     -36.731  24.514   4.011  0.00  0.00    +0.314 A 
ATOM     13  H   UNL     1     -34.300  24.289   6.325  0.00  0.00    +0.169 HD
ATOM     14  H   UNL     1     -36.812  26.106   2.739  0.00  0.00    +0.169 HD
ENDROOT
BRANCH   6  15
ATOM     15  N   UNL     1     -31.818  28.400   5.409  0.00  0.00    -0.244 N 
ATOM     16  N   UNL     1     -30.551  29.646   6.750  0.00  0.00    -0.224 NA
ATOM     17  C   UNL     1     -30.564  28.400   4.857  0.00  0.00    +0.092 C 
ATOM     18  C   UNL     1     -31.757  29.164   6.545  0.00  0.00    +0.172 C 
ATOM     19  C   UNL     1     -29.804  29.174   5.701  0.00  0.00    +0.117 C 
ENDBRANCH   6  15
BRANCH   9  22
ATOM     20  O   UNL     1     -33.729  30.588   3.748  0.00  0.00    -0.126 OA
ATOM     21  O   UNL     1     -32.578  29.496   2.232  0.00  0.00    -0.126 OA
ATOM     22  N   UNL     1     -33.310  29.518   3.248  0.00  0.00    +0.059 N 
ENDBRANCH   9  22
TORSDOF 2
ENDMDL
MODEL 5
REMARK VINA RESULT:      -5.6      1.863      2.241
REMARK  Name = 5486548
REMARK  2 active torsions:
REMARK  status: ('A' for Active; 'I' for Inactive)
REMARK    1  A    between atoms: C_6  and  N_15
REMARK    2  A    between atoms: C_9  and  N_22
REMARK                            x       y       z     vdW  Elec       q    Type
REMARK                         _______ _______ _______ _____ _____    ______ ____
ROOT
ATOM      1  O   UNL     1     -30.560  29.231   4.456  0.00  0.00    -0.262 OA
ATOM      2  O   UNL     1     -31.501  29.034   6.922  0.00  0.00    -0.262 OA
ATOM      3  N   UNL     1     -32.065  27.656   3.689  0.00  0.00    -0.316 N 
ATOM      4  N   UNL     1     -33.051  27.450   6.271  0.00  0.00    -0.316 N 
ATOM      5  C   UNL     1     -33.117  26.772   3.958  0.00  0.00    +0.076 A 
ATOM      6  C   UNL     1     -34.711  25.121   3.216  0.00  0.00    +0.081 C 
ATOM      7  C   UNL     1     -33.611  26.668   5.254  0.00  0.00    +0.077 A 
ATOM      8  C   UNL     1     -33.663  25.999   2.933  0.00  0.00    +0.035 C 
ATOM      9  C   UNL     1     -35.207  25.016   4.517  0.00  0.00    +0.158 C 
ATOM     10  C   UNL     1     -34.659  25.791   5.540  0.00  0.00    +0.044 C 
ATOM     11  C   UNL     1     -31.480  28.446   4.653  0.00  0.00    +0.314 A 
ATOM     12  C   UNL     1     -32.016  28.335   6.059  0.00  0.00    +0.314 A 
ATOM     13  H   UNL     1     -31.729  27.716   2.765  0.00  0.00    +0.169 HD
ATOM     14  H   UNL     1     -33.414  27.363   7.182  0.00  0.00    +0.169 HD
ENDROOT
BRANCH   6  15
ATOM     15  N   UNL     1     -35.238  24.362   2.182  0.00  0.00    -0.244 N 
ATOM     16  N   UNL     1     -35.596  22.620   0.845  0.00  0.00    -0.224 NA
ATOM     17  C   UNL     1     -36.172  24.771   1.266  0.00  0.00    +0.092 C 
ATOM     18  C   UNL     1     -34.924  23.062   1.885  0.00  0.00    +0.172 C 
ATOM     19  C   UNL     1     -36.374  23.680   0.454  0.00  0.00    +0.117 C 
ENDBRANCH   6  15
BRANCH   9  22
ATOM     20  O   UNL     1     -37.444  24.458   4.530  0.00  0.00    -0.126 OA
ATOM     21  O   UNL     1     -36.008  23.043   5.399  0.00  0.00    -0.126 OA
ATOM     22  N   UNL     1     -36.273  24.128   4.832  0.00  0.00    +0.059 N 
ENDBRANCH   9  22
TORSDOF 2
ENDMDL
MODEL 6
REMARK VINA RESULT:      -5.5      4.810      7.116
REMARK  Name = 5486548
REMARK  2 active torsions:
REMARK  status: ('A' for Active; 'I' for Inactive)
REMARK    1  A    between atoms: C_6  and  N_15
REMARK    2  A    between atoms: C_9  and  N_22
REMARK                            x       y       z     vdW  Elec       q    Type
REMARK                         _______ _______ _______ _____ _____    ______ ____
ROOT
ATOM      1  O   UNL     1     -38.178  23.394   3.317  0.00  0.00    -0.262 OA
ATOM      2  O   UNL     1     -40.027  22.085   1.947  0.00  0.00    -0.262 OA
ATOM      3  N   UNL     1     -36.514  22.008   2.516  0.00  0.00    -0.316 N 
ATOM      4  N   UNL     1     -38.448  20.637   1.081  0.00  0.00    -0.316 N 
ATOM      5  C   UNL     1     -36.140  20.920   1.719  0.00  0.00    +0.076 A 
ATOM      6  C   UNL     1     -34.445  19.439   0.851  0.00  0.00    +0.081 C 
ATOM      7  C   UNL     1     -37.111  20.231   0.999  0.00  0.00    +0.077 A 
ATOM      8  C   UNL     1     -34.803  20.527   1.649  0.00  0.00    +0.035 C 
ATOM      9  C   UNL     1     -35.420  18.749   0.128  0.00  0.00    +0.158 C 
ATOM     10  C   UNL     1     -36.757  19.143   0.200  0.00  0.00    +0.044 C 
ATOM     11  C   UNL     1     -37.814  22.447   2.631  0.00  0.00    +0.314 A 
ATOM     12  C   UNL     1     -38.868  21.701   1.850  0.00  0.00    +0.314 A 
ATOM     13  H   UNL     1     -35.811  22.483   3.018  0.00  0.00    +0.169 HD
ATOM     14  H   UNL     1     -39.122  20.139   0.565  0.00  0.00    +0.169 HD
ENDROOT
BRANCH   6  15
ATOM     15  N   UNL     1     -33.111  19.067   0.796  0.00  0.00    -0.244 N 
ATOM     16  N   UNL     1     -31.240  17.940   1.224  0.00  0.00    -0.224 NA
ATOM     17  C   UNL     1     -32.132  19.651   0.036  0.00  0.00    +0.092 C 
ATOM     18  C   UNL     1     -32.523  18.044   1.492  0.00  0.00    +0.172 C 
ATOM     19  C   UNL     1     -30.990  18.939   0.318  0.00  0.00    +0.117 C 
ENDBRANCH   6  15
BRANCH   9  22
ATOM     20  O   UNL     1     -34.705  17.844  -1.869  0.00  0.00    -0.126 OA
ATOM     21  O   UNL     1     -35.170  16.482  -0.211  0.00  0.00    -0.126 OA
ATOM     22  N   UNL     1     -35.082  17.635  -0.692  0.00  0.00    +0.059 N 
ENDBRANCH   9  22
TORSDOF 2
ENDMDL
MODEL 7
REMARK VINA RESULT:      -5.5      2.797      6.208
REMARK  Name = 5486548
REMARK  2 active torsions:
REMARK  status: ('A' for Active; 'I' for Inactive)
REMARK    1  A    between atoms: C_6  and  N_15
REMARK    2  A    between atoms: C_9  and  N_22
REMARK                            x       y       z     vdW  Elec       q    Type
REMARK                         _______ _______ _______ _____ _____    ______ ____
ROOT
ATOM      1  O   UNL     1     -36.766  20.725  -1.785  0.00  0.00    -0.262 OA
ATOM      2  O   UNL     1     -36.744  18.472  -0.394  0.00  0.00    -0.262 OA
ATOM      3  N   UNL     1     -36.275  21.966   0.100  0.00  0.00    -0.316 N 
ATOM      4  N   UNL     1     -36.252  19.608   1.556  0.00  0.00    -0.316 N 
ATOM      5  C   UNL     1     -36.010  22.006   1.474  0.00  0.00    +0.076 A 
ATOM      6  C   UNL     1     -35.498  23.250   3.476  0.00  0.00    +0.081 C 
ATOM      7  C   UNL     1     -35.998  20.822   2.205  0.00  0.00    +0.077 A 
ATOM      8  C   UNL     1     -35.760  23.225   2.106  0.00  0.00    +0.035 C 
ATOM      9  C   UNL     1     -35.487  22.062   4.210  0.00  0.00    +0.158 C 
ATOM     10  C   UNL     1     -35.737  20.844   3.576  0.00  0.00    +0.044 C 
ATOM     11  C   UNL     1     -36.531  20.799  -0.585  0.00  0.00    +0.314 A 
ATOM     12  C   UNL     1     -36.518  19.514   0.207  0.00  0.00    +0.314 A 
ATOM     13  H   UNL     1     -36.278  22.814  -0.401  0.00  0.00    +0.169 HD
ATOM     14  H   UNL     1     -36.239  18.781   2.089  0.00  0.00    +0.169 HD
ENDROOT
BRANCH   6  15
ATOM     15  N   UNL     1     -35.253  24.472   4.083  0.00  0.00    -0.244 N 
ATOM     16  N   UNL     1     -35.643  26.403   5.119  0.00  0.00    -0.224 NA
ATOM     17  C   UNL     1     -34.029  25.059   4.268  0.00  0.00    +0.092 C 
ATOM     18  C   UNL     1     -36.190  25.320   4.611  0.00  0.00    +0.172 C 
ATOM     19  C   UNL     1     -34.297  26.246   4.907  0.00  0.00    +0.117 C 
ENDBRANCH   6  15
BRANCH   9  22
ATOM     20  O   UNL     1     -34.056  21.829   6.003  0.00  0.00    -0.126 OA
ATOM     21  O   UNL     1     -36.165  22.291   6.401  0.00  0.00    -0.126 OA
ATOM     22  N   UNL     1     -35.223  22.060   5.609  0.00  0.00    +0.059 N 
ENDBRANCH   9  22
TORSDOF 2
ENDMDL
MODEL 8
REMARK VINA RESULT:      -5.5      3.085      4.197
REMARK  Name = 5486548
REMARK  2 active torsions:
REMARK  status: ('A' for Active; 'I' for Inactive)
REMARK    1  A    between atoms: C_6  and  N_15
REMARK    2  A    between atoms: C_9  and  N_22
REMARK                            x       y       z     vdW  Elec       q    Type
REMARK                         _______ _______ _______ _____ _____    ______ ____
ROOT
ATOM      1  O   UNL     1     -33.658  25.267   4.982  0.00  0.00    -0.262 OA
ATOM      2  O   UNL     1     -35.936  26.274   5.879  0.00  0.00    -0.262 OA
ATOM      3  N   UNL     1     -34.776  23.894   3.500  0.00  0.00    -0.316 N 
ATOM      4  N   UNL     1     -37.161  24.949   4.437  0.00  0.00    -0.316 N 
ATOM      5  C   UNL     1     -35.988  23.445   2.962  0.00  0.00    +0.076 A 
ATOM      6  C   UNL     1     -37.210  22.034   1.435  0.00  0.00    +0.081 C 
ATOM      7  C   UNL     1     -37.185  23.974   3.433  0.00  0.00    +0.077 A 
ATOM      8  C   UNL     1     -35.995  22.473   1.961  0.00  0.00    +0.035 C 
ATOM      9  C   UNL     1     -38.412  22.565   1.907  0.00  0.00    +0.158 C 
ATOM     10  C   UNL     1     -38.403  23.538   2.908  0.00  0.00    +0.044 C 
ATOM     11  C   UNL     1     -34.698  24.849   4.489  0.00  0.00    +0.314 A 
ATOM     12  C   UNL     1     -35.997  25.424   5.000  0.00  0.00    +0.314 A 
ATOM     13  H   UNL     1     -33.939  23.508   3.153  0.00  0.00    +0.169 HD
ATOM     14  H   UNL     1     -38.018  25.312   4.758  0.00  0.00    +0.169 HD
ENDROOT
BRANCH   6  15
ATOM     15  N   UNL     1     -37.193  21.067   0.441  0.00  0.00    -0.244 N 
ATOM     16  N   UNL     1     -37.229  20.165  -1.593  0.00  0.00    -0.224 NA
ATOM     17  C   UNL     1     -37.092  19.713   0.623  0.00  0.00    +0.092 C 
ATOM     18  C   UNL     1     -37.274  21.287  -0.909  0.00  0.00    +0.172 C 
ATOM     19  C   UNL     1     -37.117  19.181  -0.644  0.00  0.00    +0.117 C 
ENDBRANCH   6  15
BRANCH   9  22
ATOM     20  O   UNL     1     -40.225  21.140   1.907  0.00  0.00    -0.126 OA
ATOM     21  O   UNL     1     -40.170  22.762   0.429  0.00  0.00    -0.126 OA
ATOM     22  N   UNL     1     -39.665  22.134   1.388  0.00  0.00    +0.059 N 
ENDBRANCH   9  22
TORSDOF 2
ENDMDL
MODEL 9
REMARK VINA RESULT:      -5.5      3.729      5.117
REMARK  Name = 5486548
REMARK  2 active torsions:
REMARK  status: ('A' for Active; 'I' for Inactive)
REMARK    1  A    between atoms: C_6  and  N_15
REMARK    2  A    between atoms: C_9  and  N_22
REMARK                            x       y       z     vdW  Elec       q    Type
REMARK                         _______ _______ _______ _____ _____    ______ ____
ROOT
ATOM      1  O   UNL     1     -41.996  25.273   1.442  0.00  0.00    -0.262 OA
ATOM      2  O   UNL     1     -41.297  27.082   3.243  0.00  0.00    -0.262 OA
ATOM      3  N   UNL     1     -39.979  24.173   1.672  0.00  0.00    -0.316 N 
ATOM      4  N   UNL     1     -39.247  26.066   3.559  0.00  0.00    -0.316 N 
ATOM      5  C   UNL     1     -38.724  24.086   2.286  0.00  0.00    +0.076 A 
ATOM      6  C   UNL     1     -36.599  22.980   2.568  0.00  0.00    +0.081 C 
ATOM      7  C   UNL     1     -38.356  25.036   3.233  0.00  0.00    +0.077 A 
ATOM      8  C   UNL     1     -37.847  23.054   1.949  0.00  0.00    +0.035 C 
ATOM      9  C   UNL     1     -36.230  23.934   3.519  0.00  0.00    +0.158 C 
ATOM     10  C   UNL     1     -37.108  24.966   3.854  0.00  0.00    +0.044 C 
ATOM     11  C   UNL     1     -40.891  25.165   1.957  0.00  0.00    +0.314 A 
ATOM     12  C   UNL     1     -40.493  26.196   2.984  0.00  0.00    +0.314 A 
ATOM     13  H   UNL     1     -40.222  23.490   1.005  0.00  0.00    +0.169 HD
ATOM     14  H   UNL     1     -38.970  26.730   4.231  0.00  0.00    +0.169 HD
ENDROOT
BRANCH   6  15
ATOM     15  N   UNL     1     -35.744  21.946   2.218  0.00  0.00    -0.244 N 
ATOM     16  N   UNL     1     -34.742  19.959   2.270  0.00  0.00    -0.224 NA
ATOM     17  C   UNL     1     -34.841  21.949   1.189  0.00  0.00    +0.092 C 
ATOM     18  C   UNL     1     -35.646  20.728   2.838  0.00  0.00    +0.172 C 
ATOM     19  C   UNL     1     -34.237  20.715   1.243  0.00  0.00    +0.117 C 
ENDBRANCH   6  15
BRANCH   9  22
ATOM     20  O   UNL     1     -34.011  24.539   3.680  0.00  0.00    -0.126 OA
ATOM     21  O   UNL     1     -34.837  23.183   5.196  0.00  0.00    -0.126 OA
ATOM     22  N   UNL     1     -34.962  23.882   4.164  0.00  0.00    +0.059 N 
ENDBRANCH   9  22
TORSDOF 2
ENDMDL
