MODEL 1
REMARK VINA RESULT:      -5.8      0.000      0.000
REMARK  Name = 5311261
REMARK  6 active torsions:
REMARK  status: ('A' for Active; 'I' for Inactive)
REMARK    1  A    between atoms: C_1  and  CA_12
REMARK    2  A    between atoms: C_5  and  C_9
REMARK    3  A    between atoms: C_9  and  O_10
REMARK    4  A    between atoms: CA_12  and  N_13
REMARK    5  A    between atoms: CA_12  and  C_18
REMARK    6  A    between atoms: C_18  and  O_19
REMARK                            x       y       z     vdW  Elec       q    Type
REMARK                         _______ _______ _______ _____ _____    ______ ____
ROOT
ATOM      1  C   UNL     1     -35.672  23.901   4.413  0.00  0.00    -0.036 C 
ATOM      2  C   UNL     1     -35.482  22.673   5.047  0.00  0.00    -0.027 C 
ATOM      3  C   UNL     1     -35.854  23.953   3.031  0.00  0.00    -0.006 C 
ATOM      4  C   UNL     1     -35.474  21.496   4.298  0.00  0.00    +0.002 C 
ATOM      5  C   UNL     1     -35.654  21.547   2.916  0.00  0.00    +0.075 C 
ATOM      6  C   UNL     1     -35.845  22.776   2.282  0.00  0.00    +0.006 C 
ATOM      7  C   UNL     1     -35.286  22.593   6.525  0.00  0.00    +0.031 C 
ENDROOT
BRANCH   5   9
ATOM      8  O   UNL     1     -34.748  19.968   1.364  0.00  0.00    -0.245 OA
ATOM      9  C   UNL     1     -35.647  20.320   2.135  0.00  0.00    +0.338 C 
BRANCH   9  10
ATOM     10  O   UNL     1     -36.762  19.567   2.338  0.00  0.00    -0.477 OA
ATOM     11  H   UNL     1     -36.711  18.784   2.850  0.00  0.00    +0.295 HD
ENDBRANCH   9  10
ENDBRANCH   5   9
BRANCH   1  12
ATOM     12  CA  UNL     1     -35.684  25.175   5.194  0.00  0.00    +0.059 C 
BRANCH  12  13
ATOM     13  N   UNL     1     -36.898  25.976   4.963  0.00  0.00    +0.391 N 
ATOM     14  H1  UNL     1     -36.982  26.189   3.970  0.00  0.00    -0.088 HD
ATOM     15  H2  UNL     1     -36.836  26.846   5.493  0.00  0.00    -0.088 HD
ATOM     16  H3  UNL     1     -37.716  25.450   5.269  0.00  0.00    -0.088 HD
ENDBRANCH  12  13
BRANCH  12  18
ATOM     17  OXT UNL     1     -33.312  25.609   5.047  0.00  0.00    -0.252 OA
ATOM     18  C   UNL     1     -34.456  26.031   4.909  0.00  0.00    +0.297 C 
BRANCH  18  19
ATOM     19  O   UNL     1     -34.713  27.311   4.548  0.00  0.00    -0.481 OA
ATOM     20  H   UNL     1     -35.292  27.489   3.831  0.00  0.00    +0.295 HD
ENDBRANCH  18  19
ENDBRANCH  12  18
ENDBRANCH   1  12
TORSDOF 6
ENDMDL
MODEL 2
REMARK VINA RESULT:      -5.3      2.085      5.289
REMARK  Name = 5311261
REMARK  6 active torsions:
REMARK  status: ('A' for Active; 'I' for Inactive)
REMARK    1  A    between atoms: C_1  and  CA_12
REMARK    2  A    between atoms: C_5  and  C_9
REMARK    3  A    between atoms: C_9  and  O_10
REMARK    4  A    between atoms: CA_12  and  N_13
REMARK    5  A    between atoms: CA_12  and  C_18
REMARK    6  A    between atoms: C_18  and  O_19
REMARK                            x       y       z     vdW  Elec       q    Type
REMARK                         _______ _______ _______ _____ _____    ______ ____
ROOT
ATOM      1  C   UNL     1     -35.635  22.259   3.364  0.00  0.00    -0.036 C 
ATOM      2  C   UNL     1     -35.390  22.470   4.721  0.00  0.00    -0.027 C 
ATOM      3  C   UNL     1     -35.783  23.346   2.504  0.00  0.00    -0.006 C 
ATOM      4  C   UNL     1     -35.293  23.769   5.218  0.00  0.00    +0.002 C 
ATOM      5  C   UNL     1     -35.442  24.858   4.358  0.00  0.00    +0.075 C 
ATOM      6  C   UNL     1     -35.686  24.646   3.001  0.00  0.00    +0.006 C 
ATOM      7  C   UNL     1     -35.228  21.320   5.661  0.00  0.00    +0.031 C 
ENDROOT
BRANCH   5   9
ATOM      8  O   UNL     1     -34.317  26.908   4.868  0.00  0.00    -0.245 OA
ATOM      9  C   UNL     1     -35.339  26.213   4.876  0.00  0.00    +0.338 C 
BRANCH   9  10
ATOM     10  O   UNL     1     -36.516  26.665   5.389  0.00  0.00    -0.477 OA
ATOM     11  H   UNL     1     -37.072  27.214   4.872  0.00  0.00    +0.295 HD
ENDBRANCH   9  10
ENDBRANCH   5   9
BRANCH   1  12
ATOM     12  CA  UNL     1     -35.744  20.876   2.809  0.00  0.00    +0.059 C 
BRANCH  12  13
ATOM     13  N   UNL     1     -34.518  20.436   2.124  0.00  0.00    +0.391 N 
ATOM     14  H1  UNL     1     -33.719  20.550   2.748  0.00  0.00    -0.088 HD
ATOM     15  H2  UNL     1     -34.376  20.999   1.285  0.00  0.00    -0.088 HD
ATOM     16  H3  UNL     1     -34.608  19.454   1.863  0.00  0.00    -0.088 HD
ENDBRANCH  12  13
BRANCH  12  18
ATOM     17  OXT UNL     1     -36.788  20.563   0.652  0.00  0.00    -0.252 OA
ATOM     18  C   UNL     1     -36.928  20.733   1.859  0.00  0.00    +0.297 C 
BRANCH  18  19
ATOM     19  O   UNL     1     -38.149  20.865   2.432  0.00  0.00    -0.481 OA
ATOM     20  H   UNL     1     -38.770  21.472   2.077  0.00  0.00    +0.295 HD
ENDBRANCH  18  19
ENDBRANCH  12  18
ENDBRANCH   1  12
TORSDOF 6
ENDMDL
MODEL 3
REMARK VINA RESULT:      -5.3      2.147      5.287
REMARK  Name = 5311261
REMARK  6 active torsions:
REMARK  status: ('A' for Active; 'I' for Inactive)
REMARK    1  A    between atoms: C_1  and  CA_12
REMARK    2  A    between atoms: C_5  and  C_9
REMARK    3  A    between atoms: C_9  and  O_10
REMARK    4  A    between atoms: CA_12  and  N_13
REMARK    5  A    between atoms: CA_12  and  C_18
REMARK    6  A    between atoms: C_18  and  O_19
REMARK                            x       y       z     vdW  Elec       q    Type
REMARK                         _______ _______ _______ _____ _____    ______ ____
ROOT
ATOM      1  C   UNL     1     -35.214  23.178   3.696  0.00  0.00    -0.036 C 
ATOM      2  C   UNL     1     -35.051  23.390   5.065  0.00  0.00    -0.027 C 
ATOM      3  C   UNL     1     -34.818  24.157   2.786  0.00  0.00    -0.006 C 
ATOM      4  C   UNL     1     -34.492  24.582   5.523  0.00  0.00    +0.002 C 
ATOM      5  C   UNL     1     -34.095  25.563   4.613  0.00  0.00    +0.075 C 
ATOM      6  C   UNL     1     -34.258  25.349   3.243  0.00  0.00    +0.006 C 
ATOM      7  C   UNL     1     -35.468  22.355   6.058  0.00  0.00    +0.031 C 
ENDROOT
BRANCH   5   9
ATOM      8  O   UNL     1     -33.487  27.872   4.467  0.00  0.00    -0.245 OA
ATOM      9  C   UNL     1     -33.511  26.806   5.091  0.00  0.00    +0.338 C 
BRANCH   9  10
ATOM     10  O   UNL     1     -32.972  26.683   6.335  0.00  0.00    -0.477 OA
ATOM     11  H   UNL     1     -33.527  26.520   7.071  0.00  0.00    +0.295 HD
ENDBRANCH   9  10
ENDBRANCH   5   9
BRANCH   1  12
ATOM     12  CA  UNL     1     -35.812  21.909   3.181  0.00  0.00    +0.059 C 
BRANCH  12  13
ATOM     13  N   UNL     1     -35.114  21.387   1.994  0.00  0.00    +0.391 N 
ATOM     14  H1  UNL     1     -35.723  20.735   1.500  0.00  0.00    -0.088 HD
ATOM     15  H2  UNL     1     -34.263  20.905   2.285  0.00  0.00    -0.088 HD
ATOM     16  H3  UNL     1     -34.871  22.160   1.376  0.00  0.00    -0.088 HD
ENDBRANCH  12  13
BRANCH  12  18
ATOM     17  OXT UNL     1     -37.929  23.073   3.154  0.00  0.00    -0.252 OA
ATOM     18  C   UNL     1     -37.295  22.063   2.864  0.00  0.00    +0.297 C 
BRANCH  18  19
ATOM     19  O   UNL     1     -37.880  20.984   2.290  0.00  0.00    -0.481 OA
ATOM     20  H   UNL     1     -38.158  21.022   1.395  0.00  0.00    +0.295 HD
ENDBRANCH  18  19
ENDBRANCH  12  18
ENDBRANCH   1  12
TORSDOF 6
ENDMDL
MODEL 4
REMARK VINA RESULT:      -5.1      1.806      5.552
REMARK  Name = 5311261
REMARK  6 active torsions:
REMARK  status: ('A' for Active; 'I' for Inactive)
REMARK    1  A    between atoms: C_1  and  CA_12
REMARK    2  A    between atoms: C_5  and  C_9
REMARK    3  A    between atoms: C_9  and  O_10
REMARK    4  A    between atoms: CA_12  and  N_13
REMARK    5  A    between atoms: CA_12  and  C_18
REMARK    6  A    between atoms: C_18  and  O_19
REMARK                            x       y       z     vdW  Elec       q    Type
REMARK                         _______ _______ _______ _____ _____    ______ ____
ROOT
ATOM      1  C   UNL     1     -35.333  23.618   3.639  0.00  0.00    -0.036 C 
ATOM      2  C   UNL     1     -34.476  24.405   2.871  0.00  0.00    -0.027 C 
ATOM      3  C   UNL     1     -35.522  23.905   4.990  0.00  0.00    -0.006 C 
ATOM      4  C   UNL     1     -33.807  25.481   3.454  0.00  0.00    +0.002 C 
ATOM      5  C   UNL     1     -33.995  25.769   4.806  0.00  0.00    +0.075 C 
ATOM      6  C   UNL     1     -34.854  24.981   5.574  0.00  0.00    +0.006 C 
ATOM      7  C   UNL     1     -34.259  24.117   1.421  0.00  0.00    +0.031 C 
ENDROOT
BRANCH   5   9
ATOM      8  O   UNL     1     -32.700  26.862   6.495  0.00  0.00    -0.245 OA
ATOM      9  C   UNL     1     -33.299  26.891   5.415  0.00  0.00    +0.338 C 
BRANCH   9  10
ATOM     10  O   UNL     1     -33.369  28.020   4.657  0.00  0.00    -0.477 OA
ATOM     11  H   UNL     1     -34.196  28.431   4.505  0.00  0.00    +0.295 HD
ENDBRANCH   9  10
ENDBRANCH   5   9
BRANCH   1  12
ATOM     12  CA  UNL     1     -36.060  22.460   3.036  0.00  0.00    +0.059 C 
BRANCH  12  13
ATOM     13  N   UNL     1     -37.502  22.472   3.331  0.00  0.00    +0.391 N 
ATOM     14  H1  UNL     1     -37.646  22.655   4.324  0.00  0.00    -0.088 HD
ATOM     15  H2  UNL     1     -37.906  21.567   3.090  0.00  0.00    -0.088 HD
ATOM     16  H3  UNL     1     -37.955  23.202   2.782  0.00  0.00    -0.088 HD
ENDBRANCH  12  13
BRANCH  12  18
ATOM     17  OXT UNL     1     -35.050  20.295   2.672  0.00  0.00    -0.252 OA
ATOM     18  C   UNL     1     -35.470  21.124   3.474  0.00  0.00    +0.297 C 
BRANCH  18  19
ATOM     19  O   UNL     1     -35.493  20.891   4.808  0.00  0.00    -0.481 OA
ATOM     20  H   UNL     1     -36.091  21.361   5.356  0.00  0.00    +0.295 HD
ENDBRANCH  18  19
ENDBRANCH  12  18
ENDBRANCH   1  12
TORSDOF 6
ENDMDL
MODEL 5
REMARK VINA RESULT:      -5.1      0.885      1.988
REMARK  Name = 5311261
REMARK  6 active torsions:
REMARK  status: ('A' for Active; 'I' for Inactive)
REMARK    1  A    between atoms: C_1  and  CA_12
REMARK    2  A    between atoms: C_5  and  C_9
REMARK    3  A    between atoms: C_9  and  O_10
REMARK    4  A    between atoms: CA_12  and  N_13
REMARK    5  A    between atoms: CA_12  and  C_18
REMARK    6  A    between atoms: C_18  and  O_19
REMARK                            x       y       z     vdW  Elec       q    Type
REMARK                         _______ _______ _______ _____ _____    ______ ____
ROOT
ATOM      1  C   UNL     1     -35.479  24.175   4.892  0.00  0.00    -0.036 C 
ATOM      2  C   UNL     1     -35.822  24.176   3.540  0.00  0.00    -0.027 C 
ATOM      3  C   UNL     1     -35.177  22.975   5.535  0.00  0.00    -0.006 C 
ATOM      4  C   UNL     1     -35.865  22.976   2.831  0.00  0.00    +0.002 C 
ATOM      5  C   UNL     1     -35.565  21.774   3.474  0.00  0.00    +0.075 C 
ATOM      6  C   UNL     1     -35.220  21.774   4.827  0.00  0.00    +0.006 C 
ATOM      7  C   UNL     1     -36.148  25.449   2.830  0.00  0.00    +0.031 C 
ENDROOT
BRANCH   5   9
ATOM      8  O   UNL     1     -34.660  20.018   2.126  0.00  0.00    -0.245 OA
ATOM      9  C   UNL     1     -35.609  20.522   2.735  0.00  0.00    +0.338 C 
BRANCH   9  10
ATOM     10  O   UNL     1     -36.836  19.935   2.778  0.00  0.00    -0.477 OA
ATOM     11  H   UNL     1     -37.442  20.167   3.454  0.00  0.00    +0.295 HD
ENDBRANCH   9  10
ENDBRANCH   5   9
BRANCH   1  12
ATOM     12  CA  UNL     1     -35.426  25.449   5.672  0.00  0.00    +0.059 C 
BRANCH  12  13
ATOM     13  N   UNL     1     -36.377  26.460   5.182  0.00  0.00    +0.391 N 
ATOM     14  H1  UNL     1     -37.200  25.997   4.798  0.00  0.00    -0.088 HD
ATOM     15  H2  UNL     1     -35.932  27.019   4.453  0.00  0.00    -0.088 HD
ATOM     16  H3  UNL     1     -36.655  27.067   5.952  0.00  0.00    -0.088 HD
ENDBRANCH  12  13
BRANCH  12  18
ATOM     17  OXT UNL     1     -33.625  26.754   6.616  0.00  0.00    -0.252 OA
ATOM     18  C   UNL     1     -34.024  26.047   5.695  0.00  0.00    +0.297 C 
BRANCH  18  19
ATOM     19  O   UNL     1     -33.267  25.791   4.602  0.00  0.00    -0.481 OA
ATOM     20  H   UNL     1     -33.269  26.389   3.880  0.00  0.00    +0.295 HD
ENDBRANCH  18  19
ENDBRANCH  12  18
ENDBRANCH   1  12
TORSDOF 6
ENDMDL
MODEL 6
REMARK VINA RESULT:      -5.1      2.005      5.504
REMARK  Name = 5311261
REMARK  6 active torsions:
REMARK  status: ('A' for Active; 'I' for Inactive)
REMARK    1  A    between atoms: C_1  and  CA_12
REMARK    2  A    between atoms: C_5  and  C_9
REMARK    3  A    between atoms: C_9  and  O_10
REMARK    4  A    between atoms: CA_12  and  N_13
REMARK    5  A    between atoms: CA_12  and  C_18
REMARK    6  A    between atoms: C_18  and  O_19
REMARK                            x       y       z     vdW  Elec       q    Type
REMARK                         _______ _______ _______ _____ _____    ______ ____
ROOT
ATOM      1  C   UNL     1     -35.931  22.509   2.888  0.00  0.00    -0.036 C 
ATOM      2  C   UNL     1     -36.128  23.792   2.377  0.00  0.00    -0.027 C 
ATOM      3  C   UNL     1     -35.593  22.336   4.229  0.00  0.00    -0.006 C 
ATOM      4  C   UNL     1     -35.986  24.903   3.209  0.00  0.00    +0.002 C 
ATOM      5  C   UNL     1     -35.646  24.731   4.551  0.00  0.00    +0.075 C 
ATOM      6  C   UNL     1     -35.450  23.446   5.062  0.00  0.00    +0.006 C 
ATOM      7  C   UNL     1     -36.492  24.001   0.944  0.00  0.00    +0.031 C 
ENDROOT
BRANCH   5   9
ATOM      8  O   UNL     1     -34.457  26.226   5.991  0.00  0.00    -0.245 OA
ATOM      9  C   UNL     1     -35.498  25.888   5.419  0.00  0.00    +0.338 C 
BRANCH   9  10
ATOM     10  O   UNL     1     -36.656  26.593   5.548  0.00  0.00    -0.477 OA
ATOM     11  H   UNL     1     -37.206  26.457   6.293  0.00  0.00    +0.295 HD
ENDBRANCH   9  10
ENDBRANCH   5   9
BRANCH   1  12
ATOM     12  CA  UNL     1     -36.078  21.304   2.016  0.00  0.00    +0.059 C 
BRANCH  12  13
ATOM     13  N   UNL     1     -36.970  20.285   2.593  0.00  0.00    +0.391 N 
ATOM     14  H1  UNL     1     -37.006  19.475   1.975  0.00  0.00    -0.088 HD
ATOM     15  H2  UNL     1     -37.908  20.674   2.698  0.00  0.00    -0.088 HD
ATOM     16  H3  UNL     1     -36.617  20.002   3.506  0.00  0.00    -0.088 HD
ENDBRANCH  12  13
BRANCH  12  18
ATOM     17  OXT UNL     1     -33.943  21.164   0.893  0.00  0.00    -0.252 OA
ATOM     18  C   UNL     1     -34.732  20.667   1.692  0.00  0.00    +0.297 C 
BRANCH  18  19
ATOM     19  O   UNL     1     -34.489  19.483   2.303  0.00  0.00    -0.481 OA
ATOM     20  H   UNL     1     -33.974  19.456   3.086  0.00  0.00    +0.295 HD
ENDBRANCH  18  19
ENDBRANCH  12  18
ENDBRANCH   1  12
TORSDOF 6
ENDMDL
MODEL 7
REMARK VINA RESULT:      -5.0      2.373      6.029
REMARK  Name = 5311261
REMARK  6 active torsions:
REMARK  status: ('A' for Active; 'I' for Inactive)
REMARK    1  A    between atoms: C_1  and  CA_12
REMARK    2  A    between atoms: C_5  and  C_9
REMARK    3  A    between atoms: C_9  and  O_10
REMARK    4  A    between atoms: CA_12  and  N_13
REMARK    5  A    between atoms: CA_12  and  C_18
REMARK    6  A    between atoms: C_18  and  O_19
REMARK                            x       y       z     vdW  Elec       q    Type
REMARK                         _______ _______ _______ _____ _____    ______ ____
ROOT
ATOM      1  C   UNL     1     -35.253  25.646   4.204  0.00  0.00    -0.036 C 
ATOM      2  C   UNL     1     -34.598  26.610   3.438  0.00  0.00    -0.027 C 
ATOM      3  C   UNL     1     -34.888  25.446   5.535  0.00  0.00    -0.006 C 
ATOM      4  C   UNL     1     -33.577  27.374   4.003  0.00  0.00    +0.002 C 
ATOM      5  C   UNL     1     -33.211  27.174   5.334  0.00  0.00    +0.075 C 
ATOM      6  C   UNL     1     -33.867  26.210   6.101  0.00  0.00    +0.006 C 
ATOM      7  C   UNL     1     -34.972  26.842   2.010  0.00  0.00    +0.031 C 
ENDROOT
BRANCH   5   9
ATOM      8  O   UNL     1     -31.896  29.148   5.647  0.00  0.00    -0.245 OA
ATOM      9  C   UNL     1     -32.147  27.971   5.924  0.00  0.00    +0.338 C 
BRANCH   9  10
ATOM     10  O   UNL     1     -31.425  27.276   6.846  0.00  0.00    -0.477 OA
ATOM     11  H   UNL     1     -30.742  26.700   6.567  0.00  0.00    +0.295 HD
ENDBRANCH   9  10
ENDBRANCH   5   9
BRANCH   1  12
ATOM     12  CA  UNL     1     -36.349  24.816   3.620  0.00  0.00    +0.059 C 
BRANCH  12  13
ATOM     13  N   UNL     1     -37.619  24.946   4.353  0.00  0.00    +0.391 N 
ATOM     14  H1  UNL     1     -38.111  24.053   4.346  0.00  0.00    -0.088 HD
ATOM     15  H2  UNL     1     -38.199  25.656   3.904  0.00  0.00    -0.088 HD
ATOM     16  H3  UNL     1     -37.429  25.222   5.316  0.00  0.00    -0.088 HD
ENDBRANCH  12  13
BRANCH  12  18
ATOM     17  OXT UNL     1     -35.127  22.923   2.747  0.00  0.00    -0.252 OA
ATOM     18  C   UNL     1     -35.967  23.342   3.537  0.00  0.00    +0.297 C 
BRANCH  18  19
ATOM     19  O   UNL     1     -36.660  22.517   4.358  0.00  0.00    -0.481 OA
ATOM     20  H   UNL     1     -36.246  21.756   4.717  0.00  0.00    +0.295 HD
ENDBRANCH  18  19
ENDBRANCH  12  18
ENDBRANCH   1  12
TORSDOF 6
ENDMDL
MODEL 8
REMARK VINA RESULT:      -4.9      2.863      5.352
REMARK  Name = 5311261
REMARK  6 active torsions:
REMARK  status: ('A' for Active; 'I' for Inactive)
REMARK    1  A    between atoms: C_1  and  CA_12
REMARK    2  A    between atoms: C_5  and  C_9
REMARK    3  A    between atoms: C_9  and  O_10
REMARK    4  A    between atoms: CA_12  and  N_13
REMARK    5  A    between atoms: CA_12  and  C_18
REMARK    6  A    between atoms: C_18  and  O_19
REMARK                            x       y       z     vdW  Elec       q    Type
REMARK                         _______ _______ _______ _____ _____    ______ ____
ROOT
ATOM      1  C   UNL     1     -35.785  24.587   4.075  0.00  0.00    -0.036 C 
ATOM      2  C   UNL     1     -35.109  24.236   5.244  0.00  0.00    -0.027 C 
ATOM      3  C   UNL     1     -35.541  25.820   3.472  0.00  0.00    -0.006 C 
ATOM      4  C   UNL     1     -34.190  25.119   5.809  0.00  0.00    +0.002 C 
ATOM      5  C   UNL     1     -33.947  26.354   5.206  0.00  0.00    +0.075 C 
ATOM      6  C   UNL     1     -34.622  26.704   4.036  0.00  0.00    +0.006 C 
ATOM      7  C   UNL     1     -35.353  22.920   5.907  0.00  0.00    +0.031 C 
ENDROOT
BRANCH   5   9
ATOM      8  O   UNL     1     -32.634  28.352   5.303  0.00  0.00    -0.245 OA
ATOM      9  C   UNL     1     -32.987  27.275   5.795  0.00  0.00    +0.338 C 
BRANCH   9  10
ATOM     10  O   UNL     1     -32.495  26.826   6.983  0.00  0.00    -0.477 OA
ATOM     11  H   UNL     1     -31.582  26.639   7.070  0.00  0.00    +0.295 HD
ENDBRANCH   9  10
ENDBRANCH   5   9
BRANCH   1  12
ATOM     12  CA  UNL     1     -36.774  23.657   3.451  0.00  0.00    +0.059 C 
BRANCH  12  13
ATOM     13  N   UNL     1     -36.229  22.934   2.291  0.00  0.00    +0.391 N 
ATOM     14  H1  UNL     1     -36.948  22.850   1.573  0.00  0.00    -0.088 HD
ATOM     15  H2  UNL     1     -35.928  22.003   2.581  0.00  0.00    -0.088 HD
ATOM     16  H3  UNL     1     -35.431  23.447   1.915  0.00  0.00    -0.088 HD
ENDBRANCH  12  13
BRANCH  12  18
ATOM     17  OXT UNL     1     -38.368  24.541   1.863  0.00  0.00    -0.252 OA
ATOM     18  C   UNL     1     -38.053  24.378   3.038  0.00  0.00    +0.297 C 
BRANCH  18  19
ATOM     19  O   UNL     1     -38.792  24.876   4.058  0.00  0.00    -0.481 OA
ATOM     20  H   UNL     1     -39.570  25.368   3.877  0.00  0.00    +0.295 HD
ENDBRANCH  18  19
ENDBRANCH  12  18
ENDBRANCH   1  12
TORSDOF 6
ENDMDL
MODEL 9
REMARK VINA RESULT:      -4.9      2.144      5.693
REMARK  Name = 5311261
REMARK  6 active torsions:
REMARK  status: ('A' for Active; 'I' for Inactive)
REMARK    1  A    between atoms: C_1  and  CA_12
REMARK    2  A    between atoms: C_5  and  C_9
REMARK    3  A    between atoms: C_9  and  O_10
REMARK    4  A    between atoms: CA_12  and  N_13
REMARK    5  A    between atoms: CA_12  and  C_18
REMARK    6  A    between atoms: C_18  and  O_19
REMARK                            x       y       z     vdW  Elec       q    Type
REMARK                         _______ _______ _______ _____ _____    ______ ____
ROOT
ATOM      1  C   UNL     1     -37.072  22.904   2.529  0.00  0.00    -0.036 C 
ATOM      2  C   UNL     1     -37.308  24.200   2.070  0.00  0.00    -0.027 C 
ATOM      3  C   UNL     1     -36.391  22.701   3.729  0.00  0.00    -0.006 C 
ATOM      4  C   UNL     1     -36.861  25.293   2.812  0.00  0.00    +0.002 C 
ATOM      5  C   UNL     1     -36.179  25.091   4.011  0.00  0.00    +0.075 C 
ATOM      6  C   UNL     1     -35.944  23.794   4.471  0.00  0.00    +0.006 C 
ATOM      7  C   UNL     1     -38.036  24.441   0.788  0.00  0.00    +0.031 C 
ENDROOT
BRANCH   5   9
ATOM      8  O   UNL     1     -34.628  26.802   4.639  0.00  0.00    -0.245 OA
ATOM      9  C   UNL     1     -35.714  26.232   4.786  0.00  0.00    +0.338 C 
BRANCH   9  10
ATOM     10  O   UNL     1     -36.619  26.629   5.722  0.00  0.00    -0.477 OA
ATOM     11  H   UNL     1     -37.429  27.017   5.455  0.00  0.00    +0.295 HD
ENDBRANCH   9  10
ENDBRANCH   5   9
BRANCH   1  12
ATOM     12  CA  UNL     1     -37.541  21.717   1.752  0.00  0.00    +0.059 C 
BRANCH  12  13
ATOM     13  N   UNL     1     -38.822  21.181   2.241  0.00  0.00    +0.391 N 
ATOM     14  H1  UNL     1     -39.508  21.934   2.295  0.00  0.00    -0.088 HD
ATOM     15  H2  UNL     1     -38.689  20.775   3.168  0.00  0.00    -0.088 HD
ATOM     16  H3  UNL     1     -39.156  20.462   1.601  0.00  0.00    -0.088 HD
ENDBRANCH  12  13
BRANCH  12  18
ATOM     17  OXT UNL     1     -35.499  20.643   1.031  0.00  0.00    -0.252 OA
ATOM     18  C   UNL     1     -36.504  20.600   1.735  0.00  0.00    +0.297 C 
BRANCH  18  19
ATOM     19  O   UNL     1     -36.795  19.527   2.510  0.00  0.00    -0.481 OA
ATOM     20  H   UNL     1     -36.153  19.190   3.104  0.00  0.00    +0.295 HD
ENDBRANCH  18  19
ENDBRANCH  12  18
ENDBRANCH   1  12
TORSDOF 6
ENDMDL
