MODEL 1
REMARK VINA RESULT:      -6.4      0.000      0.000
REMARK  Name = 196970
REMARK  5 active torsions:
REMARK  status: ('A' for Active; 'I' for Inactive)
REMARK    1  A    between atoms: N_1  and  C_6
REMARK    2  A    between atoms: N_1  and  S_16
REMARK    3  A    between atoms: C_8  and  C_15
REMARK    4  A    between atoms: S_16  and  C_19
REMARK    5  A    between atoms: C_22  and  C_26
REMARK                            x       y       z     vdW  Elec       q    Type
REMARK                         _______ _______ _______ _____ _____    ______ ____
ROOT
ATOM      1  N   UNL     1     -35.168  27.489   3.728  0.00  0.00    -0.214 N 
ATOM      2  H   UNL     1     -35.990  28.018   3.603  0.00  0.00    +0.174 HD
ENDROOT
BRANCH   1   6
ATOM      3  N   UNL     1     -35.228  24.984   1.993  0.00  0.00    -0.310 N 
ATOM      4  C   UNL     1     -35.256  25.045   3.368  0.00  0.00    +0.064 C 
ATOM      5  C   UNL     1     -35.319  23.731   3.838  0.00  0.00    +0.022 C 
ATOM      6  C   UNL     1     -35.232  26.153   4.223  0.00  0.00    +0.078 C 
ATOM      7  C   UNL     1     -35.359  23.510   5.228  0.00  0.00    -0.020 C 
ATOM      8  C   UNL     1     -35.327  22.881   2.697  0.00  0.00    +0.084 C 
ATOM      9  C   UNL     1     -35.273  25.908   5.599  0.00  0.00    +0.017 C 
ATOM     10  C   UNL     1     -35.336  24.608   6.096  0.00  0.00    -0.003 C 
ATOM     11  C   UNL     1     -35.270  23.679   1.579  0.00  0.00    +0.072 C 
ATOM     12  C   UNL     1     -35.427  22.142   5.833  0.00  0.00    +0.031 C 
ATOM     13  H   UNL     1     -35.184  25.764   1.395  0.00  0.00    +0.152 HD
BRANCH   8  15
ATOM     14  N   UNL     1     -35.426  20.292   2.627  0.00  0.00    -0.191 NA
ATOM     15  C   UNL     1     -35.381  21.458   2.659  0.00  0.00    +0.102 C 
ENDBRANCH   8  15
ENDBRANCH   1   6
BRANCH   1  16
ATOM     16  S   UNL     1     -33.628  28.163   3.352  0.00  0.00    +0.074 S 
ATOM     17  O   UNL     1     -32.853  28.288   4.573  0.00  0.00    -0.150 OA
ATOM     18  O   UNL     1     -33.057  27.488   2.203  0.00  0.00    -0.150 OA
BRANCH  16  19
ATOM     19  C   UNL     1     -34.062  29.805   2.851  0.00  0.00    +0.126 C 
ATOM     20  C   UNL     1     -35.363  30.069   2.462  0.00  0.00    +0.030 C 
ATOM     21  C   UNL     1     -33.091  30.789   2.860  0.00  0.00    +0.020 C 
ATOM     22  C   UNL     1     -35.704  31.363   2.068  0.00  0.00    +0.070 C 
ATOM     23  C   UNL     1     -33.433  32.083   2.466  0.00  0.00    +0.002 C 
ATOM     24  C   UNL     1     -34.739  32.370   2.071  0.00  0.00    +0.010 C 
BRANCH  22  26
ATOM     25  N   UNL     1     -38.130  31.895   1.331  0.00  0.00    -0.191 NA
ATOM     26  C   UNL     1     -37.042  31.657   1.662  0.00  0.00    +0.100 C 
ENDBRANCH  22  26
ENDBRANCH  16  19
ENDBRANCH   1  16
TORSDOF 5
ENDMDL
MODEL 2
REMARK VINA RESULT:      -6.4      5.308      8.792
REMARK  Name = 196970
REMARK  5 active torsions:
REMARK  status: ('A' for Active; 'I' for Inactive)
REMARK    1  A    between atoms: N_1  and  C_6
REMARK    2  A    between atoms: N_1  and  S_16
REMARK    3  A    between atoms: C_8  and  C_15
REMARK    4  A    between atoms: S_16  and  C_19
REMARK    5  A    between atoms: C_22  and  C_26
REMARK                            x       y       z     vdW  Elec       q    Type
REMARK                         _______ _______ _______ _____ _____    ______ ____
ROOT
ATOM      1  N   UNL     1     -36.767  19.952   2.177  0.00  0.00    -0.214 N 
ATOM      2  H   UNL     1     -36.931  19.204   2.796  0.00  0.00    +0.174 HD
ENDROOT
BRANCH   1   6
ATOM      3  N   UNL     1     -39.060  21.936   1.865  0.00  0.00    -0.310 N 
ATOM      4  C   UNL     1     -37.845  22.156   2.472  0.00  0.00    +0.064 C 
ATOM      5  C   UNL     1     -37.847  23.476   2.930  0.00  0.00    +0.022 C 
ATOM      6  C   UNL     1     -36.754  21.297   2.650  0.00  0.00    +0.078 C 
ATOM      7  C   UNL     1     -36.706  23.964   3.597  0.00  0.00    -0.020 C 
ATOM      8  C   UNL     1     -39.105  24.038   2.575  0.00  0.00    +0.084 C 
ATOM      9  C   UNL     1     -35.634  21.804   3.315  0.00  0.00    +0.017 C 
ATOM     10  C   UNL     1     -35.608  23.116   3.782  0.00  0.00    -0.003 C 
ATOM     11  C   UNL     1     -39.828  23.067   1.922  0.00  0.00    +0.072 C 
ATOM     12  C   UNL     1     -36.607  25.362   4.125  0.00  0.00    +0.031 C 
ATOM     13  H   UNL     1     -39.337  21.087   1.449  0.00  0.00    +0.152 HD
BRANCH   8  15
ATOM     14  N   UNL     1     -39.976  26.436   3.029  0.00  0.00    -0.191 NA
ATOM     15  C   UNL     1     -39.584  25.357   2.825  0.00  0.00    +0.102 C 
ENDBRANCH   8  15
ENDBRANCH   1   6
BRANCH   1  16
ATOM     16  S   UNL     1     -36.491  19.657   0.502  0.00  0.00    +0.074 S 
ATOM     17  O   UNL     1     -36.700  18.247   0.228  0.00  0.00    -0.150 OA
ATOM     18  O   UNL     1     -37.175  20.655  -0.298  0.00  0.00    -0.150 OA
BRANCH  16  19
ATOM     19  C   UNL     1     -34.752  19.953   0.362  0.00  0.00    +0.126 C 
ATOM     20  C   UNL     1     -33.865  18.966   0.754  0.00  0.00    +0.030 C 
ATOM     21  C   UNL     1     -34.314  21.167  -0.137  0.00  0.00    +0.020 C 
ATOM     22  C   UNL     1     -32.495  19.200   0.644  0.00  0.00    +0.070 C 
ATOM     23  C   UNL     1     -32.943  21.401  -0.247  0.00  0.00    +0.002 C 
ATOM     24  C   UNL     1     -32.034  20.418   0.142  0.00  0.00    +0.010 C 
BRANCH  22  26
ATOM     25  N   UNL     1     -30.806  17.374   1.369  0.00  0.00    -0.191 NA
ATOM     26  C   UNL     1     -31.563  18.193   1.044  0.00  0.00    +0.100 C 
ENDBRANCH  22  26
ENDBRANCH  16  19
ENDBRANCH   1  16
TORSDOF 5
ENDMDL
MODEL 3
REMARK VINA RESULT:      -6.3      4.536      7.456
REMARK  Name = 196970
REMARK  5 active torsions:
REMARK  status: ('A' for Active; 'I' for Inactive)
REMARK    1  A    between atoms: N_1  and  C_6
REMARK    2  A    between atoms: N_1  and  S_16
REMARK    3  A    between atoms: C_8  and  C_15
REMARK    4  A    between atoms: S_16  and  C_19
REMARK    5  A    between atoms: C_22  and  C_26
REMARK                            x       y       z     vdW  Elec       q    Type
REMARK                         _______ _______ _______ _____ _____    ______ ____
ROOT
ATOM      1  N   UNL     1     -37.720  20.934   2.471  0.00  0.00    -0.214 N 
ATOM      2  H   UNL     1     -37.990  20.281   3.156  0.00  0.00    +0.174 HD
ENDROOT
BRANCH   1   6
ATOM      3  N   UNL     1     -38.933  23.647   3.151  0.00  0.00    -0.310 N 
ATOM      4  C   UNL     1     -39.214  22.859   2.057  0.00  0.00    +0.064 C 
ATOM      5  C   UNL     1     -40.173  23.534   1.299  0.00  0.00    +0.022 C 
ATOM      6  C   UNL     1     -38.699  21.612   1.686  0.00  0.00    +0.078 C 
ATOM      7  C   UNL     1     -40.642  22.938   0.112  0.00  0.00    -0.020 C 
ATOM      8  C   UNL     1     -40.456  24.754   1.976  0.00  0.00    +0.084 C 
ATOM      9  C   UNL     1     -39.179  21.040   0.504  0.00  0.00    +0.017 C 
ATOM     10  C   UNL     1     -40.135  21.691  -0.272  0.00  0.00    -0.003 C 
ATOM     11  C   UNL     1     -39.679  24.794   3.109  0.00  0.00    +0.072 C 
ATOM     12  C   UNL     1     -41.668  23.578  -0.771  0.00  0.00    +0.031 C 
ATOM     13  H   UNL     1     -38.289  23.418   3.859  0.00  0.00    +0.152 HD
BRANCH   8  15
ATOM     14  N   UNL     1     -42.112  26.624   1.285  0.00  0.00    -0.191 NA
ATOM     15  C   UNL     1     -41.367  25.782   1.596  0.00  0.00    +0.102 C 
ENDBRANCH   8  15
ENDBRANCH   1   6
BRANCH   1  16
ATOM     16  S   UNL     1     -36.053  21.278   2.199  0.00  0.00    +0.074 S 
ATOM     17  O   UNL     1     -35.289  20.051   2.327  0.00  0.00    -0.150 OA
ATOM     18  O   UNL     1     -35.902  22.101   1.015  0.00  0.00    -0.150 OA
BRANCH  16  19
ATOM     19  C   UNL     1     -35.654  22.277   3.605  0.00  0.00    +0.126 C 
ATOM     20  C   UNL     1     -35.539  23.647   3.448  0.00  0.00    +0.030 C 
ATOM     21  C   UNL     1     -35.466  21.668   4.832  0.00  0.00    +0.020 C 
ATOM     22  C   UNL     1     -35.225  24.434   4.556  0.00  0.00    +0.070 C 
ATOM     23  C   UNL     1     -35.152  22.455   5.940  0.00  0.00    +0.002 C 
ATOM     24  C   UNL     1     -35.032  23.838   5.803  0.00  0.00    +0.010 C 
BRANCH  22  26
ATOM     25  N   UNL     1     -35.000  27.002   4.301  0.00  0.00    -0.191 NA
ATOM     26  C   UNL     1     -35.101  25.850   4.415  0.00  0.00    +0.100 C 
ENDBRANCH  22  26
ENDBRANCH  16  19
ENDBRANCH   1  16
TORSDOF 5
ENDMDL
MODEL 4
REMARK VINA RESULT:      -6.3      5.309      8.450
REMARK  Name = 196970
REMARK  5 active torsions:
REMARK  status: ('A' for Active; 'I' for Inactive)
REMARK    1  A    between atoms: N_1  and  C_6
REMARK    2  A    between atoms: N_1  and  S_16
REMARK    3  A    between atoms: C_8  and  C_15
REMARK    4  A    between atoms: S_16  and  C_19
REMARK    5  A    between atoms: C_22  and  C_26
REMARK                            x       y       z     vdW  Elec       q    Type
REMARK                         _______ _______ _______ _____ _____    ______ ____
ROOT
ATOM      1  N   UNL     1     -36.650  19.879   2.138  0.00  0.00    -0.214 N 
ATOM      2  H   UNL     1     -36.843  19.121   2.737  0.00  0.00    +0.174 HD
ENDROOT
BRANCH   1   6
ATOM      3  N   UNL     1     -38.958  21.843   1.809  0.00  0.00    -0.310 N 
ATOM      4  C   UNL     1     -37.757  22.067   2.445  0.00  0.00    +0.064 C 
ATOM      5  C   UNL     1     -37.782  23.380   2.922  0.00  0.00    +0.022 C 
ATOM      6  C   UNL     1     -36.661  21.217   2.631  0.00  0.00    +0.078 C 
ATOM      7  C   UNL     1     -36.661  23.869   3.619  0.00  0.00    -0.020 C 
ATOM      8  C   UNL     1     -39.039  23.934   2.550  0.00  0.00    +0.084 C 
ATOM      9  C   UNL     1     -35.560  21.725   3.326  0.00  0.00    +0.017 C 
ATOM     10  C   UNL     1     -35.557  23.030   3.814  0.00  0.00    -0.003 C 
ATOM     11  C   UNL     1     -39.739  22.966   1.868  0.00  0.00    +0.072 C 
ATOM     12  C   UNL     1     -36.587  25.259   4.170  0.00  0.00    +0.031 C 
ATOM     13  H   UNL     1     -39.216  20.998   1.375  0.00  0.00    +0.152 HD
BRANCH   8  15
ATOM     14  N   UNL     1     -39.945  26.315   3.024  0.00  0.00    -0.191 NA
ATOM     15  C   UNL     1     -39.537  25.243   2.811  0.00  0.00    +0.102 C 
ENDBRANCH   8  15
ENDBRANCH   1   6
BRANCH   1  16
ATOM     16  S   UNL     1     -36.294  19.610   0.473  0.00  0.00    +0.074 S 
ATOM     17  O   UNL     1     -36.702  18.264   0.112  0.00  0.00    -0.150 OA
ATOM     18  O   UNL     1     -36.745  20.736  -0.320  0.00  0.00    -0.150 OA
BRANCH  16  19
ATOM     19  C   UNL     1     -34.524  19.625   0.473  0.00  0.00    +0.126 C 
ATOM     20  C   UNL     1     -33.858  20.720  -0.047  0.00  0.00    +0.030 C 
ATOM     21  C   UNL     1     -33.842  18.540   0.994  0.00  0.00    +0.020 C 
ATOM     22  C   UNL     1     -32.464  20.731  -0.047  0.00  0.00    +0.070 C 
ATOM     23  C   UNL     1     -32.447  18.551   0.995  0.00  0.00    +0.002 C 
ATOM     24  C   UNL     1     -31.758  19.647   0.475  0.00  0.00    +0.010 C 
BRANCH  22  26
ATOM     25  N   UNL     1     -31.183  22.766  -1.013  0.00  0.00    -0.191 NA
ATOM     26  C   UNL     1     -31.758  21.853  -0.580  0.00  0.00    +0.100 C 
ENDBRANCH  22  26
ENDBRANCH  16  19
ENDBRANCH   1  16
TORSDOF 5
ENDMDL
MODEL 5
REMARK VINA RESULT:      -6.3      2.216      3.628
REMARK  Name = 196970
REMARK  5 active torsions:
REMARK  status: ('A' for Active; 'I' for Inactive)
REMARK    1  A    between atoms: N_1  and  C_6
REMARK    2  A    between atoms: N_1  and  S_16
REMARK    3  A    between atoms: C_8  and  C_15
REMARK    4  A    between atoms: S_16  and  C_19
REMARK    5  A    between atoms: C_22  and  C_26
REMARK                            x       y       z     vdW  Elec       q    Type
REMARK                         _______ _______ _______ _____ _____    ______ ____
ROOT
ATOM      1  N   UNL     1     -35.213  27.571   3.638  0.00  0.00    -0.214 N 
ATOM      2  H   UNL     1     -35.954  28.175   3.875  0.00  0.00    +0.174 HD
ENDROOT
BRANCH   1   6
ATOM      3  N   UNL     1     -35.640  25.029   2.010  0.00  0.00    -0.310 N 
ATOM      4  C   UNL     1     -35.366  25.120   3.356  0.00  0.00    +0.064 C 
ATOM      5  C   UNL     1     -35.317  23.816   3.856  0.00  0.00    +0.022 C 
ATOM      6  C   UNL     1     -35.160  26.246   4.162  0.00  0.00    +0.078 C 
ATOM      7  C   UNL     1     -35.050  23.624   5.225  0.00  0.00    -0.020 C 
ATOM      8  C   UNL     1     -35.571  22.942   2.762  0.00  0.00    +0.084 C 
ATOM      9  C   UNL     1     -34.896  26.030   5.518  0.00  0.00    +0.017 C 
ATOM     10  C   UNL     1     -34.842  24.741   6.044  0.00  0.00    -0.003 C 
ATOM     11  C   UNL     1     -35.766  23.716   1.643  0.00  0.00    +0.072 C 
ATOM     12  C   UNL     1     -34.977  22.270   5.859  0.00  0.00    +0.031 C 
ATOM     13  H   UNL     1     -35.732  25.796   1.401  0.00  0.00    +0.152 HD
BRANCH   8  15
ATOM     14  N   UNL     1     -35.671  20.352   2.771  0.00  0.00    -0.191 NA
ATOM     15  C   UNL     1     -35.626  21.518   2.767  0.00  0.00    +0.102 C 
ENDBRANCH   8  15
ENDBRANCH   1   6
BRANCH   1  16
ATOM     16  S   UNL     1     -33.957  28.098   2.582  0.00  0.00    +0.074 S 
ATOM     17  O   UNL     1     -33.227  26.940   2.098  0.00  0.00    -0.150 OA
ATOM     18  O   UNL     1     -34.476  29.068   1.638  0.00  0.00    -0.150 OA
BRANCH  16  19
ATOM     19  C   UNL     1     -32.880  28.952   3.696  0.00  0.00    +0.126 C 
ATOM     20  C   UNL     1     -31.917  28.237   4.386  0.00  0.00    +0.030 C 
ATOM     21  C   UNL     1     -33.022  30.319   3.854  0.00  0.00    +0.020 C 
ATOM     22  C   UNL     1     -31.069  28.911   5.263  0.00  0.00    +0.070 C 
ATOM     23  C   UNL     1     -32.173  30.993   4.732  0.00  0.00    +0.002 C 
ATOM     24  C   UNL     1     -31.196  30.290   5.436  0.00  0.00    +0.010 C 
BRANCH  22  26
ATOM     25  N   UNL     1     -29.254  27.604   6.572  0.00  0.00    -0.191 NA
ATOM     26  C   UNL     1     -30.068  28.191   5.986  0.00  0.00    +0.100 C 
ENDBRANCH  22  26
ENDBRANCH  16  19
ENDBRANCH   1  16
TORSDOF 5
ENDMDL
MODEL 6
REMARK VINA RESULT:      -6.2      2.296      7.802
REMARK  Name = 196970
REMARK  5 active torsions:
REMARK  status: ('A' for Active; 'I' for Inactive)
REMARK    1  A    between atoms: N_1  and  C_6
REMARK    2  A    between atoms: N_1  and  S_16
REMARK    3  A    between atoms: C_8  and  C_15
REMARK    4  A    between atoms: S_16  and  C_19
REMARK    5  A    between atoms: C_22  and  C_26
REMARK                            x       y       z     vdW  Elec       q    Type
REMARK                         _______ _______ _______ _____ _____    ______ ____
ROOT
ATOM      1  N   UNL     1     -33.640  26.146   3.962  0.00  0.00    -0.214 N 
ATOM      2  H   UNL     1     -33.044  25.437   3.627  0.00  0.00    +0.174 HD
ENDROOT
BRANCH   1   6
ATOM      3  N   UNL     1     -34.143  28.637   2.279  0.00  0.00    -0.310 N 
ATOM      4  C   UNL     1     -33.402  28.549   3.436  0.00  0.00    +0.064 C 
ATOM      5  C   UNL     1     -32.911  29.828   3.708  0.00  0.00    +0.022 C 
ATOM      6  C   UNL     1     -33.131  27.445   4.253  0.00  0.00    +0.078 C 
ATOM      7  C   UNL     1     -32.110  30.017   4.852  0.00  0.00    -0.020 C 
ATOM      8  C   UNL     1     -33.383  30.684   2.675  0.00  0.00    +0.084 C 
ATOM      9  C   UNL     1     -32.335  27.658   5.382  0.00  0.00    +0.017 C 
ATOM     10  C   UNL     1     -31.831  28.922   5.679  0.00  0.00    -0.003 C 
ATOM     11  C   UNL     1     -34.137  29.924   1.812  0.00  0.00    +0.072 C 
ATOM     12  C   UNL     1     -31.535  31.345   5.233  0.00  0.00    +0.031 C 
ATOM     13  H   UNL     1     -34.609  27.884   1.850  0.00  0.00    +0.152 HD
BRANCH   8  15
ATOM     14  N   UNL     1     -32.961  33.224   2.380  0.00  0.00    -0.191 NA
ATOM     15  C   UNL     1     -33.151  32.081   2.513  0.00  0.00    +0.102 C 
ENDBRANCH   8  15
ENDBRANCH   1   6
BRANCH   1  16
ATOM     16  S   UNL     1     -35.317  25.835   4.205  0.00  0.00    +0.074 S 
ATOM     17  O   UNL     1     -35.759  26.528   5.402  0.00  0.00    -0.150 OA
ATOM     18  O   UNL     1     -36.042  26.014   2.962  0.00  0.00    -0.150 OA
BRANCH  16  19
ATOM     19  C   UNL     1     -35.316  24.107   4.586  0.00  0.00    +0.126 C 
ATOM     20  C   UNL     1     -35.422  23.189   3.556  0.00  0.00    +0.030 C 
ATOM     21  C   UNL     1     -35.209  23.708   5.906  0.00  0.00    +0.020 C 
ATOM     22  C   UNL     1     -35.421  21.827   3.856  0.00  0.00    +0.070 C 
ATOM     23  C   UNL     1     -35.207  22.346   6.206  0.00  0.00    +0.002 C 
ATOM     24  C   UNL     1     -35.313  21.406   5.181  0.00  0.00    +0.010 C 
BRANCH  22  26
ATOM     25  N   UNL     1     -35.619  20.081   1.953  0.00  0.00    -0.191 NA
ATOM     26  C   UNL     1     -35.530  20.864   2.806  0.00  0.00    +0.100 C 
ENDBRANCH  22  26
ENDBRANCH  16  19
ENDBRANCH   1  16
TORSDOF 5
ENDMDL
MODEL 7
REMARK VINA RESULT:      -6.2      4.315      8.330
REMARK  Name = 196970
REMARK  5 active torsions:
REMARK  status: ('A' for Active; 'I' for Inactive)
REMARK    1  A    between atoms: N_1  and  C_6
REMARK    2  A    between atoms: N_1  and  S_16
REMARK    3  A    between atoms: C_8  and  C_15
REMARK    4  A    between atoms: S_16  and  C_19
REMARK    5  A    between atoms: C_22  and  C_26
REMARK                            x       y       z     vdW  Elec       q    Type
REMARK                         _______ _______ _______ _____ _____    ______ ____
ROOT
ATOM      1  N   UNL     1     -35.958  22.439   2.214  0.00  0.00    -0.214 N 
ATOM      2  H   UNL     1     -36.478  22.745   1.436  0.00  0.00    +0.174 HD
ENDROOT
BRANCH   1   6
ATOM      3  N   UNL     1     -34.022  24.698   1.550  0.00  0.00    -0.310 N 
ATOM      4  C   UNL     1     -34.553  24.392   2.782  0.00  0.00    +0.064 C 
ATOM      5  C   UNL     1     -34.038  25.317   3.694  0.00  0.00    +0.022 C 
ATOM      6  C   UNL     1     -35.441  23.377   3.156  0.00  0.00    +0.078 C 
ATOM      7  C   UNL     1     -34.427  25.226   5.045  0.00  0.00    -0.020 C 
ATOM      8  C   UNL     1     -33.181  26.187   2.965  0.00  0.00    +0.084 C 
ATOM      9  C   UNL     1     -35.812  23.307   4.503  0.00  0.00    +0.017 C 
ATOM     10  C   UNL     1     -35.315  24.215   5.434  0.00  0.00    -0.003 C 
ATOM     11  C   UNL     1     -33.191  25.782   1.651  0.00  0.00    +0.072 C 
ATOM     12  C   UNL     1     -33.933  26.166   6.100  0.00  0.00    +0.031 C 
ATOM     13  H   UNL     1     -34.211  24.209   0.717  0.00  0.00    +0.152 HD
BRANCH   8  15
ATOM     14  N   UNL     1     -31.807  28.197   3.852  0.00  0.00    -0.191 NA
ATOM     15  C   UNL     1     -32.425  27.292   3.453  0.00  0.00    +0.102 C 
ENDBRANCH   8  15
ENDBRANCH   1   6
BRANCH   1  16
ATOM     16  S   UNL     1     -35.656  20.761   2.460  0.00  0.00    +0.074 S 
ATOM     17  O   UNL     1     -35.217  20.553   3.828  0.00  0.00    -0.150 OA
ATOM     18  O   UNL     1     -36.753  19.975   1.929  0.00  0.00    -0.150 OA
BRANCH  16  19
ATOM     19  C   UNL     1     -34.247  20.489   1.423  0.00  0.00    +0.126 C 
ATOM     20  C   UNL     1     -33.546  19.302   1.536  0.00  0.00    +0.030 C 
ATOM     21  C   UNL     1     -33.877  21.469   0.521  0.00  0.00    +0.020 C 
ATOM     22  C   UNL     1     -32.436  19.088   0.718  0.00  0.00    +0.070 C 
ATOM     23  C   UNL     1     -32.767  21.256  -0.296  0.00  0.00    +0.002 C 
ATOM     24  C   UNL     1     -32.047  20.065  -0.198  0.00  0.00    +0.010 C 
BRANCH  22  26
ATOM     25  N   UNL     1     -31.098  16.877   0.901  0.00  0.00    -0.191 NA
ATOM     26  C   UNL     1     -31.699  17.868   0.819  0.00  0.00    +0.100 C 
ENDBRANCH  22  26
ENDBRANCH  16  19
ENDBRANCH   1  16
TORSDOF 5
ENDMDL
MODEL 8
REMARK VINA RESULT:      -6.1      1.528      2.646
REMARK  Name = 196970
REMARK  5 active torsions:
REMARK  status: ('A' for Active; 'I' for Inactive)
REMARK    1  A    between atoms: N_1  and  C_6
REMARK    2  A    between atoms: N_1  and  S_16
REMARK    3  A    between atoms: C_8  and  C_15
REMARK    4  A    between atoms: S_16  and  C_19
REMARK    5  A    between atoms: C_22  and  C_26
REMARK                            x       y       z     vdW  Elec       q    Type
REMARK                         _______ _______ _______ _____ _____    ______ ____
ROOT
ATOM      1  N   UNL     1     -35.852  28.162   2.239  0.00  0.00    -0.214 N 
ATOM      2  H   UNL     1     -36.713  28.603   2.058  0.00  0.00    +0.174 HD
ENDROOT
BRANCH   1   6
ATOM      3  N   UNL     1     -35.821  26.647   4.883  0.00  0.00    -0.310 N 
ATOM      4  C   UNL     1     -35.765  26.112   3.616  0.00  0.00    +0.064 C 
ATOM      5  C   UNL     1     -35.689  24.725   3.758  0.00  0.00    +0.022 C 
ATOM      6  C   UNL     1     -35.774  26.744   2.367  0.00  0.00    +0.078 C 
ATOM      7  C   UNL     1     -35.619  23.927   2.599  0.00  0.00    -0.020 C 
ATOM      8  C   UNL     1     -35.701  24.447   5.154  0.00  0.00    +0.084 C 
ATOM      9  C   UNL     1     -35.704  25.932   1.232  0.00  0.00    +0.017 C 
ATOM     10  C   UNL     1     -35.628  24.546   1.343  0.00  0.00    -0.003 C 
ATOM     11  C   UNL     1     -35.784  25.648   5.819  0.00  0.00    +0.072 C 
ATOM     12  C   UNL     1     -35.534  22.433   2.642  0.00  0.00    +0.031 C 
ATOM     13  H   UNL     1     -35.879  27.609   5.087  0.00  0.00    +0.152 HD
BRANCH   8  15
ATOM     14  N   UNL     1     -35.596  22.142   6.332  0.00  0.00    -0.191 NA
ATOM     15  C   UNL     1     -35.644  23.180   5.801  0.00  0.00    +0.102 C 
ENDBRANCH   8  15
ENDBRANCH   1   6
BRANCH   1  16
ATOM     16  S   UNL     1     -34.411  29.092   2.405  0.00  0.00    +0.074 S 
ATOM     17  O   UNL     1     -34.030  29.130   3.806  0.00  0.00    -0.150 OA
ATOM     18  O   UNL     1     -33.440  28.689   1.406  0.00  0.00    -0.150 OA
BRANCH  16  19
ATOM     19  C   UNL     1     -34.975  30.716   1.984  0.00  0.00    +0.126 C 
ATOM     20  C   UNL     1     -36.334  30.952   1.878  0.00  0.00    +0.030 C 
ATOM     21  C   UNL     1     -34.045  31.717   1.771  0.00  0.00    +0.020 C 
ATOM     22  C   UNL     1     -36.778  32.232   1.546  0.00  0.00    +0.070 C 
ATOM     23  C   UNL     1     -34.489  32.997   1.440  0.00  0.00    +0.002 C 
ATOM     24  C   UNL     1     -35.855  33.255   1.328  0.00  0.00    +0.010 C 
BRANCH  22  26
ATOM     25  N   UNL     1     -39.316  32.709   1.336  0.00  0.00    -0.191 NA
ATOM     26  C   UNL     1     -38.178  32.495   1.431  0.00  0.00    +0.100 C 
ENDBRANCH  22  26
ENDBRANCH  16  19
ENDBRANCH   1  16
TORSDOF 5
ENDMDL
MODEL 9
REMARK VINA RESULT:      -6.1      4.745      7.488
REMARK  Name = 196970
REMARK  5 active torsions:
REMARK  status: ('A' for Active; 'I' for Inactive)
REMARK    1  A    between atoms: N_1  and  C_6
REMARK    2  A    between atoms: N_1  and  S_16
REMARK    3  A    between atoms: C_8  and  C_15
REMARK    4  A    between atoms: S_16  and  C_19
REMARK    5  A    between atoms: C_22  and  C_26
REMARK                            x       y       z     vdW  Elec       q    Type
REMARK                         _______ _______ _______ _____ _____    ______ ____
ROOT
ATOM      1  N   UNL     1     -37.328  20.645   2.485  0.00  0.00    -0.214 N 
ATOM      2  H   UNL     1     -37.565  19.849   3.014  0.00  0.00    +0.174 HD
ENDROOT
BRANCH   1   6
ATOM      3  N   UNL     1     -38.722  19.824  -0.099  0.00  0.00    -0.310 N 
ATOM      4  C   UNL     1     -38.938  20.967   0.637  0.00  0.00    +0.064 C 
ATOM      5  C   UNL     1     -39.928  21.700  -0.022  0.00  0.00    +0.022 C 
ATOM      6  C   UNL     1     -38.338  21.405   1.824  0.00  0.00    +0.078 C 
ATOM      7  C   UNL     1     -40.341  22.929   0.529  0.00  0.00    -0.020 C 
ATOM      8  C   UNL     1     -40.297  20.956  -1.177  0.00  0.00    +0.084 C 
ATOM      9  C   UNL     1     -38.765  22.627   2.351  0.00  0.00    +0.017 C 
ATOM     10  C   UNL     1     -39.750  23.379   1.715  0.00  0.00    -0.003 C 
ATOM     11  C   UNL     1     -39.539  19.809  -1.197  0.00  0.00    +0.072 C 
ATOM     12  C   UNL     1     -41.393  23.790  -0.099  0.00  0.00    +0.031 C 
ATOM     13  H   UNL     1     -38.074  19.120   0.132  0.00  0.00    +0.152 HD
BRANCH   8  15
ATOM     14  N   UNL     1     -42.062  21.560  -2.976  0.00  0.00    -0.191 NA
ATOM     15  C   UNL     1     -41.268  21.288  -2.166  0.00  0.00    +0.102 C 
ENDBRANCH   8  15
ENDBRANCH   1   6
BRANCH   1  16
ATOM     16  S   UNL     1     -35.685  21.144   2.340  0.00  0.00    +0.074 S 
ATOM     17  O   UNL     1     -34.822  19.990   2.518  0.00  0.00    -0.150 OA
ATOM     18  O   UNL     1     -35.523  21.991   1.175  0.00  0.00    -0.150 OA
BRANCH  16  19
ATOM     19  C   UNL     1     -35.485  22.158   3.777  0.00  0.00    +0.126 C 
ATOM     20  C   UNL     1     -35.403  23.531   3.628  0.00  0.00    +0.030 C 
ATOM     21  C   UNL     1     -35.416  21.557   5.021  0.00  0.00    +0.020 C 
ATOM     22  C   UNL     1     -35.246  24.329   4.760  0.00  0.00    +0.070 C 
ATOM     23  C   UNL     1     -35.258  22.355   6.153  0.00  0.00    +0.002 C 
ATOM     24  C   UNL     1     -35.174  23.741   6.023  0.00  0.00    +0.010 C 
BRANCH  22  26
ATOM     25  N   UNL     1     -35.087  26.904   4.518  0.00  0.00    -0.191 NA
ATOM     26  C   UNL     1     -35.158  25.749   4.627  0.00  0.00    +0.100 C 
ENDBRANCH  22  26
ENDBRANCH  16  19
ENDBRANCH   1  16
TORSDOF 5
ENDMDL
