MODEL 1
REMARK VINA RESULT:      -6.7      0.000      0.000
REMARK  Name = 196546
REMARK  7 active torsions:
REMARK  status: ('A' for Active; 'I' for Inactive)
REMARK    1  A    between atoms: C_2  and  O_17
REMARK    2  A    between atoms: C_3  and  N_7
REMARK    3  A    between atoms: C_5  and  C_19
REMARK    4  A    between atoms: C_19  and  O_20
REMARK    5  A    between atoms: O_20  and  P_21
REMARK    6  A    between atoms: P_21  and  O_23
REMARK    7  A    between atoms: P_21  and  O_25
REMARK                            x       y       z     vdW  Elec       q    Type
REMARK                         _______ _______ _______ _____ _____    ______ ____
ROOT
ATOM      1  O   UNL     1     -37.754  23.247   3.555  0.00  0.00    -0.335 OA
ATOM      2  C   UNL     1     -38.114  25.228   2.294  0.00  0.00    +0.161 C 
ATOM      3  C   UNL     1     -37.795  24.677   3.672  0.00  0.00    +0.234 C 
ATOM      4  C   UNL     1     -38.922  24.105   1.687  0.00  0.00    +0.066 C 
ATOM      5  C   UNL     1     -38.255  22.868   2.262  0.00  0.00    +0.150 C 
ENDROOT
BRANCH   3   7
ATOM      6  O   UNL     1     -36.214  23.319   5.574  0.00  0.00    -0.192 OA
ATOM      7  N   UNL     1     -36.531  25.140   4.174  0.00  0.00    -0.176 N 
ATOM      8  N   UNL     1     -34.566  24.892   5.592  0.00  0.00    -0.263 NA
ATOM      9  N   UNL     1     -34.047  27.862   3.972  0.00  0.00    -0.216 N 
ATOM     10  N   UNL     1     -33.014  26.683   5.405  0.00  0.00    -0.075 NA
ATOM     11  N   UNL     1     -32.933  27.771   4.743  0.00  0.00    -0.037 NA
ATOM     12  C   UNL     1     -36.033  26.353   3.696  0.00  0.00    +0.107 C 
ATOM     13  C   UNL     1     -35.786  24.391   5.141  0.00  0.00    +0.283 C 
ATOM     14  C   UNL     1     -34.872  26.827   4.125  0.00  0.00    +0.156 C 
ATOM     15  C   UNL     1     -34.182  26.015   5.099  0.00  0.00    +0.136 C 
ATOM     16  H   UNL     1     -34.226  28.615   3.364  0.00  0.00    +0.174 HD
ENDBRANCH   3   7
BRANCH   2  17
ATOM     17  O   UNL     1     -38.858  26.428   2.381  0.00  0.00    -0.380 OA
ATOM     18  H   UNL     1     -39.362  26.436   3.210  0.00  0.00    +0.211 HD
ENDBRANCH   2  17
BRANCH   5  19
ATOM     19  C   UNL     1     -37.089  22.370   1.418  0.00  0.00    +0.183 C 
BRANCH  19  20
ATOM     20  O   UNL     1     -35.963  22.175   2.259  0.00  0.00    -0.271 OA
BRANCH  20  21
ATOM     21  P   UNL     1     -35.527  20.660   2.623  0.00  0.00    +0.473 P 
ATOM     22  O   UNL     1     -34.355  20.133   1.847  0.00  0.00    -0.227 OA
BRANCH  21  23
ATOM     23  O   UNL     1     -36.897  19.817   2.465  0.00  0.00    -0.303 OA
ATOM     24  H   UNL     1     -37.155  19.453   3.327  0.00  0.00    +0.222 HD
ENDBRANCH  21  23
BRANCH  21  25
ATOM     25  O   UNL     1     -35.313  20.723   4.225  0.00  0.00    -0.303 OA
ATOM     26  H   UNL     1     -34.554  21.293   4.427  0.00  0.00    +0.222 HD
ENDBRANCH  21  25
ENDBRANCH  20  21
ENDBRANCH  19  20
ENDBRANCH   5  19
TORSDOF 7
ENDMDL
MODEL 2
REMARK VINA RESULT:      -6.7      2.702      3.709
REMARK  Name = 196546
REMARK  7 active torsions:
REMARK  status: ('A' for Active; 'I' for Inactive)
REMARK    1  A    between atoms: C_2  and  O_17
REMARK    2  A    between atoms: C_3  and  N_7
REMARK    3  A    between atoms: C_5  and  C_19
REMARK    4  A    between atoms: C_19  and  O_20
REMARK    5  A    between atoms: O_20  and  P_21
REMARK    6  A    between atoms: P_21  and  O_23
REMARK    7  A    between atoms: P_21  and  O_25
REMARK                            x       y       z     vdW  Elec       q    Type
REMARK                         _______ _______ _______ _____ _____    ______ ____
ROOT
ATOM      1  O   UNL     1     -39.005  25.224   2.942  0.00  0.00    -0.335 OA
ATOM      2  C   UNL     1     -37.124  26.353   2.031  0.00  0.00    +0.161 C 
ATOM      3  C   UNL     1     -37.767  25.848   3.310  0.00  0.00    +0.234 C 
ATOM      4  C   UNL     1     -38.329  26.625   1.162  0.00  0.00    +0.066 C 
ATOM      5  C   UNL     1     -39.284  25.515   1.563  0.00  0.00    +0.150 C 
ENDROOT
BRANCH   3   7
ATOM      6  O   UNL     1     -36.134  26.420   5.539  0.00  0.00    -0.192 OA
ATOM      7  N   UNL     1     -36.948  24.890   3.999  0.00  0.00    -0.176 N 
ATOM      8  N   UNL     1     -35.369  24.286   5.754  0.00  0.00    -0.263 NA
ATOM      9  N   UNL     1     -35.902  21.351   4.076  0.00  0.00    -0.216 N 
ATOM     10  N   UNL     1     -34.746  21.992   5.737  0.00  0.00    -0.075 NA
ATOM     11  N   UNL     1     -35.023  20.963   5.035  0.00  0.00    -0.037 NA
ATOM     12  C   UNL     1     -36.946  23.570   3.543  0.00  0.00    +0.107 C 
ATOM     13  C   UNL     1     -36.144  25.260   5.126  0.00  0.00    +0.283 C 
ATOM     14  C   UNL     1     -36.209  22.646   4.143  0.00  0.00    +0.156 C 
ATOM     15  C   UNL     1     -35.427  23.096   5.270  0.00  0.00    +0.136 C 
ATOM     16  H   UNL     1     -36.274  20.738   3.401  0.00  0.00    +0.174 HD
ENDBRANCH   3   7
BRANCH   2  17
ATOM     17  O   UNL     1     -36.366  27.524   2.265  0.00  0.00    -0.380 OA
ATOM     18  H   UNL     1     -35.638  27.572   1.625  0.00  0.00    +0.211 HD
ENDBRANCH   2  17
BRANCH   5  19
ATOM     19  C   UNL     1     -39.095  24.240   0.751  0.00  0.00    +0.183 C 
BRANCH  19  20
ATOM     20  O   UNL     1     -39.663  23.153   1.463  0.00  0.00    -0.271 OA
BRANCH  20  21
ATOM     21  P   UNL     1     -39.316  21.648   0.979  0.00  0.00    +0.473 P 
ATOM     22  O   UNL     1     -38.430  21.559  -0.229  0.00  0.00    -0.227 OA
BRANCH  21  23
ATOM     23  O   UNL     1     -40.765  20.949   0.828  0.00  0.00    -0.303 OA
ATOM     24  H   UNL     1     -40.716  20.242   0.166  0.00  0.00    +0.222 HD
ENDBRANCH  21  23
BRANCH  21  25
ATOM     25  O   UNL     1     -38.714  20.970   2.319  0.00  0.00    -0.303 OA
ATOM     26  H   UNL     1     -38.071  20.287   2.074  0.00  0.00    +0.222 HD
ENDBRANCH  21  25
ENDBRANCH  20  21
ENDBRANCH  19  20
ENDBRANCH   5  19
TORSDOF 7
ENDMDL
MODEL 3
REMARK VINA RESULT:      -6.6      2.609      4.951
REMARK  Name = 196546
REMARK  7 active torsions:
REMARK  status: ('A' for Active; 'I' for Inactive)
REMARK    1  A    between atoms: C_2  and  O_17
REMARK    2  A    between atoms: C_3  and  N_7
REMARK    3  A    between atoms: C_5  and  C_19
REMARK    4  A    between atoms: C_19  and  O_20
REMARK    5  A    between atoms: O_20  and  P_21
REMARK    6  A    between atoms: P_21  and  O_23
REMARK    7  A    between atoms: P_21  and  O_25
REMARK                            x       y       z     vdW  Elec       q    Type
REMARK                         _______ _______ _______ _____ _____    ______ ____
ROOT
ATOM      1  O   UNL     1     -35.530  24.182   3.001  0.00  0.00    -0.335 OA
ATOM      2  C   UNL     1     -36.454  25.252   4.911  0.00  0.00    +0.161 C 
ATOM      3  C   UNL     1     -36.249  25.355   3.409  0.00  0.00    +0.234 C 
ATOM      4  C   UNL     1     -35.255  24.437   5.335  0.00  0.00    +0.066 C 
ATOM      5  C   UNL     1     -35.073  23.482   4.170  0.00  0.00    +0.150 C 
ENDROOT
BRANCH   3   7
ATOM      6  O   UNL     1     -37.122  27.569   1.894  0.00  0.00    -0.192 OA
ATOM      7  N   UNL     1     -37.487  25.420   2.685  0.00  0.00    -0.176 N 
ATOM      8  N   UNL     1     -39.076  26.588   1.254  0.00  0.00    -0.263 NA
ATOM      9  N   UNL     1     -40.557  23.557   1.831  0.00  0.00    -0.216 N 
ATOM     10  N   UNL     1     -41.024  25.323   0.749  0.00  0.00    -0.075 NA
ATOM     11  N   UNL     1     -41.474  24.164   1.036  0.00  0.00    -0.037 NA
ATOM     12  C   UNL     1     -38.336  24.313   2.724  0.00  0.00    +0.107 C 
ATOM     13  C   UNL     1     -37.860  26.583   1.937  0.00  0.00    +0.283 C 
ATOM     14  C   UNL     1     -39.491  24.319   2.073  0.00  0.00    +0.156 C 
ATOM     15  C   UNL     1     -39.796  25.527   1.343  0.00  0.00    +0.136 C 
ATOM     16  H   UNL     1     -40.668  22.647   2.191  0.00  0.00    +0.174 HD
ENDBRANCH   3   7
BRANCH   2  17
ATOM     17  O   UNL     1     -36.466  26.530   5.515  0.00  0.00    -0.380 OA
ATOM     18  H   UNL     1     -35.879  27.127   5.024  0.00  0.00    +0.211 HD
ENDBRANCH   2  17
BRANCH   5  19
ATOM     19  C   UNL     1     -35.886  22.201   4.315  0.00  0.00    +0.183 C 
BRANCH  19  20
ATOM     20  O   UNL     1     -35.129  21.116   3.801  0.00  0.00    -0.271 OA
BRANCH  20  21
ATOM     21  P   UNL     1     -35.525  20.521   2.349  0.00  0.00    +0.473 P 
ATOM     22  O   UNL     1     -34.446  19.723   1.675  0.00  0.00    -0.227 OA
BRANCH  21  23
ATOM     23  O   UNL     1     -36.041  21.816   1.530  0.00  0.00    -0.303 OA
ATOM     24  H   UNL     1     -35.602  21.848   0.666  0.00  0.00    +0.222 HD
ENDBRANCH  21  23
BRANCH  21  25
ATOM     25  O   UNL     1     -36.888  19.707   2.653  0.00  0.00    -0.303 OA
ATOM     26  H   UNL     1     -37.645  20.309   2.591  0.00  0.00    +0.222 HD
ENDBRANCH  21  25
ENDBRANCH  20  21
ENDBRANCH  19  20
ENDBRANCH   5  19
TORSDOF 7
ENDMDL
MODEL 4
REMARK VINA RESULT:      -6.4      3.324      5.182
REMARK  Name = 196546
REMARK  7 active torsions:
REMARK  status: ('A' for Active; 'I' for Inactive)
REMARK    1  A    between atoms: C_2  and  O_17
REMARK    2  A    between atoms: C_3  and  N_7
REMARK    3  A    between atoms: C_5  and  C_19
REMARK    4  A    between atoms: C_19  and  O_20
REMARK    5  A    between atoms: O_20  and  P_21
REMARK    6  A    between atoms: P_21  and  O_23
REMARK    7  A    between atoms: P_21  and  O_25
REMARK                            x       y       z     vdW  Elec       q    Type
REMARK                         _______ _______ _______ _____ _____    ______ ____
ROOT
ATOM      1  O   UNL     1     -37.788  23.185   0.275  0.00  0.00    -0.335 OA
ATOM      2  C   UNL     1     -38.880  21.102   0.618  0.00  0.00    +0.161 C 
ATOM      3  C   UNL     1     -37.536  21.810   0.601  0.00  0.00    +0.234 C 
ATOM      4  C   UNL     1     -39.675  21.917  -0.374  0.00  0.00    +0.066 C 
ATOM      5  C   UNL     1     -39.157  23.325  -0.139  0.00  0.00    +0.150 C 
ENDROOT
BRANCH   3   7
ATOM      6  O   UNL     1     -35.842  19.710   1.426  0.00  0.00    -0.192 OA
ATOM      7  N   UNL     1     -36.862  21.746   1.867  0.00  0.00    -0.176 N 
ATOM      8  N   UNL     1     -35.387  20.635   3.457  0.00  0.00    -0.263 NA
ATOM      9  N   UNL     1     -36.329  23.505   5.068  0.00  0.00    -0.216 N 
ATOM     10  N   UNL     1     -35.094  21.830   5.492  0.00  0.00    -0.075 NA
ATOM     11  N   UNL     1     -35.515  22.927   5.988  0.00  0.00    -0.037 NA
ATOM     12  C   UNL     1     -37.048  22.793   2.771  0.00  0.00    +0.107 C 
ATOM     13  C   UNL     1     -36.015  20.643   2.213  0.00  0.00    +0.283 C 
ATOM     14  C   UNL     1     -36.448  22.784   3.953  0.00  0.00    +0.156 C 
ATOM     15  C   UNL     1     -35.613  21.639   4.228  0.00  0.00    +0.136 C 
ATOM     16  H   UNL     1     -36.784  24.366   5.210  0.00  0.00    +0.174 HD
ENDBRANCH   3   7
BRANCH   2  17
ATOM     17  O   UNL     1     -38.754  19.753   0.215  0.00  0.00    -0.380 OA
ATOM     18  H   UNL     1     -39.425  19.216   0.667  0.00  0.00    +0.211 HD
ENDBRANCH   2  17
BRANCH   5  19
ATOM     19  C   UNL     1     -39.919  24.068   0.951  0.00  0.00    +0.183 C 
BRANCH  19  20
ATOM     20  O   UNL     1     -39.101  25.114   1.452  0.00  0.00    -0.271 OA
BRANCH  20  21
ATOM     21  P   UNL     1     -39.558  25.867   2.809  0.00  0.00    +0.473 P 
ATOM     22  O   UNL     1     -40.697  26.830   2.647  0.00  0.00    -0.227 OA
BRANCH  21  23
ATOM     23  O   UNL     1     -38.185  26.507   3.373  0.00  0.00    -0.303 OA
ATOM     24  H   UNL     1     -38.295  26.734   4.310  0.00  0.00    +0.222 HD
ENDBRANCH  21  23
BRANCH  21  25
ATOM     25  O   UNL     1     -39.840  24.640   3.824  0.00  0.00    -0.303 OA
ATOM     26  H   UNL     1     -40.567  24.097   3.480  0.00  0.00    +0.222 HD
ENDBRANCH  21  25
ENDBRANCH  20  21
ENDBRANCH  19  20
ENDBRANCH   5  19
TORSDOF 7
ENDMDL
MODEL 5
REMARK VINA RESULT:      -6.4      3.782      5.791
REMARK  Name = 196546
REMARK  7 active torsions:
REMARK  status: ('A' for Active; 'I' for Inactive)
REMARK    1  A    between atoms: C_2  and  O_17
REMARK    2  A    between atoms: C_3  and  N_7
REMARK    3  A    between atoms: C_5  and  C_19
REMARK    4  A    between atoms: C_19  and  O_20
REMARK    5  A    between atoms: O_20  and  P_21
REMARK    6  A    between atoms: P_21  and  O_23
REMARK    7  A    between atoms: P_21  and  O_25
REMARK                            x       y       z     vdW  Elec       q    Type
REMARK                         _______ _______ _______ _____ _____    ______ ____
ROOT
ATOM      1  O   UNL     1     -36.287  23.919   4.109  0.00  0.00    -0.335 OA
ATOM      2  C   UNL     1     -35.065  22.122   5.071  0.00  0.00    +0.161 C 
ATOM      3  C   UNL     1     -36.024  22.516   3.962  0.00  0.00    +0.234 C 
ATOM      4  C   UNL     1     -35.416  23.114   6.155  0.00  0.00    +0.066 C 
ATOM      5  C   UNL     1     -35.747  24.367   5.364  0.00  0.00    +0.150 C 
ENDROOT
BRANCH   3   7
ATOM      6  O   UNL     1     -36.103  20.043   2.606  0.00  0.00    -0.192 OA
ATOM      7  N   UNL     1     -35.484  22.277   2.653  0.00  0.00    -0.176 N 
ATOM      8  N   UNL     1     -35.020  20.817   0.758  0.00  0.00    -0.263 NA
ATOM      9  N   UNL     1     -33.713  23.836  -0.185  0.00  0.00    -0.216 N 
ATOM     10  N   UNL     1     -33.879  21.894  -1.027  0.00  0.00    -0.075 NA
ATOM     11  N   UNL     1     -33.431  23.065  -1.266  0.00  0.00    -0.037 NA
ATOM     12  C   UNL     1     -34.868  23.337   1.987  0.00  0.00    +0.107 C 
ATOM     13  C   UNL     1     -35.564  20.989   2.030  0.00  0.00    +0.283 C 
ATOM     14  C   UNL     1     -34.353  23.172   0.777  0.00  0.00    +0.156 C 
ATOM     15  C   UNL     1     -34.472  21.846   0.217  0.00  0.00    +0.136 C 
ATOM     16  H   UNL     1     -33.470  24.788  -0.119  0.00  0.00    +0.174 HD
ENDBRANCH   3   7
BRANCH   2  17
ATOM     17  O   UNL     1     -35.280  20.787   5.486  0.00  0.00    -0.380 OA
ATOM     18  H   UNL     1     -34.510  20.477   5.988  0.00  0.00    +0.211 HD
ENDBRANCH   2  17
BRANCH   5  19
ATOM     19  C   UNL     1     -34.528  25.237   5.084  0.00  0.00    +0.183 C 
BRANCH  19  20
ATOM     20  O   UNL     1     -34.956  26.574   4.878  0.00  0.00    -0.271 OA
BRANCH  20  21
ATOM     21  P   UNL     1     -35.005  27.142   3.363  0.00  0.00    +0.473 P 
ATOM     22  O   UNL     1     -33.914  26.642   2.462  0.00  0.00    -0.227 OA
BRANCH  21  23
ATOM     23  O   UNL     1     -35.062  28.746   3.557  0.00  0.00    -0.303 OA
ATOM     24  H   UNL     1     -35.885  29.089   3.175  0.00  0.00    +0.222 HD
ENDBRANCH  21  23
BRANCH  21  25
ATOM     25  O   UNL     1     -36.506  26.771   2.889  0.00  0.00    -0.303 OA
ATOM     26  H   UNL     1     -36.596  26.942   1.939  0.00  0.00    +0.222 HD
ENDBRANCH  21  25
ENDBRANCH  20  21
ENDBRANCH  19  20
ENDBRANCH   5  19
TORSDOF 7
ENDMDL
MODEL 6
REMARK VINA RESULT:      -6.3      4.338      6.474
REMARK  Name = 196546
REMARK  7 active torsions:
REMARK  status: ('A' for Active; 'I' for Inactive)
REMARK    1  A    between atoms: C_2  and  O_17
REMARK    2  A    between atoms: C_3  and  N_7
REMARK    3  A    between atoms: C_5  and  C_19
REMARK    4  A    between atoms: C_19  and  O_20
REMARK    5  A    between atoms: O_20  and  P_21
REMARK    6  A    between atoms: P_21  and  O_23
REMARK    7  A    between atoms: P_21  and  O_25
REMARK                            x       y       z     vdW  Elec       q    Type
REMARK                         _______ _______ _______ _____ _____    ______ ____
ROOT
ATOM      1  O   UNL     1     -36.417  24.173   3.340  0.00  0.00    -0.335 OA
ATOM      2  C   UNL     1     -35.618  22.776   5.088  0.00  0.00    +0.161 C 
ATOM      3  C   UNL     1     -36.617  22.890   3.950  0.00  0.00    +0.234 C 
ATOM      4  C   UNL     1     -35.437  24.220   5.491  0.00  0.00    +0.066 C 
ATOM      5  C   UNL     1     -35.531  24.950   4.163  0.00  0.00    +0.150 C 
ENDROOT
BRANCH   3   7
ATOM      6  O   UNL     1     -38.554  22.146   2.038  0.00  0.00    -0.192 OA
ATOM      7  N   UNL     1     -36.443  21.868   2.956  0.00  0.00    -0.176 N 
ATOM      8  N   UNL     1     -37.250  20.545   1.076  0.00  0.00    -0.263 NA
ATOM      9  N   UNL     1     -34.088  19.356   1.626  0.00  0.00    -0.216 N 
ATOM     10  N   UNL     1     -35.676  18.953   0.277  0.00  0.00    -0.075 NA
ATOM     11  N   UNL     1     -34.489  18.594   0.578  0.00  0.00    -0.037 NA
ATOM     12  C   UNL     1     -35.229  21.179   2.920  0.00  0.00    +0.107 C 
ATOM     13  C   UNL     1     -37.477  21.548   2.017  0.00  0.00    +0.283 C 
ATOM     14  C   UNL     1     -35.015  20.227   2.023  0.00  0.00    +0.156 C 
ATOM     15  C   UNL     1     -36.104  19.963   1.112  0.00  0.00    +0.136 C 
ATOM     16  H   UNL     1     -33.203  19.274   2.049  0.00  0.00    +0.174 HD
ENDBRANCH   3   7
BRANCH   2  17
ATOM     17  O   UNL     1     -36.132  21.991   6.146  0.00  0.00    -0.380 OA
ATOM     18  H   UNL     1     -35.469  21.336   6.414  0.00  0.00    +0.211 HD
ENDBRANCH   2  17
BRANCH   5  19
ATOM     19  C   UNL     1     -34.189  25.071   3.451  0.00  0.00    +0.183 C 
BRANCH  19  20
ATOM     20  O   UNL     1     -33.242  25.629   4.348  0.00  0.00    -0.271 OA
BRANCH  20  21
ATOM     21  P   UNL     1     -33.078  27.238   4.394  0.00  0.00    +0.473 P 
ATOM     22  O   UNL     1     -34.166  28.006   3.703  0.00  0.00    -0.227 OA
BRANCH  21  23
ATOM     23  O   UNL     1     -31.586  27.488   3.824  0.00  0.00    -0.303 OA
ATOM     24  H   UNL     1     -31.519  27.131   2.924  0.00  0.00    +0.222 HD
ENDBRANCH  21  23
BRANCH  21  25
ATOM     25  O   UNL     1     -32.926  27.539   5.975  0.00  0.00    -0.303 OA
ATOM     26  H   UNL     1     -32.649  28.459   6.104  0.00  0.00    +0.222 HD
ENDBRANCH  21  25
ENDBRANCH  20  21
ENDBRANCH  19  20
ENDBRANCH   5  19
TORSDOF 7
ENDMDL
MODEL 7
REMARK VINA RESULT:      -6.3      3.046      5.330
REMARK  Name = 196546
REMARK  7 active torsions:
REMARK  status: ('A' for Active; 'I' for Inactive)
REMARK    1  A    between atoms: C_2  and  O_17
REMARK    2  A    between atoms: C_3  and  N_7
REMARK    3  A    between atoms: C_5  and  C_19
REMARK    4  A    between atoms: C_19  and  O_20
REMARK    5  A    between atoms: O_20  and  P_21
REMARK    6  A    between atoms: P_21  and  O_23
REMARK    7  A    between atoms: P_21  and  O_25
REMARK                            x       y       z     vdW  Elec       q    Type
REMARK                         _______ _______ _______ _____ _____    ______ ____
ROOT
ATOM      1  O   UNL     1     -38.758  25.198   0.717  0.00  0.00    -0.335 OA
ATOM      2  C   UNL     1     -40.137  23.666   1.900  0.00  0.00    +0.161 C 
ATOM      3  C   UNL     1     -38.716  23.972   1.462  0.00  0.00    +0.234 C 
ATOM      4  C   UNL     1     -40.949  24.311   0.801  0.00  0.00    +0.066 C 
ATOM      5  C   UNL     1     -40.130  25.545   0.465  0.00  0.00    +0.150 C 
ENDROOT
BRANCH   3   7
ATOM      6  O   UNL     1     -37.261  21.881   2.676  0.00  0.00    -0.192 OA
ATOM      7  N   UNL     1     -37.818  24.130   2.571  0.00  0.00    -0.176 N 
ATOM      8  N   UNL     1     -36.255  23.231   4.211  0.00  0.00    -0.263 NA
ATOM      9  N   UNL     1     -36.360  26.578   4.918  0.00  0.00    -0.216 N 
ATOM     10  N   UNL     1     -35.361  24.869   5.683  0.00  0.00    -0.075 NA
ATOM     11  N   UNL     1     -35.483  26.128   5.851  0.00  0.00    -0.037 NA
ATOM     12  C   UNL     1     -37.639  25.409   3.103  0.00  0.00    +0.107 C 
ATOM     13  C   UNL     1     -37.113  23.016   3.133  0.00  0.00    +0.283 C 
ATOM     14  C   UNL     1     -36.822  25.611   4.126  0.00  0.00    +0.156 C 
ATOM     15  C   UNL     1     -36.150  24.440   4.637  0.00  0.00    +0.136 C 
ATOM     16  H   UNL     1     -36.627  27.522   4.835  0.00  0.00    +0.174 HD
ENDBRANCH   3   7
BRANCH   2  17
ATOM     17  O   UNL     1     -40.362  22.272   1.975  0.00  0.00    -0.380 OA
ATOM     18  H   UNL     1     -39.603  21.801   1.595  0.00  0.00    +0.211 HD
ENDBRANCH   2  17
BRANCH   5  19
ATOM     19  C   UNL     1     -40.490  26.753   1.321  0.00  0.00    +0.183 C 
BRANCH  19  20
ATOM     20  O   UNL     1     -41.851  26.652   1.709  0.00  0.00    -0.271 OA
BRANCH  20  21
ATOM     21  P   UNL     1     -42.281  27.212   3.165  0.00  0.00    +0.473 P 
ATOM     22  O   UNL     1     -43.526  26.600   3.737  0.00  0.00    -0.227 OA
BRANCH  21  23
ATOM     23  O   UNL     1     -42.328  28.814   2.961  0.00  0.00    -0.303 OA
ATOM     24  H   UNL     1     -43.250  29.116   2.975  0.00  0.00    +0.222 HD
ENDBRANCH  21  23
BRANCH  21  25
ATOM     25  O   UNL     1     -40.943  26.988   4.045  0.00  0.00    -0.303 OA
ATOM     26  H   UNL     1     -40.165  27.230   3.518  0.00  0.00    +0.222 HD
ENDBRANCH  21  25
ENDBRANCH  20  21
ENDBRANCH  19  20
ENDBRANCH   5  19
TORSDOF 7
ENDMDL
MODEL 8
REMARK VINA RESULT:      -6.3      4.035      5.952
REMARK  Name = 196546
REMARK  7 active torsions:
REMARK  status: ('A' for Active; 'I' for Inactive)
REMARK    1  A    between atoms: C_2  and  O_17
REMARK    2  A    between atoms: C_3  and  N_7
REMARK    3  A    between atoms: C_5  and  C_19
REMARK    4  A    between atoms: C_19  and  O_20
REMARK    5  A    between atoms: O_20  and  P_21
REMARK    6  A    between atoms: P_21  and  O_23
REMARK    7  A    between atoms: P_21  and  O_25
REMARK                            x       y       z     vdW  Elec       q    Type
REMARK                         _______ _______ _______ _____ _____    ______ ____
ROOT
ATOM      1  O   UNL     1     -36.011  26.158   5.268  0.00  0.00    -0.335 OA
ATOM      2  C   UNL     1     -35.909  23.947   4.401  0.00  0.00    +0.161 C 
ATOM      3  C   UNL     1     -36.810  25.148   4.634  0.00  0.00    +0.234 C 
ATOM      4  C   UNL     1     -34.914  24.080   5.530  0.00  0.00    +0.066 C 
ATOM      5  C   UNL     1     -34.751  25.584   5.654  0.00  0.00    +0.150 C 
ENDROOT
BRANCH   3   7
ATOM      6  O   UNL     1     -39.301  24.429   3.522  0.00  0.00    -0.192 OA
ATOM      7  N   UNL     1     -37.350  25.678   3.413  0.00  0.00    -0.176 N 
ATOM      8  N   UNL     1     -39.099  25.810   1.723  0.00  0.00    -0.263 NA
ATOM      9  N   UNL     1     -36.719  28.010   0.623  0.00  0.00    -0.216 N 
ATOM     10  N   UNL     1     -38.619  27.332  -0.039  0.00  0.00    -0.075 NA
ATOM     11  N   UNL     1     -37.663  28.120  -0.346  0.00  0.00    -0.037 NA
ATOM     12  C   UNL     1     -36.599  26.621   2.710  0.00  0.00    +0.107 C 
ATOM     13  C   UNL     1     -38.627  25.261   2.914  0.00  0.00    +0.283 C 
ATOM     14  C   UNL     1     -37.051  27.142   1.578  0.00  0.00    +0.156 C 
ATOM     15  C   UNL     1     -38.344  26.672   1.140  0.00  0.00    +0.136 C 
ATOM     16  H   UNL     1     -35.876  28.518   0.620  0.00  0.00    +0.174 HD
ENDBRANCH   3   7
BRANCH   2  17
ATOM     17  O   UNL     1     -36.637  22.738   4.477  0.00  0.00    -0.380 OA
ATOM     18  H   UNL     1     -37.126  22.602   3.650  0.00  0.00    +0.211 HD
ENDBRANCH   2  17
BRANCH   5  19
ATOM     19  C   UNL     1     -33.664  26.145   4.746  0.00  0.00    +0.183 C 
BRANCH  19  20
ATOM     20  O   UNL     1     -33.576  27.547   4.947  0.00  0.00    -0.271 OA
BRANCH  20  21
ATOM     21  P   UNL     1     -32.206  28.153   5.560  0.00  0.00    +0.473 P 
ATOM     22  O   UNL     1     -32.261  29.609   5.917  0.00  0.00    -0.227 OA
BRANCH  21  23
ATOM     23  O   UNL     1     -31.085  27.750   4.467  0.00  0.00    -0.303 OA
ATOM     24  H   UNL     1     -30.268  27.490   4.922  0.00  0.00    +0.222 HD
ENDBRANCH  21  23
BRANCH  21  25
ATOM     25  O   UNL     1     -31.894  27.158   6.796  0.00  0.00    -0.303 OA
ATOM     26  H   UNL     1     -32.694  26.655   7.016  0.00  0.00    +0.222 HD
ENDBRANCH  21  25
ENDBRANCH  20  21
ENDBRANCH  19  20
ENDBRANCH   5  19
TORSDOF 7
ENDMDL
MODEL 9
REMARK VINA RESULT:      -6.2      5.834      8.447
REMARK  Name = 196546
REMARK  7 active torsions:
REMARK  status: ('A' for Active; 'I' for Inactive)
REMARK    1  A    between atoms: C_2  and  O_17
REMARK    2  A    between atoms: C_3  and  N_7
REMARK    3  A    between atoms: C_5  and  C_19
REMARK    4  A    between atoms: C_19  and  O_20
REMARK    5  A    between atoms: O_20  and  P_21
REMARK    6  A    between atoms: P_21  and  O_23
REMARK    7  A    between atoms: P_21  and  O_25
REMARK                            x       y       z     vdW  Elec       q    Type
REMARK                         _______ _______ _______ _____ _____    ______ ____
ROOT
ATOM      1  O   UNL     1     -42.008  27.942   2.406  0.00  0.00    -0.335 OA
ATOM      2  C   UNL     1     -43.736  26.312   2.458  0.00  0.00    +0.161 C 
ATOM      3  C   UNL     1     -42.411  26.694   1.823  0.00  0.00    +0.234 C 
ATOM      4  C   UNL     1     -44.324  27.663   2.792  0.00  0.00    +0.066 C 
ATOM      5  C   UNL     1     -43.098  28.472   3.178  0.00  0.00    +0.150 C 
ENDROOT
BRANCH   3   7
ATOM      6  O   UNL     1     -42.254  24.181   0.552  0.00  0.00    -0.192 OA
ATOM      7  N   UNL     1     -41.384  25.717   2.056  0.00  0.00    -0.176 N 
ATOM      8  N   UNL     1     -40.352  23.550   1.636  0.00  0.00    -0.263 NA
ATOM      9  N   UNL     1     -38.314  24.999   3.974  0.00  0.00    -0.216 N 
ATOM     10  N   UNL     1     -38.381  23.164   2.908  0.00  0.00    -0.075 NA
ATOM     11  N   UNL     1     -37.700  23.804   3.776  0.00  0.00    -0.037 NA
ATOM     12  C   UNL     1     -40.381  26.017   2.979  0.00  0.00    +0.107 C 
ATOM     13  C   UNL     1     -41.374  24.460   1.369  0.00  0.00    +0.283 C 
ATOM     14  C   UNL     1     -39.410  25.151   3.231  0.00  0.00    +0.156 C 
ATOM     15  C   UNL     1     -39.469  23.907   2.500  0.00  0.00    +0.136 C 
ATOM     16  H   UNL     1     -37.983  25.681   4.601  0.00  0.00    +0.174 HD
ENDBRANCH   3   7
BRANCH   2  17
ATOM     17  O   UNL     1     -44.549  25.591   1.554  0.00  0.00    -0.380 OA
ATOM     18  H   UNL     1     -44.551  24.652   1.799  0.00  0.00    +0.211 HD
ENDBRANCH   2  17
BRANCH   5  19
ATOM     19  C   UNL     1     -42.747  28.356   4.656  0.00  0.00    +0.183 C 
BRANCH  19  20
ATOM     20  O   UNL     1     -42.574  29.659   5.191  0.00  0.00    -0.271 OA
BRANCH  20  21
ATOM     21  P   UNL     1     -43.800  30.326   6.009  0.00  0.00    +0.473 P 
ATOM     22  O   UNL     1     -45.166  29.856   5.600  0.00  0.00    -0.227 OA
BRANCH  21  23
ATOM     23  O   UNL     1     -43.543  31.914   5.861  0.00  0.00    -0.303 OA
ATOM     24  H   UNL     1     -44.049  32.256   5.107  0.00  0.00    +0.222 HD
ENDBRANCH  21  23
BRANCH  21  25
ATOM     25  O   UNL     1     -43.408  30.028   7.549  0.00  0.00    -0.303 OA
ATOM     26  H   UNL     1     -43.754  29.160   7.809  0.00  0.00    +0.222 HD
ENDBRANCH  21  25
ENDBRANCH  20  21
ENDBRANCH  19  20
ENDBRANCH   5  19
TORSDOF 7
ENDMDL
