MODEL 1
REMARK VINA RESULT:      -5.9      0.000      0.000
REMARK  Name = 194031
REMARK  3 active torsions:
REMARK  status: ('A' for Active; 'I' for Inactive)
REMARK    1  A    between atoms: C_5  and  C_21
REMARK    2  A    between atoms: C_6  and  C_14
REMARK    3  A    between atoms: C_17  and  N_20
REMARK                            x       y       z     vdW  Elec       q    Type
REMARK                         _______ _______ _______ _____ _____    ______ ____
ROOT
ATOM      1  N   UNL     1     -36.366  22.091   2.447  0.00  0.00    -0.329 NA
ATOM      2  N   UNL     1     -35.222  20.625   3.980  0.00  0.00    -0.318 NA
ATOM      3  N   UNL     1     -34.575  21.404   6.122  0.00  0.00    -0.335 N 
ATOM      4  N   UNL     1     -35.874  19.875   1.854  0.00  0.00    -0.283 N 
ATOM      5  C   UNL     1     -35.713  22.892   4.621  0.00  0.00    +0.124 C 
ATOM      6  C   UNL     1     -36.295  23.062   3.381  0.00  0.00    +0.164 C 
ATOM      7  C   UNL     1     -35.187  21.640   4.867  0.00  0.00    +0.174 C 
ATOM      8  C   UNL     1     -35.818  20.915   2.808  0.00  0.00    +0.197 C 
ATOM      9  H   UNL     1     -34.192  20.519   6.325  0.00  0.00    +0.144 HD
ATOM     10  H   UNL     1     -34.531  22.123   6.793  0.00  0.00    +0.144 HD
ATOM     11  H   UNL     1     -36.297  20.031   0.979  0.00  0.00    +0.156 HD
ATOM     12  H   UNL     1     -35.488  18.993   2.064  0.00  0.00    +0.156 HD
ENDROOT
BRANCH   6  14
ATOM     13  O   UNL     1     -38.216  24.429   3.226  0.00  0.00    -0.431 OA
ATOM     14  C   UNL     1     -36.890  24.308   2.969  0.00  0.00    +0.174 C 
ATOM     15  C   UNL     1     -36.404  25.436   2.360  0.00  0.00    +0.045 C 
ATOM     16  C   UNL     1     -37.507  26.314   2.230  0.00  0.00    +0.066 C 
ATOM     17  C   UNL     1     -38.585  25.655   2.772  0.00  0.00    +0.289 C 
BRANCH  17  20
ATOM     18  O   UNL     1     -40.646  25.311   3.749  0.00  0.00    -0.123 OA
ATOM     19  O   UNL     1     -40.438  26.944   2.296  0.00  0.00    -0.123 OA
ATOM     20  N   UNL     1     -39.933  25.980   2.944  0.00  0.00    +0.093 N 
ENDBRANCH  17  20
ENDBRANCH   6  14
BRANCH   5  21
ATOM     21  C   UNL     1     -35.655  23.991   5.625  0.00  0.00    +0.016 C 
ATOM     22  C   UNL     1     -34.438  24.893   5.427  0.00  0.00    +0.001 C 
ENDBRANCH   5  21
TORSDOF 3
ENDMDL
MODEL 2
REMARK VINA RESULT:      -5.8      1.695      2.063
REMARK  Name = 194031
REMARK  3 active torsions:
REMARK  status: ('A' for Active; 'I' for Inactive)
REMARK    1  A    between atoms: C_5  and  C_21
REMARK    2  A    between atoms: C_6  and  C_14
REMARK    3  A    between atoms: C_17  and  N_20
REMARK                            x       y       z     vdW  Elec       q    Type
REMARK                         _______ _______ _______ _____ _____    ______ ____
ROOT
ATOM      1  N   UNL     1     -36.636  22.081   2.504  0.00  0.00    -0.329 NA
ATOM      2  N   UNL     1     -35.290  20.679   3.928  0.00  0.00    -0.318 NA
ATOM      3  N   UNL     1     -34.522  21.486   6.020  0.00  0.00    -0.335 N 
ATOM      4  N   UNL     1     -36.062  19.900   1.853  0.00  0.00    -0.283 N 
ATOM      5  C   UNL     1     -35.861  22.910   4.626  0.00  0.00    +0.124 C 
ATOM      6  C   UNL     1     -36.548  23.050   3.438  0.00  0.00    +0.164 C 
ATOM      7  C   UNL     1     -35.244  21.690   4.819  0.00  0.00    +0.174 C 
ATOM      8  C   UNL     1     -35.993  20.938   2.809  0.00  0.00    +0.197 C 
ATOM      9  H   UNL     1     -34.072  20.624   6.184  0.00  0.00    +0.144 HD
ATOM     10  H   UNL     1     -34.468  22.203   6.692  0.00  0.00    +0.144 HD
ATOM     11  H   UNL     1     -36.562  20.035   1.016  0.00  0.00    +0.156 HD
ATOM     12  H   UNL     1     -35.609  19.042   2.024  0.00  0.00    +0.156 HD
ENDROOT
BRANCH   6  14
ATOM     13  O   UNL     1     -36.479  25.228   2.523  0.00  0.00    -0.431 OA
ATOM     14  C   UNL     1     -37.246  24.261   3.085  0.00  0.00    +0.174 C 
ATOM     15  C   UNL     1     -38.552  24.669   3.189  0.00  0.00    +0.045 C 
ATOM     16  C   UNL     1     -38.592  25.980   2.657  0.00  0.00    +0.066 C 
ATOM     17  C   UNL     1     -37.307  26.273   2.265  0.00  0.00    +0.289 C 
BRANCH  17  20
ATOM     18  O   UNL     1     -35.445  27.512   1.704  0.00  0.00    -0.123 OA
ATOM     19  O   UNL     1     -37.419  28.271   1.118  0.00  0.00    -0.123 OA
ATOM     20  N   UNL     1     -36.704  27.388   1.677  0.00  0.00    +0.093 N 
ENDBRANCH  17  20
ENDBRANCH   6  14
BRANCH   5  21
ATOM     21  C   UNL     1     -35.789  24.006   5.632  0.00  0.00    +0.016 C 
ATOM     22  C   UNL     1     -34.581  24.916   5.412  0.00  0.00    +0.001 C 
ENDBRANCH   5  21
TORSDOF 3
ENDMDL
MODEL 3
REMARK VINA RESULT:      -5.7      3.233      5.037
REMARK  Name = 194031
REMARK  3 active torsions:
REMARK  status: ('A' for Active; 'I' for Inactive)
REMARK    1  A    between atoms: C_5  and  C_21
REMARK    2  A    between atoms: C_6  and  C_14
REMARK    3  A    between atoms: C_17  and  N_20
REMARK                            x       y       z     vdW  Elec       q    Type
REMARK                         _______ _______ _______ _____ _____    ______ ____
ROOT
ATOM      1  N   UNL     1     -37.618  25.526   3.930  0.00  0.00    -0.329 NA
ATOM      2  N   UNL     1     -38.720  23.667   2.864  0.00  0.00    -0.318 NA
ATOM      3  N   UNL     1     -37.592  21.598   2.604  0.00  0.00    -0.335 N 
ATOM      4  N   UNL     1     -39.817  25.724   3.133  0.00  0.00    -0.283 N 
ATOM      5  C   UNL     1     -36.465  23.430   3.671  0.00  0.00    +0.124 C 
ATOM      6  C   UNL     1     -36.532  24.743   4.090  0.00  0.00    +0.164 C 
ATOM      7  C   UNL     1     -37.600  22.940   3.057  0.00  0.00    +0.174 C 
ATOM      8  C   UNL     1     -38.661  24.933   3.318  0.00  0.00    +0.197 C 
ATOM      9  H   UNL     1     -38.390  21.223   2.163  0.00  0.00    +0.144 HD
ATOM     10  H   UNL     1     -36.792  21.040   2.729  0.00  0.00    +0.144 HD
ATOM     11  H   UNL     1     -39.830  26.657   3.445  0.00  0.00    +0.156 HD
ATOM     12  H   UNL     1     -40.609  25.341   2.691  0.00  0.00    +0.156 HD
ENDROOT
BRANCH   6  14
ATOM     13  O   UNL     1     -34.724  26.260   3.971  0.00  0.00    -0.431 OA
ATOM     14  C   UNL     1     -35.432  25.403   4.748  0.00  0.00    +0.174 C 
ATOM     15  C   UNL     1     -34.925  25.362   6.021  0.00  0.00    +0.045 C 
ATOM     16  C   UNL     1     -33.826  26.254   6.031  0.00  0.00    +0.066 C 
ATOM     17  C   UNL     1     -33.746  26.775   4.761  0.00  0.00    +0.289 C 
BRANCH  17  20
ATOM     18  O   UNL     1     -31.714  27.351   3.834  0.00  0.00    -0.123 OA
ATOM     19  O   UNL     1     -33.304  28.864   3.890  0.00  0.00    -0.123 OA
ATOM     20  N   UNL     1     -32.894  27.692   4.142  0.00  0.00    +0.093 N 
ENDBRANCH  17  20
ENDBRANCH   6  14
BRANCH   5  21
ATOM     21  C   UNL     1     -35.244  22.598   3.867  0.00  0.00    +0.016 C 
ATOM     22  C   UNL     1     -35.272  21.833   5.190  0.00  0.00    +0.001 C 
ENDBRANCH   5  21
TORSDOF 3
ENDMDL
MODEL 4
REMARK VINA RESULT:      -5.7      2.754      4.134
REMARK  Name = 194031
REMARK  3 active torsions:
REMARK  status: ('A' for Active; 'I' for Inactive)
REMARK    1  A    between atoms: C_5  and  C_21
REMARK    2  A    between atoms: C_6  and  C_14
REMARK    3  A    between atoms: C_17  and  N_20
REMARK                            x       y       z     vdW  Elec       q    Type
REMARK                         _______ _______ _______ _____ _____    ______ ____
ROOT
ATOM      1  N   UNL     1     -35.877  22.287   4.255  0.00  0.00    -0.329 NA
ATOM      2  N   UNL     1     -35.577  24.052   5.868  0.00  0.00    -0.318 NA
ATOM      3  N   UNL     1     -36.362  26.240   5.408  0.00  0.00    -0.335 N 
ATOM      4  N   UNL     1     -34.808  21.877   6.303  0.00  0.00    -0.283 N 
ATOM      5  C   UNL     1     -36.678  24.506   3.777  0.00  0.00    +0.124 C 
ATOM      6  C   UNL     1     -36.487  23.180   3.448  0.00  0.00    +0.164 C 
ATOM      7  C   UNL     1     -36.197  24.890   5.013  0.00  0.00    +0.174 C 
ATOM      8  C   UNL     1     -35.453  22.784   5.433  0.00  0.00    +0.197 C 
ATOM      9  H   UNL     1     -36.029  26.541   6.285  0.00  0.00    +0.144 HD
ATOM     10  H   UNL     1     -36.810  26.879   4.808  0.00  0.00    +0.144 HD
ATOM     11  H   UNL     1     -34.689  20.938   6.036  0.00  0.00    +0.156 HD
ATOM     12  H   UNL     1     -34.476  22.186   7.178  0.00  0.00    +0.156 HD
ENDROOT
BRANCH   6  14
ATOM     13  O   UNL     1     -38.161  22.048   2.222  0.00  0.00    -0.431 OA
ATOM     14  C   UNL     1     -36.932  22.621   2.196  0.00  0.00    +0.174 C 
ATOM     15  C   UNL     1     -36.378  22.538   0.944  0.00  0.00    +0.045 C 
ATOM     16  C   UNL     1     -37.330  21.864   0.142  0.00  0.00    +0.066 C 
ATOM     17  C   UNL     1     -38.396  21.588   0.965  0.00  0.00    +0.289 C 
BRANCH  17  20
ATOM     18  O   UNL     1     -39.816  20.233  -0.246  0.00  0.00    -0.123 OA
ATOM     19  O   UNL     1     -40.550  21.102   1.632  0.00  0.00    -0.123 OA
ATOM     20  N   UNL     1     -39.627  20.955   0.778  0.00  0.00    +0.093 N 
ENDBRANCH  17  20
ENDBRANCH   6  14
BRANCH   5  21
ATOM     21  C   UNL     1     -37.358  25.460   2.857  0.00  0.00    +0.016 C 
ATOM     22  C   UNL     1     -38.878  25.437   3.019  0.00  0.00    +0.001 C 
ENDBRANCH   5  21
TORSDOF 3
ENDMDL
MODEL 5
REMARK VINA RESULT:      -5.7      3.034      4.774
REMARK  Name = 194031
REMARK  3 active torsions:
REMARK  status: ('A' for Active; 'I' for Inactive)
REMARK    1  A    between atoms: C_5  and  C_21
REMARK    2  A    between atoms: C_6  and  C_14
REMARK    3  A    between atoms: C_17  and  N_20
REMARK                            x       y       z     vdW  Elec       q    Type
REMARK                         _______ _______ _______ _____ _____    ______ ____
ROOT
ATOM      1  N   UNL     1     -38.221  23.063   2.901  0.00  0.00    -0.329 NA
ATOM      2  N   UNL     1     -38.953  21.493   1.226  0.00  0.00    -0.318 NA
ATOM      3  N   UNL     1     -37.532  19.724   0.542  0.00  0.00    -0.335 N 
ATOM      4  N   UNL     1     -40.344  23.252   1.920  0.00  0.00    -0.283 N 
ATOM      5  C   UNL     1     -36.770  21.271   2.213  0.00  0.00    +0.124 C 
ATOM      6  C   UNL     1     -37.055  22.387   2.971  0.00  0.00    +0.164 C 
ATOM      7  C   UNL     1     -37.766  20.865   1.348  0.00  0.00    +0.174 C 
ATOM      8  C   UNL     1     -39.112  22.569   2.021  0.00  0.00    +0.197 C 
ATOM      9  H   UNL     1     -38.227  19.412  -0.084  0.00  0.00    +0.144 HD
ATOM     10  H   UNL     1     -36.676  19.242   0.605  0.00  0.00    +0.144 HD
ATOM     11  H   UNL     1     -40.514  24.045   2.476  0.00  0.00    +0.156 HD
ATOM     12  H   UNL     1     -41.033  22.934   1.291  0.00  0.00    +0.156 HD
ENDROOT
BRANCH   6  14
ATOM     13  O   UNL     1     -35.581  24.133   3.575  0.00  0.00    -0.431 OA
ATOM     14  C   UNL     1     -36.121  22.938   3.921  0.00  0.00    +0.174 C 
ATOM     15  C   UNL     1     -35.643  22.516   5.135  0.00  0.00    +0.045 C 
ATOM     16  C   UNL     1     -34.742  23.519   5.567  0.00  0.00    +0.066 C 
ATOM     17  C   UNL     1     -34.740  24.480   4.584  0.00  0.00    +0.289 C 
BRANCH  17  20
ATOM     18  O   UNL     1     -32.951  25.728   3.834  0.00  0.00    -0.123 OA
ATOM     19  O   UNL     1     -34.594  26.766   4.854  0.00  0.00    -0.123 OA
ATOM     20  N   UNL     1     -34.074  25.697   4.419  0.00  0.00    +0.093 N 
ENDBRANCH  17  20
ENDBRANCH   6  14
BRANCH   5  21
ATOM     21  C   UNL     1     -35.469  20.552   2.321  0.00  0.00    +0.016 C 
ATOM     22  C   UNL     1     -34.445  21.052   1.302  0.00  0.00    +0.001 C 
ENDBRANCH   5  21
TORSDOF 3
ENDMDL
MODEL 6
REMARK VINA RESULT:      -5.5      2.718      4.465
REMARK  Name = 194031
REMARK  3 active torsions:
REMARK  status: ('A' for Active; 'I' for Inactive)
REMARK    1  A    between atoms: C_5  and  C_21
REMARK    2  A    between atoms: C_6  and  C_14
REMARK    3  A    between atoms: C_17  and  N_20
REMARK                            x       y       z     vdW  Elec       q    Type
REMARK                         _______ _______ _______ _____ _____    ______ ____
ROOT
ATOM      1  N   UNL     1     -36.330  21.807   2.905  0.00  0.00    -0.329 NA
ATOM      2  N   UNL     1     -38.370  21.344   1.709  0.00  0.00    -0.318 NA
ATOM      3  N   UNL     1     -40.128  22.933   1.684  0.00  0.00    -0.335 N 
ATOM      4  N   UNL     1     -36.615  19.786   1.747  0.00  0.00    -0.283 N 
ATOM      5  C   UNL     1     -38.110  23.427   2.886  0.00  0.00    +0.124 C 
ATOM      6  C   UNL     1     -36.853  22.998   3.262  0.00  0.00    +0.164 C 
ATOM      7  C   UNL     1     -38.831  22.550   2.102  0.00  0.00    +0.174 C 
ATOM      8  C   UNL     1     -37.131  21.041   2.139  0.00  0.00    +0.197 C 
ATOM      9  H   UNL     1     -40.665  22.326   1.123  0.00  0.00    +0.144 HD
ATOM     10  H   UNL     1     -40.496  23.806   1.953  0.00  0.00    +0.144 HD
ATOM     11  H   UNL     1     -35.715  19.512   2.034  0.00  0.00    +0.156 HD
ATOM     12  H   UNL     1     -37.158  19.185   1.187  0.00  0.00    +0.156 HD
ENDROOT
BRANCH   6  14
ATOM     13  O   UNL     1     -35.247  24.724   3.411  0.00  0.00    -0.431 OA
ATOM     14  C   UNL     1     -35.975  23.796   4.080  0.00  0.00    +0.174 C 
ATOM     15  C   UNL     1     -35.702  23.834   5.424  0.00  0.00    +0.045 C 
ATOM     16  C   UNL     1     -34.737  24.854   5.596  0.00  0.00    +0.066 C 
ATOM     17  C   UNL     1     -34.494  25.365   4.343  0.00  0.00    +0.289 C 
BRANCH  17  20
ATOM     18  O   UNL     1     -32.586  26.070   3.254  0.00  0.00    -0.123 OA
ATOM     19  O   UNL     1     -33.981  27.589   4.006  0.00  0.00    -0.123 OA
ATOM     20  N   UNL     1     -33.660  26.373   3.852  0.00  0.00    +0.093 N 
ENDBRANCH  17  20
ENDBRANCH   6  14
BRANCH   5  21
ATOM     21  C   UNL     1     -38.651  24.751   3.302  0.00  0.00    +0.016 C 
ATOM     22  C   UNL     1     -38.331  25.851   2.291  0.00  0.00    +0.001 C 
ENDBRANCH   5  21
TORSDOF 3
ENDMDL
MODEL 7
REMARK VINA RESULT:      -5.4      2.813      3.899
REMARK  Name = 194031
REMARK  3 active torsions:
REMARK  status: ('A' for Active; 'I' for Inactive)
REMARK    1  A    between atoms: C_5  and  C_21
REMARK    2  A    between atoms: C_6  and  C_14
REMARK    3  A    between atoms: C_17  and  N_20
REMARK                            x       y       z     vdW  Elec       q    Type
REMARK                         _______ _______ _______ _____ _____    ______ ____
ROOT
ATOM      1  N   UNL     1     -34.382  24.441   2.115  0.00  0.00    -0.329 NA
ATOM      2  N   UNL     1     -33.338  25.915   3.709  0.00  0.00    -0.318 NA
ATOM      3  N   UNL     1     -33.900  25.782   6.008  0.00  0.00    -0.335 N 
ATOM      4  N   UNL     1     -32.796  26.029   1.429  0.00  0.00    -0.283 N 
ATOM      5  C   UNL     1     -34.960  24.298   4.447  0.00  0.00    +0.124 C 
ATOM      6  C   UNL     1     -35.079  23.895   3.132  0.00  0.00    +0.164 C 
ATOM      7  C   UNL     1     -34.065  25.323   4.678  0.00  0.00    +0.174 C 
ATOM      8  C   UNL     1     -33.542  25.432   2.469  0.00  0.00    +0.197 C 
ATOM      9  H   UNL     1     -33.267  26.512   6.202  0.00  0.00    +0.144 HD
ATOM     10  H   UNL     1     -34.415  25.372   6.739  0.00  0.00    +0.144 HD
ATOM     11  H   UNL     1     -32.906  25.716   0.502  0.00  0.00    +0.156 HD
ATOM     12  H   UNL     1     -32.166  26.759   1.630  0.00  0.00    +0.156 HD
ENDROOT
BRANCH   6  14
ATOM     13  O   UNL     1     -37.282  23.173   2.673  0.00  0.00    -0.431 OA
ATOM     14  C   UNL     1     -35.969  22.836   2.725  0.00  0.00    +0.174 C 
ATOM     15  C   UNL     1     -35.783  21.527   2.363  0.00  0.00    +0.045 C 
ATOM     16  C   UNL     1     -37.071  21.019   2.070  0.00  0.00    +0.066 C 
ATOM     17  C   UNL     1     -37.948  22.059   2.273  0.00  0.00    +0.289 C 
BRANCH  17  20
ATOM     18  O   UNL     1     -40.051  21.178   1.930  0.00  0.00    -0.123 OA
ATOM     19  O   UNL     1     -39.867  23.338   2.274  0.00  0.00    -0.123 OA
ATOM     20  N   UNL     1     -39.333  22.196   2.155  0.00  0.00    +0.093 N 
ENDBRANCH  17  20
ENDBRANCH   6  14
BRANCH   5  21
ATOM     21  C   UNL     1     -35.748  23.667   5.543  0.00  0.00    +0.016 C 
ATOM     22  C   UNL     1     -35.080  22.403   6.083  0.00  0.00    +0.001 C 
ENDBRANCH   5  21
TORSDOF 3
ENDMDL
MODEL 8
REMARK VINA RESULT:      -5.4      3.506      5.603
REMARK  Name = 194031
REMARK  3 active torsions:
REMARK  status: ('A' for Active; 'I' for Inactive)
REMARK    1  A    between atoms: C_5  and  C_21
REMARK    2  A    between atoms: C_6  and  C_14
REMARK    3  A    between atoms: C_17  and  N_20
REMARK                            x       y       z     vdW  Elec       q    Type
REMARK                         _______ _______ _______ _____ _____    ______ ____
ROOT
ATOM      1  N   UNL     1     -36.764  19.385   0.560  0.00  0.00    -0.329 NA
ATOM      2  N   UNL     1     -35.888  17.427  -0.539  0.00  0.00    -0.318 NA
ATOM      3  N   UNL     1     -33.580  16.909  -0.397  0.00  0.00    -0.335 N 
ATOM      4  N   UNL     1     -38.170  17.960  -0.665  0.00  0.00    -0.283 N 
ATOM      5  C   UNL     1     -34.419  18.867   0.710  0.00  0.00    +0.124 C 
ATOM      6  C   UNL     1     -35.516  19.653   0.995  0.00  0.00    +0.164 C 
ATOM      7  C   UNL     1     -34.667  17.755  -0.070  0.00  0.00    +0.174 C 
ATOM      8  C   UNL     1     -36.877  18.273  -0.191  0.00  0.00    +0.197 C 
ATOM      9  H   UNL     1     -33.729  16.108  -0.952  0.00  0.00    +0.144 HD
ATOM     10  H   UNL     1     -32.675  17.118  -0.071  0.00  0.00    +0.144 HD
ATOM     11  H   UNL     1     -38.931  18.544  -0.443  0.00  0.00    +0.156 HD
ATOM     12  H   UNL     1     -38.311  17.159  -1.220  0.00  0.00    +0.156 HD
ENDROOT
BRANCH   6  14
ATOM     13  O   UNL     1     -35.563  20.659   3.133  0.00  0.00    -0.431 OA
ATOM     14  C   UNL     1     -35.425  20.848   1.797  0.00  0.00    +0.174 C 
ATOM     15  C   UNL     1     -35.222  22.173   1.506  0.00  0.00    +0.045 C 
ATOM     16  C   UNL     1     -35.238  22.849   2.749  0.00  0.00    +0.066 C 
ATOM     17  C   UNL     1     -35.447  21.885   3.707  0.00  0.00    +0.289 C 
BRANCH  17  20
ATOM     18  O   UNL     1     -35.115  20.945   5.787  0.00  0.00    -0.123 OA
ATOM     19  O   UNL     1     -36.109  22.899   5.670  0.00  0.00    -0.123 OA
ATOM     20  N   UNL     1     -35.561  21.910   5.099  0.00  0.00    +0.093 N 
ENDBRANCH  17  20
ENDBRANCH   6  14
BRANCH   5  21
ATOM     21  C   UNL     1     -33.055  19.199   1.211  0.00  0.00    +0.016 C 
ATOM     22  C   UNL     1     -32.292  20.111   0.252  0.00  0.00    +0.001 C 
ENDBRANCH   5  21
TORSDOF 3
ENDMDL
MODEL 9
REMARK VINA RESULT:      -5.4      2.982      4.535
REMARK  Name = 194031
REMARK  3 active torsions:
REMARK  status: ('A' for Active; 'I' for Inactive)
REMARK    1  A    between atoms: C_5  and  C_21
REMARK    2  A    between atoms: C_6  and  C_14
REMARK    3  A    between atoms: C_17  and  N_20
REMARK                            x       y       z     vdW  Elec       q    Type
REMARK                         _______ _______ _______ _____ _____    ______ ____
ROOT
ATOM      1  N   UNL     1     -35.062  20.548   2.517  0.00  0.00    -0.329 NA
ATOM      2  N   UNL     1     -36.529  19.931   0.708  0.00  0.00    -0.318 NA
ATOM      3  N   UNL     1     -38.582  21.073   0.391  0.00  0.00    -0.335 N 
ATOM      4  N   UNL     1     -34.492  18.815   1.041  0.00  0.00    -0.283 N 
ATOM      5  C   UNL     1     -37.144  21.714   2.204  0.00  0.00    +0.124 C 
ATOM      6  C   UNL     1     -35.958  21.492   2.872  0.00  0.00    +0.164 C 
ATOM      7  C   UNL     1     -37.380  20.895   1.118  0.00  0.00    +0.174 C 
ATOM      8  C   UNL     1     -35.406  19.815   1.442  0.00  0.00    +0.197 C 
ATOM      9  H   UNL     1     -38.775  20.502  -0.389  0.00  0.00    +0.144 HD
ATOM     10  H   UNL     1     -39.225  21.767   0.663  0.00  0.00    +0.144 HD
ATOM     11  H   UNL     1     -33.654  18.685   1.542  0.00  0.00    +0.156 HD
ATOM     12  H   UNL     1     -34.692  18.248   0.261  0.00  0.00    +0.156 HD
ENDROOT
BRANCH   6  14
ATOM     13  O   UNL     1     -35.097  23.507   3.757  0.00  0.00    -0.431 OA
ATOM     14  C   UNL     1     -35.563  22.262   4.025  0.00  0.00    +0.174 C 
ATOM     15  C   UNL     1     -35.555  22.015   5.374  0.00  0.00    +0.045 C 
ATOM     16  C   UNL     1     -35.046  23.189   5.981  0.00  0.00    +0.066 C 
ATOM     17  C   UNL     1     -34.783  24.066   4.955  0.00  0.00    +0.289 C 
BRANCH  17  20
ATOM     18  O   UNL     1     -33.139  25.581   4.388  0.00  0.00    -0.123 OA
ATOM     19  O   UNL     1     -34.961  26.330   5.356  0.00  0.00    -0.123 OA
ATOM     20  N   UNL     1     -34.278  25.367   4.898  0.00  0.00    +0.093 N 
ENDBRANCH  17  20
ENDBRANCH   6  14
BRANCH   5  21
ATOM     21  C   UNL     1     -38.107  22.768   2.628  0.00  0.00    +0.016 C 
ATOM     22  C   UNL     1     -37.911  24.075   1.861  0.00  0.00    +0.001 C 
ENDBRANCH   5  21
TORSDOF 3
ENDMDL
