MODEL 1
REMARK VINA RESULT:      -5.4      0.000      0.000
REMARK  Name = 190862
REMARK  9 active torsions:
REMARK  status: ('A' for Active; 'I' for Inactive)
REMARK    1  A    between atoms: C_2  and  O_16
REMARK    2  A    between atoms: C_3  and  O_12
REMARK    3  A    between atoms: C_4  and  N_8
REMARK    4  A    between atoms: C_5  and  C_23
REMARK    5  A    between atoms: C_6  and  O_14
REMARK    6  A    between atoms: O_16  and  C_17
REMARK    7  A    between atoms: C_17  and  C_20
REMARK    8  A    between atoms: C_20  and  O_21
REMARK    9  A    between atoms: C_23  and  O_24
REMARK                            x       y       z     vdW  Elec       q    Type
REMARK                         _______ _______ _______ _____ _____    ______ ____
ROOT
ATOM      1  O   UNL     1     -36.540  24.211   5.539  0.00  0.00    -0.327 OA
ATOM      2  C   UNL     1     -36.450  23.011   3.395  0.00  0.00    +0.174 C 
ATOM      3  C   UNL     1     -36.173  24.336   2.675  0.00  0.00    +0.163 C 
ATOM      4  C   UNL     1     -36.615  25.549   3.504  0.00  0.00    +0.158 C 
ATOM      5  C   UNL     1     -36.072  23.024   4.886  0.00  0.00    +0.176 C 
ATOM      6  C   UNL     1     -36.107  25.433   4.947  0.00  0.00    +0.253 C 
ENDROOT
BRANCH   4   8
ATOM      7  O   UNL     1     -38.196  26.889   1.467  0.00  0.00    -0.275 OA
ATOM      8  N   UNL     1     -38.054  25.703   3.465  0.00  0.00    -0.299 N 
ATOM      9  C   UNL     1     -38.720  26.363   2.445  0.00  0.00    +0.223 C 
ATOM     10  C   UNL     1     -40.212  26.355   2.638  0.00  0.00    +0.095 C 
ATOM     11  H   UNL     1     -38.586  25.320   4.200  0.00  0.00    +0.150 HD
ENDBRANCH   4   8
BRANCH   3  12
ATOM     12  O   UNL     1     -34.775  24.430   2.408  0.00  0.00    -0.380 OA
ATOM     13  H   UNL     1     -34.565  23.923   1.608  0.00  0.00    +0.211 HD
ENDBRANCH   3  12
BRANCH   6  14
ATOM     14  O   UNL     1     -36.580  26.552   5.695  0.00  0.00    -0.359 OA
ATOM     15  H   UNL     1     -36.428  26.395   6.641  0.00  0.00    +0.213 HD
ENDBRANCH   6  14
BRANCH   2  16
ATOM     16  O   UNL     1     -37.853  22.746   3.290  0.00  0.00    -0.343 OA
BRANCH  16  17
ATOM     17  C   UNL     1     -38.210  22.369   1.968  0.00  0.00    +0.213 C 
ATOM     18  C   UNL     1     -37.514  21.058   1.650  0.00  0.00    +0.044 C 
BRANCH  17  20
ATOM     19  O   UNL     1     -40.486  23.110   1.554  0.00  0.00    -0.248 OA
ATOM     20  C   UNL     1     -39.715  22.224   1.900  0.00  0.00    +0.341 C 
BRANCH  20  21
ATOM     21  O   UNL     1     -40.128  20.980   2.254  0.00  0.00    -0.479 OA
ATOM     22  H   UNL     1     -40.774  20.873   2.924  0.00  0.00    +0.295 HD
ENDBRANCH  20  21
ENDBRANCH  17  20
ENDBRANCH  16  17
ENDBRANCH   2  16
BRANCH   5  23
ATOM     23  C   UNL     1     -34.582  22.804   5.144  0.00  0.00    +0.169 C 
BRANCH  23  24
ATOM     24  O   UNL     1     -34.434  21.682   5.993  0.00  0.00    -0.379 OA
ATOM     25  H   UNL     1     -34.860  20.911   5.588  0.00  0.00    +0.211 HD
ENDBRANCH  23  24
ENDBRANCH   5  23
TORSDOF 9
ENDMDL
MODEL 2
REMARK VINA RESULT:      -5.4      1.972      4.604
REMARK  Name = 190862
REMARK  9 active torsions:
REMARK  status: ('A' for Active; 'I' for Inactive)
REMARK    1  A    between atoms: C_2  and  O_16
REMARK    2  A    between atoms: C_3  and  O_12
REMARK    3  A    between atoms: C_4  and  N_8
REMARK    4  A    between atoms: C_5  and  C_23
REMARK    5  A    between atoms: C_6  and  O_14
REMARK    6  A    between atoms: O_16  and  C_17
REMARK    7  A    between atoms: C_17  and  C_20
REMARK    8  A    between atoms: C_20  and  O_21
REMARK    9  A    between atoms: C_23  and  O_24
REMARK                            x       y       z     vdW  Elec       q    Type
REMARK                         _______ _______ _______ _____ _____    ______ ____
ROOT
ATOM      1  O   UNL     1     -35.346  22.433   0.873  0.00  0.00    -0.327 OA
ATOM      2  C   UNL     1     -36.118  22.187   3.194  0.00  0.00    +0.174 C 
ATOM      3  C   UNL     1     -37.352  23.034   2.863  0.00  0.00    +0.163 C 
ATOM      4  C   UNL     1     -37.143  23.902   1.615  0.00  0.00    +0.158 C 
ATOM      5  C   UNL     1     -35.480  21.516   1.966  0.00  0.00    +0.176 C 
ATOM      6  C   UNL     1     -36.557  23.067   0.469  0.00  0.00    +0.253 C 
ENDROOT
BRANCH   4   8
ATOM      7  O   UNL     1     -37.997  26.594   2.295  0.00  0.00    -0.275 OA
ATOM      8  N   UNL     1     -36.304  25.043   1.915  0.00  0.00    -0.299 N 
ATOM      9  C   UNL     1     -36.808  26.294   2.229  0.00  0.00    +0.223 C 
ATOM     10  C   UNL     1     -35.720  27.292   2.522  0.00  0.00    +0.095 C 
ATOM     11  H   UNL     1     -35.326  24.924   1.894  0.00  0.00    +0.150 HD
ENDBRANCH   4   8
BRANCH   3  12
ATOM     12  O   UNL     1     -38.464  22.166   2.655  0.00  0.00    -0.380 OA
ATOM     13  H   UNL     1     -39.282  22.687   2.638  0.00  0.00    +0.211 HD
ENDBRANCH   3  12
BRANCH   6  14
ATOM     14  O   UNL     1     -36.330  23.917  -0.654  0.00  0.00    -0.359 OA
ATOM     15  H   UNL     1     -36.706  23.509  -1.450  0.00  0.00    +0.213 HD
ENDBRANCH   6  14
BRANCH   2  16
ATOM     16  O   UNL     1     -35.145  23.052   3.789  0.00  0.00    -0.343 OA
BRANCH  16  17
ATOM     17  C   UNL     1     -35.588  23.541   5.046  0.00  0.00    +0.213 C 
ATOM     18  C   UNL     1     -35.188  22.533   6.108  0.00  0.00    +0.044 C 
BRANCH  17  20
ATOM     19  O   UNL     1     -35.488  25.835   5.840  0.00  0.00    -0.248 OA
ATOM     20  C   UNL     1     -34.940  24.887   5.293  0.00  0.00    +0.341 C 
BRANCH  20  21
ATOM     21  O   UNL     1     -33.657  24.928   4.851  0.00  0.00    -0.479 OA
ATOM     22  H   UNL     1     -32.996  25.345   5.369  0.00  0.00    +0.295 HD
ENDBRANCH  20  21
ENDBRANCH  17  20
ENDBRANCH  16  17
ENDBRANCH   2  16
BRANCH   5  23
ATOM     23  C   UNL     1     -36.190  20.235   1.528  0.00  0.00    +0.169 C 
BRANCH  23  24
ATOM     24  O   UNL     1     -36.839  19.674   2.653  0.00  0.00    -0.379 OA
ATOM     25  H   UNL     1     -37.245  20.381   3.178  0.00  0.00    +0.211 HD
ENDBRANCH  23  24
ENDBRANCH   5  23
TORSDOF 9
ENDMDL
MODEL 3
REMARK VINA RESULT:      -5.4      1.993      2.249
REMARK  Name = 190862
REMARK  9 active torsions:
REMARK  status: ('A' for Active; 'I' for Inactive)
REMARK    1  A    between atoms: C_2  and  O_16
REMARK    2  A    between atoms: C_3  and  O_12
REMARK    3  A    between atoms: C_4  and  N_8
REMARK    4  A    between atoms: C_5  and  C_23
REMARK    5  A    between atoms: C_6  and  O_14
REMARK    6  A    between atoms: O_16  and  C_17
REMARK    7  A    between atoms: C_17  and  C_20
REMARK    8  A    between atoms: C_20  and  O_21
REMARK    9  A    between atoms: C_23  and  O_24
REMARK                            x       y       z     vdW  Elec       q    Type
REMARK                         _______ _______ _______ _____ _____    ______ ____
ROOT
ATOM      1  O   UNL     1     -36.667  24.365   5.136  0.00  0.00    -0.327 OA
ATOM      2  C   UNL     1     -35.176  23.362   3.457  0.00  0.00    +0.174 C 
ATOM      3  C   UNL     1     -34.461  24.709   3.301  0.00  0.00    +0.163 C 
ATOM      4  C   UNL     1     -35.324  25.883   3.785  0.00  0.00    +0.158 C 
ATOM      5  C   UNL     1     -35.904  23.198   4.802  0.00  0.00    +0.176 C 
ATOM      6  C   UNL     1     -35.925  25.580   5.163  0.00  0.00    +0.253 C 
ENDROOT
BRANCH   4   8
ATOM      7  O   UNL     1     -35.348  28.066   1.866  0.00  0.00    -0.275 OA
ATOM      8  N   UNL     1     -36.356  26.196   2.819  0.00  0.00    -0.299 N 
ATOM      9  C   UNL     1     -36.276  27.265   1.941  0.00  0.00    +0.223 C 
ATOM     10  C   UNL     1     -37.471  27.346   1.030  0.00  0.00    +0.095 C 
ATOM     11  H   UNL     1     -37.154  25.620   2.784  0.00  0.00    +0.150 HD
ENDBRANCH   4   8
BRANCH   3  12
ATOM     12  O   UNL     1     -33.248  24.675   4.050  0.00  0.00    -0.380 OA
ATOM     13  H   UNL     1     -33.444  24.455   4.974  0.00  0.00    +0.211 HD
ENDBRANCH   3  12
BRANCH   6  14
ATOM     14  O   UNL     1     -36.758  26.671   5.554  0.00  0.00    -0.359 OA
ATOM     15  H   UNL     1     -36.875  26.660   6.517  0.00  0.00    +0.213 HD
ENDBRANCH   6  14
BRANCH   2  16
ATOM     16  O   UNL     1     -36.145  23.262   2.408  0.00  0.00    -0.343 OA
BRANCH  16  17
ATOM     17  C   UNL     1     -37.095  22.242   2.677  0.00  0.00    +0.213 C 
ATOM     18  C   UNL     1     -38.454  22.733   2.212  0.00  0.00    +0.044 C 
BRANCH  17  20
ATOM     19  O   UNL     1     -36.364  20.954   0.751  0.00  0.00    -0.248 OA
ATOM     20  C   UNL     1     -36.678  20.990   1.934  0.00  0.00    +0.341 C 
BRANCH  20  21
ATOM     21  O   UNL     1     -36.671  19.895   2.736  0.00  0.00    -0.479 OA
ATOM     22  H   UNL     1     -36.001  19.248   2.640  0.00  0.00    +0.295 HD
ENDBRANCH  20  21
ENDBRANCH  17  20
ENDBRANCH  16  17
ENDBRANCH   2  16
BRANCH   5  23
ATOM     23  C   UNL     1     -34.982  22.794   5.953  0.00  0.00    +0.169 C 
BRANCH  23  24
ATOM     24  O   UNL     1     -34.873  21.384   5.967  0.00  0.00    -0.379 OA
ATOM     25  H   UNL     1     -34.691  21.082   6.870  0.00  0.00    +0.211 HD
ENDBRANCH  23  24
ENDBRANCH   5  23
TORSDOF 9
ENDMDL
MODEL 4
REMARK VINA RESULT:      -5.3      2.628      5.585
REMARK  Name = 190862
REMARK  9 active torsions:
REMARK  status: ('A' for Active; 'I' for Inactive)
REMARK    1  A    between atoms: C_2  and  O_16
REMARK    2  A    between atoms: C_3  and  O_12
REMARK    3  A    between atoms: C_4  and  N_8
REMARK    4  A    between atoms: C_5  and  C_23
REMARK    5  A    between atoms: C_6  and  O_14
REMARK    6  A    between atoms: O_16  and  C_17
REMARK    7  A    between atoms: C_17  and  C_20
REMARK    8  A    between atoms: C_20  and  O_21
REMARK    9  A    between atoms: C_23  and  O_24
REMARK                            x       y       z     vdW  Elec       q    Type
REMARK                         _______ _______ _______ _____ _____    ______ ____
ROOT
ATOM      1  O   UNL     1     -34.565  23.428   5.393  0.00  0.00    -0.327 OA
ATOM      2  C   UNL     1     -35.379  24.707   3.459  0.00  0.00    +0.174 C 
ATOM      3  C   UNL     1     -36.510  23.689   3.273  0.00  0.00    +0.163 C 
ATOM      4  C   UNL     1     -36.196  22.345   3.943  0.00  0.00    +0.158 C 
ATOM      5  C   UNL     1     -34.808  24.746   4.886  0.00  0.00    +0.176 C 
ATOM      6  C   UNL     1     -35.695  22.560   5.377  0.00  0.00    +0.253 C 
ENDROOT
BRANCH   4   8
ATOM      7  O   UNL     1     -36.744  20.158   2.111  0.00  0.00    -0.275 OA
ATOM      8  N   UNL     1     -35.239  21.590   3.161  0.00  0.00    -0.299 N 
ATOM      9  C   UNL     1     -35.600  20.558   2.310  0.00  0.00    +0.223 C 
ATOM     10  C   UNL     1     -34.415  19.961   1.601  0.00  0.00    +0.095 C 
ATOM     11  H   UNL     1     -34.285  21.822   3.237  0.00  0.00    +0.150 HD
ENDBRANCH   4   8
BRANCH   3  12
ATOM     12  O   UNL     1     -37.708  24.226   3.829  0.00  0.00    -0.380 OA
ATOM     13  H   UNL     1     -37.498  25.021   4.344  0.00  0.00    +0.211 HD
ENDBRANCH   3  12
BRANCH   6  14
ATOM     14  O   UNL     1     -35.367  21.294   5.947  0.00  0.00    -0.359 OA
ATOM     15  H   UNL     1     -35.864  21.172   6.771  0.00  0.00    +0.213 HD
ENDBRANCH   6  14
BRANCH   2  16
ATOM     16  O   UNL     1     -34.323  24.350   2.562  0.00  0.00    -0.343 OA
BRANCH  16  17
ATOM     17  C   UNL     1     -33.936  25.452   1.754  0.00  0.00    +0.213 C 
ATOM     18  C   UNL     1     -34.928  26.577   1.988  0.00  0.00    +0.044 C 
BRANCH  17  20
ATOM     19  O   UNL     1     -32.237  26.417   3.197  0.00  0.00    -0.248 OA
ATOM     20  C   UNL     1     -32.533  25.865   2.145  0.00  0.00    +0.341 C 
BRANCH  20  21
ATOM     21  O   UNL     1     -31.617  25.536   1.199  0.00  0.00    -0.479 OA
ATOM     22  H   UNL     1     -31.004  26.177   0.896  0.00  0.00    +0.295 HD
ENDBRANCH  20  21
ENDBRANCH  17  20
ENDBRANCH  16  17
ENDBRANCH   2  16
BRANCH   5  23
ATOM     23  C   UNL     1     -35.651  25.566   5.863  0.00  0.00    +0.169 C 
BRANCH  23  24
ATOM     24  O   UNL     1     -36.335  26.567   5.134  0.00  0.00    -0.379 OA
ATOM     25  H   UNL     1     -35.742  27.320   4.982  0.00  0.00    +0.211 HD
ENDBRANCH  23  24
ENDBRANCH   5  23
TORSDOF 9
ENDMDL
MODEL 5
REMARK VINA RESULT:      -5.2      2.574      5.347
REMARK  Name = 190862
REMARK  9 active torsions:
REMARK  status: ('A' for Active; 'I' for Inactive)
REMARK    1  A    between atoms: C_2  and  O_16
REMARK    2  A    between atoms: C_3  and  O_12
REMARK    3  A    between atoms: C_4  and  N_8
REMARK    4  A    between atoms: C_5  and  C_23
REMARK    5  A    between atoms: C_6  and  O_14
REMARK    6  A    between atoms: O_16  and  C_17
REMARK    7  A    between atoms: C_17  and  C_20
REMARK    8  A    between atoms: C_20  and  O_21
REMARK    9  A    between atoms: C_23  and  O_24
REMARK                            x       y       z     vdW  Elec       q    Type
REMARK                         _______ _______ _______ _____ _____    ______ ____
ROOT
ATOM      1  O   UNL     1     -34.561  23.416   5.177  0.00  0.00    -0.327 OA
ATOM      2  C   UNL     1     -35.539  24.785   3.384  0.00  0.00    +0.174 C 
ATOM      3  C   UNL     1     -36.616  23.716   3.168  0.00  0.00    +0.163 C 
ATOM      4  C   UNL     1     -36.193  22.347   3.718  0.00  0.00    +0.158 C 
ATOM      5  C   UNL     1     -34.904  24.751   4.785  0.00  0.00    +0.176 C 
ATOM      6  C   UNL     1     -35.638  22.484   5.141  0.00  0.00    +0.253 C 
ENDROOT
BRANCH   4   8
ATOM      7  O   UNL     1     -36.486  19.827   2.300  0.00  0.00    -0.275 OA
ATOM      8  N   UNL     1     -35.232  21.713   2.840  0.00  0.00    -0.299 N 
ATOM      9  C   UNL     1     -35.465  20.503   2.206  0.00  0.00    +0.223 C 
ATOM     10  C   UNL     1     -34.314  20.085   1.332  0.00  0.00    +0.095 C 
ATOM     11  H   UNL     1     -34.370  22.164   2.685  0.00  0.00    +0.150 HD
ENDBRANCH   4   8
BRANCH   3  12
ATOM     12  O   UNL     1     -37.816  24.134   3.815  0.00  0.00    -0.380 OA
ATOM     13  H   UNL     1     -38.092  24.994   3.459  0.00  0.00    +0.211 HD
ENDBRANCH   3  12
BRANCH   6  14
ATOM     14  O   UNL     1     -35.211  21.201   5.597  0.00  0.00    -0.359 OA
ATOM     15  H   UNL     1     -34.828  20.706   4.857  0.00  0.00    +0.213 HD
ENDBRANCH   6  14
BRANCH   2  16
ATOM     16  O   UNL     1     -34.507  24.562   2.418  0.00  0.00    -0.343 OA
BRANCH  16  17
ATOM     17  C   UNL     1     -33.662  25.696   2.292  0.00  0.00    +0.213 C 
ATOM     18  C   UNL     1     -32.640  25.402   1.209  0.00  0.00    +0.044 C 
BRANCH  17  20
ATOM     19  O   UNL     1     -35.075  27.052   0.854  0.00  0.00    -0.248 OA
ATOM     20  C   UNL     1     -34.517  26.893   1.932  0.00  0.00    +0.341 C 
BRANCH  20  21
ATOM     21  O   UNL     1     -34.617  27.779   2.955  0.00  0.00    -0.479 OA
ATOM     22  H   UNL     1     -35.455  28.122   3.198  0.00  0.00    +0.295 HD
ENDBRANCH  20  21
ENDBRANCH  17  20
ENDBRANCH  16  17
ENDBRANCH   2  16
BRANCH   5  23
ATOM     23  C   UNL     1     -35.746  25.442   5.857  0.00  0.00    +0.169 C 
BRANCH  23  24
ATOM     24  O   UNL     1     -36.401  26.550   5.269  0.00  0.00    -0.379 OA
ATOM     25  H   UNL     1     -36.058  26.691   4.373  0.00  0.00    +0.211 HD
ENDBRANCH  23  24
ENDBRANCH   5  23
TORSDOF 9
ENDMDL
MODEL 6
REMARK VINA RESULT:      -5.1      2.662      4.927
REMARK  Name = 190862
REMARK  9 active torsions:
REMARK  status: ('A' for Active; 'I' for Inactive)
REMARK    1  A    between atoms: C_2  and  O_16
REMARK    2  A    between atoms: C_3  and  O_12
REMARK    3  A    between atoms: C_4  and  N_8
REMARK    4  A    between atoms: C_5  and  C_23
REMARK    5  A    between atoms: C_6  and  O_14
REMARK    6  A    between atoms: O_16  and  C_17
REMARK    7  A    between atoms: C_17  and  C_20
REMARK    8  A    between atoms: C_20  and  O_21
REMARK    9  A    between atoms: C_23  and  O_24
REMARK                            x       y       z     vdW  Elec       q    Type
REMARK                         _______ _______ _______ _____ _____    ______ ____
ROOT
ATOM      1  O   UNL     1     -34.357  23.565   5.313  0.00  0.00    -0.327 OA
ATOM      2  C   UNL     1     -35.369  24.643   3.349  0.00  0.00    +0.174 C 
ATOM      3  C   UNL     1     -36.485  23.592   3.359  0.00  0.00    +0.163 C 
ATOM      4  C   UNL     1     -36.079  22.323   4.119  0.00  0.00    +0.158 C 
ATOM      5  C   UNL     1     -34.677  24.825   4.711  0.00  0.00    +0.176 C 
ATOM      6  C   UNL     1     -35.461  22.680   5.477  0.00  0.00    +0.253 C 
ENDROOT
BRANCH   4   8
ATOM      7  O   UNL     1     -36.778  20.291   2.163  0.00  0.00    -0.275 OA
ATOM      8  N   UNL     1     -35.176  21.514   3.327  0.00  0.00    -0.299 N 
ATOM      9  C   UNL     1     -35.607  20.565   2.415  0.00  0.00    +0.223 C 
ATOM     10  C   UNL     1     -34.463  19.888   1.711  0.00  0.00    +0.095 C 
ATOM     11  H   UNL     1     -34.207  21.646   3.443  0.00  0.00    +0.150 HD
ENDBRANCH   4   8
BRANCH   3  12
ATOM     12  O   UNL     1     -37.644  24.158   3.969  0.00  0.00    -0.380 OA
ATOM     13  H   UNL     1     -37.503  24.230   4.926  0.00  0.00    +0.211 HD
ENDBRANCH   3  12
BRANCH   6  14
ATOM     14  O   UNL     1     -35.052  21.478   6.129  0.00  0.00    -0.359 OA
ATOM     15  H   UNL     1     -34.096  21.361   6.021  0.00  0.00    +0.213 HD
ENDBRANCH   6  14
BRANCH   2  16
ATOM     16  O   UNL     1     -34.386  24.222   2.398  0.00  0.00    -0.343 OA
BRANCH  16  17
ATOM     17  C   UNL     1     -34.763  24.572   1.075  0.00  0.00    +0.213 C 
ATOM     18  C   UNL     1     -33.858  25.699   0.612  0.00  0.00    +0.044 C 
BRANCH  17  20
ATOM     19  O   UNL     1     -35.542  22.771  -0.357  0.00  0.00    -0.248 OA
ATOM     20  C   UNL     1     -34.615  23.350   0.194  0.00  0.00    +0.341 C 
BRANCH  20  21
ATOM     21  O   UNL     1     -33.320  22.965   0.063  0.00  0.00    -0.479 OA
ATOM     22  H   UNL     1     -32.841  23.188  -0.711  0.00  0.00    +0.295 HD
ENDBRANCH  20  21
ENDBRANCH  17  20
ENDBRANCH  16  17
ENDBRANCH   2  16
BRANCH   5  23
ATOM     23  C   UNL     1     -35.452  25.718   5.679  0.00  0.00    +0.169 C 
BRANCH  23  24
ATOM     24  O   UNL     1     -36.133  26.707   4.931  0.00  0.00    -0.379 OA
ATOM     25  H   UNL     1     -36.896  27.027   5.436  0.00  0.00    +0.211 HD
ENDBRANCH  23  24
ENDBRANCH   5  23
TORSDOF 9
ENDMDL
MODEL 7
REMARK VINA RESULT:      -5.1      2.195      5.611
REMARK  Name = 190862
REMARK  9 active torsions:
REMARK  status: ('A' for Active; 'I' for Inactive)
REMARK    1  A    between atoms: C_2  and  O_16
REMARK    2  A    between atoms: C_3  and  O_12
REMARK    3  A    between atoms: C_4  and  N_8
REMARK    4  A    between atoms: C_5  and  C_23
REMARK    5  A    between atoms: C_6  and  O_14
REMARK    6  A    between atoms: O_16  and  C_17
REMARK    7  A    between atoms: C_17  and  C_20
REMARK    8  A    between atoms: C_20  and  O_21
REMARK    9  A    between atoms: C_23  and  O_24
REMARK                            x       y       z     vdW  Elec       q    Type
REMARK                         _______ _______ _______ _____ _____    ______ ____
ROOT
ATOM      1  O   UNL     1     -38.150  22.968   3.375  0.00  0.00    -0.327 OA
ATOM      2  C   UNL     1     -36.618  24.715   2.571  0.00  0.00    +0.174 C 
ATOM      3  C   UNL     1     -36.563  24.024   1.204  0.00  0.00    +0.163 C 
ATOM      4  C   UNL     1     -36.974  22.548   1.283  0.00  0.00    +0.158 C 
ATOM      5  C   UNL     1     -37.877  24.375   3.387  0.00  0.00    +0.176 C 
ATOM      6  C   UNL     1     -38.276  22.392   2.078  0.00  0.00    +0.253 C 
ENDROOT
BRANCH   4   8
ATOM      7  O   UNL     1     -36.162  19.871   0.498  0.00  0.00    -0.275 OA
ATOM      8  N   UNL     1     -35.911  21.746   1.854  0.00  0.00    -0.299 N 
ATOM      9  C   UNL     1     -35.599  20.472   1.408  0.00  0.00    +0.223 C 
ATOM     10  C   UNL     1     -34.438  19.875   2.156  0.00  0.00    +0.095 C 
ATOM     11  H   UNL     1     -35.386  22.126   2.595  0.00  0.00    +0.150 HD
ENDBRANCH   4   8
BRANCH   3  12
ATOM     12  O   UNL     1     -37.433  24.710   0.306  0.00  0.00    -0.380 OA
ATOM     13  H   UNL     1     -38.300  24.830   0.725  0.00  0.00    +0.211 HD
ENDBRANCH   3  12
BRANCH   6  14
ATOM     14  O   UNL     1     -38.598  21.005   2.172  0.00  0.00    -0.359 OA
ATOM     15  H   UNL     1     -38.153  20.521   1.459  0.00  0.00    +0.213 HD
ENDBRANCH   6  14
BRANCH   2  16
ATOM     16  O   UNL     1     -35.473  24.293   3.317  0.00  0.00    -0.343 OA
BRANCH  16  17
ATOM     17  C   UNL     1     -35.606  24.611   4.695  0.00  0.00    +0.213 C 
ATOM     18  C   UNL     1     -35.087  23.434   5.500  0.00  0.00    +0.044 C 
BRANCH  17  20
ATOM     19  O   UNL     1     -33.614  25.886   5.250  0.00  0.00    -0.248 OA
ATOM     20  C   UNL     1     -34.807  25.866   4.977  0.00  0.00    +0.341 C 
BRANCH  20  21
ATOM     21  O   UNL     1     -35.562  26.990   4.875  0.00  0.00    -0.479 OA
ATOM     22  H   UNL     1     -36.491  26.943   4.992  0.00  0.00    +0.295 HD
ENDBRANCH  20  21
ENDBRANCH  17  20
ENDBRANCH  16  17
ENDBRANCH   2  16
BRANCH   5  23
ATOM     23  C   UNL     1     -39.110  25.179   2.977  0.00  0.00    +0.169 C 
BRANCH  23  24
ATOM     24  O   UNL     1     -38.918  26.526   3.366  0.00  0.00    -0.379 OA
ATOM     25  H   UNL     1     -38.020  26.805   3.133  0.00  0.00    +0.211 HD
ENDBRANCH  23  24
ENDBRANCH   5  23
TORSDOF 9
ENDMDL
MODEL 8
REMARK VINA RESULT:      -5.0      2.522      3.827
REMARK  Name = 190862
REMARK  9 active torsions:
REMARK  status: ('A' for Active; 'I' for Inactive)
REMARK    1  A    between atoms: C_2  and  O_16
REMARK    2  A    between atoms: C_3  and  O_12
REMARK    3  A    between atoms: C_4  and  N_8
REMARK    4  A    between atoms: C_5  and  C_23
REMARK    5  A    between atoms: C_6  and  O_14
REMARK    6  A    between atoms: O_16  and  C_17
REMARK    7  A    between atoms: C_17  and  C_20
REMARK    8  A    between atoms: C_20  and  O_21
REMARK    9  A    between atoms: C_23  and  O_24
REMARK                            x       y       z     vdW  Elec       q    Type
REMARK                         _______ _______ _______ _____ _____    ______ ____
ROOT
ATOM      1  O   UNL     1     -35.512  25.917   5.719  0.00  0.00    -0.327 OA
ATOM      2  C   UNL     1     -36.491  25.016   3.651  0.00  0.00    +0.174 C 
ATOM      3  C   UNL     1     -35.214  25.395   2.893  0.00  0.00    +0.163 C 
ATOM      4  C   UNL     1     -34.406  26.477   3.622  0.00  0.00    +0.158 C 
ATOM      5  C   UNL     1     -36.285  24.844   5.166  0.00  0.00    +0.176 C 
ATOM      6  C   UNL     1     -34.243  26.122   5.105  0.00  0.00    +0.253 C 
ENDROOT
BRANCH   4   8
ATOM      7  O   UNL     1     -33.227  28.851   2.432  0.00  0.00    -0.275 OA
ATOM      8  N   UNL     1     -35.020  27.778   3.458  0.00  0.00    -0.299 N 
ATOM      9  C   UNL     1     -34.372  28.855   2.875  0.00  0.00    +0.223 C 
ATOM     10  C   UNL     1     -35.246  30.078   2.806  0.00  0.00    +0.095 C 
ATOM     11  H   UNL     1     -35.943  27.903   3.776  0.00  0.00    +0.150 HD
ENDBRANCH   4   8
BRANCH   3  12
ATOM     12  O   UNL     1     -34.409  24.229   2.736  0.00  0.00    -0.380 OA
ATOM     13  H   UNL     1     -33.472  24.481   2.731  0.00  0.00    +0.211 HD
ENDBRANCH   3  12
BRANCH   6  14
ATOM     14  O   UNL     1     -33.531  27.173   5.757  0.00  0.00    -0.359 OA
ATOM     15  H   UNL     1     -34.003  27.431   6.564  0.00  0.00    +0.213 HD
ENDBRANCH   6  14
BRANCH   2  16
ATOM     16  O   UNL     1     -37.445  26.063   3.445  0.00  0.00    -0.343 OA
BRANCH  16  17
ATOM     17  C   UNL     1     -38.380  25.719   2.433  0.00  0.00    +0.213 C 
ATOM     18  C   UNL     1     -39.773  25.816   3.030  0.00  0.00    +0.044 C 
BRANCH  17  20
ATOM     19  O   UNL     1     -38.648  26.494   0.147  0.00  0.00    -0.248 OA
ATOM     20  C   UNL     1     -38.209  26.678   1.274  0.00  0.00    +0.341 C 
BRANCH  20  21
ATOM     21  O   UNL     1     -37.521  27.793   1.628  0.00  0.00    -0.479 OA
ATOM     22  H   UNL     1     -37.377  28.475   1.001  0.00  0.00    +0.295 HD
ENDBRANCH  20  21
ENDBRANCH  17  20
ENDBRANCH  16  17
ENDBRANCH   2  16
BRANCH   5  23
ATOM     23  C   UNL     1     -35.701  23.486   5.555  0.00  0.00    +0.169 C 
BRANCH  23  24
ATOM     24  O   UNL     1     -36.269  22.497   4.718  0.00  0.00    -0.379 OA
ATOM     25  H   UNL     1     -35.788  21.662   4.832  0.00  0.00    +0.211 HD
ENDBRANCH  23  24
ENDBRANCH   5  23
TORSDOF 9
ENDMDL
MODEL 9
REMARK VINA RESULT:      -4.9      1.683      4.308
REMARK  Name = 190862
REMARK  9 active torsions:
REMARK  status: ('A' for Active; 'I' for Inactive)
REMARK    1  A    between atoms: C_2  and  O_16
REMARK    2  A    between atoms: C_3  and  O_12
REMARK    3  A    between atoms: C_4  and  N_8
REMARK    4  A    between atoms: C_5  and  C_23
REMARK    5  A    between atoms: C_6  and  O_14
REMARK    6  A    between atoms: O_16  and  C_17
REMARK    7  A    between atoms: C_17  and  C_20
REMARK    8  A    between atoms: C_20  and  O_21
REMARK    9  A    between atoms: C_23  and  O_24
REMARK                            x       y       z     vdW  Elec       q    Type
REMARK                         _______ _______ _______ _____ _____    ______ ____
ROOT
ATOM      1  O   UNL     1     -35.652  25.216   1.281  0.00  0.00    -0.327 OA
ATOM      2  C   UNL     1     -37.904  24.893   2.211  0.00  0.00    +0.174 C 
ATOM      3  C   UNL     1     -37.329  25.028   3.626  0.00  0.00    +0.163 C 
ATOM      4  C   UNL     1     -35.820  24.754   3.667  0.00  0.00    +0.158 C 
ATOM      5  C   UNL     1     -37.037  25.550   1.124  0.00  0.00    +0.176 C 
ATOM      6  C   UNL     1     -35.099  25.529   2.556  0.00  0.00    +0.253 C 
ENDROOT
BRANCH   4   8
ATOM      7  O   UNL     1     -35.961  22.787   5.801  0.00  0.00    -0.275 OA
ATOM      8  N   UNL     1     -35.551  23.334   3.575  0.00  0.00    -0.299 N 
ATOM      9  C   UNL     1     -35.646  22.472   4.656  0.00  0.00    +0.223 C 
ATOM     10  C   UNL     1     -35.339  21.048   4.279  0.00  0.00    +0.095 C 
ATOM     11  H   UNL     1     -35.288  22.963   2.702  0.00  0.00    +0.150 HD
ENDBRANCH   4   8
BRANCH   3  12
ATOM     12  O   UNL     1     -37.583  26.349   4.101  0.00  0.00    -0.380 OA
ATOM     13  H   UNL     1     -38.486  26.610   3.862  0.00  0.00    +0.211 HD
ENDBRANCH   3  12
BRANCH   6  14
ATOM     14  O   UNL     1     -33.709  25.209   2.596  0.00  0.00    -0.359 OA
ATOM     15  H   UNL     1     -33.229  25.777   1.974  0.00  0.00    +0.213 HD
ENDBRANCH   6  14
BRANCH   2  16
ATOM     16  O   UNL     1     -38.010  23.496   1.918  0.00  0.00    -0.343 OA
BRANCH  16  17
ATOM     17  C   UNL     1     -39.276  22.981   2.305  0.00  0.00    +0.213 C 
ATOM     18  C   UNL     1     -40.348  23.808   1.619  0.00  0.00    +0.044 C 
BRANCH  17  20
ATOM     19  O   UNL     1     -40.296  21.019   1.301  0.00  0.00    -0.248 OA
ATOM     20  C   UNL     1     -39.350  21.528   1.889  0.00  0.00    +0.341 C 
BRANCH  20  21
ATOM     21  O   UNL     1     -38.230  20.839   2.224  0.00  0.00    -0.479 OA
ATOM     22  H   UNL     1     -37.467  21.298   2.518  0.00  0.00    +0.295 HD
ENDBRANCH  20  21
ENDBRANCH  17  20
ENDBRANCH  16  17
ENDBRANCH   2  16
BRANCH   5  23
ATOM     23  C   UNL     1     -37.231  27.061   1.013  0.00  0.00    +0.169 C 
BRANCH  23  24
ATOM     24  O   UNL     1     -38.562  27.371   1.379  0.00  0.00    -0.379 OA
ATOM     25  H   UNL     1     -38.682  28.333   1.381  0.00  0.00    +0.211 HD
ENDBRANCH  23  24
ENDBRANCH   5  23
TORSDOF 9
ENDMDL
