MODEL 1
REMARK VINA RESULT:      -5.1      0.000      0.000
REMARK  Name = 5748410
REMARK  11 active torsions:
REMARK  status: ('A' for Active; 'I' for Inactive)
REMARK    1  A    between atoms: C_1  and  O_2
REMARK    2  A    between atoms: C_1  and  C_4
REMARK    3  A    between atoms: C_1  and  C_15
REMARK    4  A    between atoms: C_4  and  O_5
REMARK    5  A    between atoms: C_4  and  C_7
REMARK    6  A    between atoms: C_7  and  C_8
REMARK    7  A    between atoms: C_7  and  C_12
REMARK    8  A    between atoms: C_12  and  O_13
REMARK    9  A    between atoms: C_15  and  N_16
REMARK   10  A    between atoms: C_15  and  C_20
REMARK   11  A    between atoms: C_20  and  C_21
REMARK                            x       y       z     vdW  Elec       q    Type
REMARK                         _______ _______ _______ _____ _____    ______ ____
ROOT
ATOM      1  C   UNL     1     -36.208  23.549   3.780  0.00  0.00    +0.118 C 
ENDROOT
BRANCH   1   2
ATOM      2  O   UNL     1     -36.514  22.744   4.928  0.00  0.00    -0.384 OA
ATOM      3  H   UNL     1     -36.889  23.305   5.625  0.00  0.00    +0.210 HD
ENDBRANCH   1   2
BRANCH   1   4
ATOM      4  C   UNL     1     -36.907  22.901   2.561  0.00  0.00    +0.146 C 
BRANCH   4   5
ATOM      5  O   UNL     1     -38.094  22.243   3.019  0.00  0.00    -0.382 OA
ATOM      6  H   UNL     1     -37.852  21.441   3.507  0.00  0.00    +0.210 HD
ENDBRANCH   4   5
BRANCH   4   7
ATOM      7  C   UNL     1     -36.049  21.918   1.725  0.00  0.00    +0.128 C 
BRANCH   7   8
ATOM      8  C   UNL     1     -34.649  22.467   1.319  0.00  0.00    +0.013 C 
ATOM      9  C   UNL     1     -33.883  21.450   0.460  0.00  0.00    +0.001 C 
ATOM     10  C   UNL     1     -34.747  23.786   0.542  0.00  0.00    +0.001 C 
ENDBRANCH   7   8
BRANCH   7  12
ATOM     11  O   UNL     1     -35.198  20.362   3.380  0.00  0.00    -0.250 OA
ATOM     12  C   UNL     1     -35.930  20.563   2.417  0.00  0.00    +0.316 C 
BRANCH  12  13
ATOM     13  O   UNL     1     -36.702  19.591   1.874  0.00  0.00    -0.480 OA
ATOM     14  H   UNL     1     -36.904  18.822   2.370  0.00  0.00    +0.295 HD
ENDBRANCH  12  13
ENDBRANCH   7  12
ENDBRANCH   4   7
ENDBRANCH   1   4
BRANCH   1  15
ATOM     15  C   UNL     1     -36.585  25.025   4.061  0.00  0.00    -0.036 C 
BRANCH  15  16
ATOM     16  N   UNL     1     -38.037  25.091   4.272  0.00  0.00    +0.383 N 
ATOM     17  H   UNL     1     -38.235  25.646   5.105  0.00  0.00    -0.089 HD
ATOM     18  H   UNL     1     -38.406  24.148   4.397  0.00  0.00    -0.089 HD
ATOM     19  H   UNL     1     -38.479  25.525   3.462  0.00  0.00    -0.089 HD
ENDBRANCH  15  16
BRANCH  15  20
ATOM     20  C   UNL     1     -35.827  25.639   5.260  0.00  0.00    -0.019 C 
BRANCH  20  21
ATOM     21  C   UNL     1     -34.290  25.711   5.122  0.00  0.00    -0.002 C 
ATOM     22  C   UNL     1     -33.627  26.404   6.314  0.00  0.00    -0.000 C 
ATOM     23  C   UNL     1     -33.924  26.449   3.830  0.00  0.00    -0.000 C 
ENDBRANCH  20  21
ENDBRANCH  15  20
ENDBRANCH   1  15
TORSDOF 11
ENDMDL
MODEL 2
REMARK VINA RESULT:      -5.1      2.769      4.246
REMARK  Name = 5748410
REMARK  11 active torsions:
REMARK  status: ('A' for Active; 'I' for Inactive)
REMARK    1  A    between atoms: C_1  and  O_2
REMARK    2  A    between atoms: C_1  and  C_4
REMARK    3  A    between atoms: C_1  and  C_15
REMARK    4  A    between atoms: C_4  and  O_5
REMARK    5  A    between atoms: C_4  and  C_7
REMARK    6  A    between atoms: C_7  and  C_8
REMARK    7  A    between atoms: C_7  and  C_12
REMARK    8  A    between atoms: C_12  and  O_13
REMARK    9  A    between atoms: C_15  and  N_16
REMARK   10  A    between atoms: C_15  and  C_20
REMARK   11  A    between atoms: C_20  and  C_21
REMARK                            x       y       z     vdW  Elec       q    Type
REMARK                         _______ _______ _______ _____ _____    ______ ____
ROOT
ATOM      1  C   UNL     1     -35.963  25.691   4.368  0.00  0.00    +0.118 C 
ENDROOT
BRANCH   1   2
ATOM      2  O   UNL     1     -36.521  26.697   5.226  0.00  0.00    -0.384 OA
ATOM      3  H   UNL     1     -36.125  26.625   6.108  0.00  0.00    +0.210 HD
ENDBRANCH   1   2
BRANCH   1   4
ATOM      4  C   UNL     1     -36.152  26.170   2.908  0.00  0.00    +0.146 C 
BRANCH   4   5
ATOM      5  O   UNL     1     -36.269  27.598   2.914  0.00  0.00    -0.382 OA
ATOM      6  H   UNL     1     -37.164  27.847   3.191  0.00  0.00    +0.210 HD
ENDBRANCH   4   5
BRANCH   4   7
ATOM      7  C   UNL     1     -37.341  25.546   2.135  0.00  0.00    +0.128 C 
BRANCH   7   8
ATOM      8  C   UNL     1     -36.983  24.268   1.320  0.00  0.00    +0.013 C 
ATOM      9  C   UNL     1     -37.833  24.169   0.045  0.00  0.00    +0.001 C 
ATOM     10  C   UNL     1     -35.502  24.231   0.923  0.00  0.00    +0.001 C 
ENDBRANCH   7   8
BRANCH   7  12
ATOM     11  O   UNL     1     -38.900  24.174   3.389  0.00  0.00    -0.250 OA
ATOM     12  C   UNL     1     -38.530  25.295   3.059  0.00  0.00    +0.316 C 
BRANCH  12  13
ATOM     13  O   UNL     1     -39.151  26.421   3.485  0.00  0.00    -0.480 OA
ATOM     14  H   UNL     1     -39.208  26.606   4.403  0.00  0.00    +0.295 HD
ENDBRANCH  12  13
ENDBRANCH   7  12
ENDBRANCH   4   7
ENDBRANCH   1   4
BRANCH   1  15
ATOM     15  C   UNL     1     -34.501  25.397   4.790  0.00  0.00    -0.036 C 
BRANCH  15  16
ATOM     16  N   UNL     1     -34.181  26.249   5.943  0.00  0.00    +0.383 N 
ATOM     17  H   UNL     1     -34.826  26.044   6.707  0.00  0.00    -0.089 HD
ATOM     18  H   UNL     1     -34.270  27.229   5.676  0.00  0.00    -0.089 HD
ATOM     19  H   UNL     1     -33.225  26.064   6.247  0.00  0.00    -0.089 HD
ENDBRANCH  15  16
BRANCH  15  20
ATOM     20  C   UNL     1     -34.242  23.908   5.118  0.00  0.00    -0.019 C 
BRANCH  20  21
ATOM     21  C   UNL     1     -35.494  23.008   5.209  0.00  0.00    -0.002 C 
ATOM     22  C   UNL     1     -35.486  22.120   6.455  0.00  0.00    -0.000 C 
ATOM     23  C   UNL     1     -35.591  22.134   3.955  0.00  0.00    -0.000 C 
ENDBRANCH  20  21
ENDBRANCH  15  20
ENDBRANCH   1  15
TORSDOF 11
ENDMDL
MODEL 3
REMARK VINA RESULT:      -5.0      1.551      2.123
REMARK  Name = 5748410
REMARK  11 active torsions:
REMARK  status: ('A' for Active; 'I' for Inactive)
REMARK    1  A    between atoms: C_1  and  O_2
REMARK    2  A    between atoms: C_1  and  C_4
REMARK    3  A    between atoms: C_1  and  C_15
REMARK    4  A    between atoms: C_4  and  O_5
REMARK    5  A    between atoms: C_4  and  C_7
REMARK    6  A    between atoms: C_7  and  C_8
REMARK    7  A    between atoms: C_7  and  C_12
REMARK    8  A    between atoms: C_12  and  O_13
REMARK    9  A    between atoms: C_15  and  N_16
REMARK   10  A    between atoms: C_15  and  C_20
REMARK   11  A    between atoms: C_20  and  C_21
REMARK                            x       y       z     vdW  Elec       q    Type
REMARK                         _______ _______ _______ _____ _____    ______ ____
ROOT
ATOM      1  C   UNL     1     -35.342  21.602   3.359  0.00  0.00    +0.118 C 
ENDROOT
BRANCH   1   2
ATOM      2  O   UNL     1     -35.385  20.664   4.443  0.00  0.00    -0.384 OA
ATOM      3  H   UNL     1     -34.533  20.664   4.905  0.00  0.00    +0.210 HD
ENDBRANCH   1   2
BRANCH   1   4
ATOM      4  C   UNL     1     -36.022  20.934   2.139  0.00  0.00    +0.146 C 
BRANCH   4   5
ATOM      5  O   UNL     1     -36.694  19.752   2.591  0.00  0.00    -0.382 OA
ATOM      6  H   UNL     1     -36.214  18.969   2.281  0.00  0.00    +0.210 HD
ENDBRANCH   4   5
BRANCH   4   7
ATOM      7  C   UNL     1     -35.095  20.591   0.946  0.00  0.00    +0.128 C 
BRANCH   7   8
ATOM      8  C   UNL     1     -34.000  21.658   0.650  0.00  0.00    +0.013 C 
ATOM      9  C   UNL     1     -33.052  21.184  -0.462  0.00  0.00    +0.001 C 
ATOM     10  C   UNL     1     -34.602  23.006   0.235  0.00  0.00    +0.001 C 
ENDBRANCH   7   8
BRANCH   7  12
ATOM     11  O   UNL     1     -33.537  18.964   1.845  0.00  0.00    -0.250 OA
ATOM     12  C   UNL     1     -34.484  19.201   1.102  0.00  0.00    +0.316 C 
BRANCH  12  13
ATOM     13  O   UNL     1     -35.073  18.245   0.346  0.00  0.00    -0.480 OA
ATOM     14  H   UNL     1     -35.018  17.345   0.603  0.00  0.00    +0.295 HD
ENDBRANCH  12  13
ENDBRANCH   7  12
ENDBRANCH   4   7
ENDBRANCH   1   4
BRANCH   1  15
ATOM     15  C   UNL     1     -35.955  22.952   3.810  0.00  0.00    -0.036 C 
BRANCH  15  16
ATOM     16  N   UNL     1     -37.408  22.880   3.608  0.00  0.00    +0.383 N 
ATOM     17  H   UNL     1     -37.724  21.920   3.748  0.00  0.00    -0.089 HD
ATOM     18  H   UNL     1     -37.635  23.177   2.659  0.00  0.00    -0.089 HD
ATOM     19  H   UNL     1     -37.875  23.492   4.277  0.00  0.00    -0.089 HD
ENDBRANCH  15  16
BRANCH  15  20
ATOM     20  C   UNL     1     -35.621  23.323   5.273  0.00  0.00    -0.019 C 
BRANCH  20  21
ATOM     21  C   UNL     1     -34.936  24.692   5.483  0.00  0.00    -0.002 C 
ATOM     22  C   UNL     1     -35.941  25.841   5.573  0.00  0.00    -0.000 C 
ATOM     23  C   UNL     1     -33.954  24.956   4.336  0.00  0.00    -0.000 C 
ENDBRANCH  20  21
ENDBRANCH  15  20
ENDBRANCH   1  15
TORSDOF 11
ENDMDL
MODEL 4
REMARK VINA RESULT:      -5.0      2.518      5.639
REMARK  Name = 5748410
REMARK  11 active torsions:
REMARK  status: ('A' for Active; 'I' for Inactive)
REMARK    1  A    between atoms: C_1  and  O_2
REMARK    2  A    between atoms: C_1  and  C_4
REMARK    3  A    between atoms: C_1  and  C_15
REMARK    4  A    between atoms: C_4  and  O_5
REMARK    5  A    between atoms: C_4  and  C_7
REMARK    6  A    between atoms: C_7  and  C_8
REMARK    7  A    between atoms: C_7  and  C_12
REMARK    8  A    between atoms: C_12  and  O_13
REMARK    9  A    between atoms: C_15  and  N_16
REMARK   10  A    between atoms: C_15  and  C_20
REMARK   11  A    between atoms: C_20  and  C_21
REMARK                            x       y       z     vdW  Elec       q    Type
REMARK                         _______ _______ _______ _____ _____    ______ ____
ROOT
ATOM      1  C   UNL     1     -35.379  21.915   2.571  0.00  0.00    +0.118 C 
ENDROOT
BRANCH   1   2
ATOM      2  O   UNL     1     -35.126  22.581   1.325  0.00  0.00    -0.384 OA
ATOM      3  H   UNL     1     -35.907  23.096   1.070  0.00  0.00    +0.210 HD
ENDBRANCH   1   2
BRANCH   1   4
ATOM      4  C   UNL     1     -36.659  22.538   3.178  0.00  0.00    +0.146 C 
BRANCH   4   5
ATOM      5  O   UNL     1     -37.494  22.988   2.104  0.00  0.00    -0.382 OA
ATOM      6  H   UNL     1     -37.527  23.957   2.105  0.00  0.00    +0.210 HD
ENDBRANCH   4   5
BRANCH   4   7
ATOM      7  C   UNL     1     -36.442  23.687   4.195  0.00  0.00    +0.128 C 
BRANCH   7   8
ATOM      8  C   UNL     1     -35.130  23.574   5.027  0.00  0.00    +0.013 C 
ATOM      9  C   UNL     1     -34.758  24.924   5.658  0.00  0.00    +0.001 C 
ATOM     10  C   UNL     1     -35.240  22.528   6.143  0.00  0.00    +0.001 C 
ENDBRANCH   7   8
BRANCH   7  12
ATOM     11  O   UNL     1     -35.885  25.371   2.541  0.00  0.00    -0.250 OA
ATOM     12  C   UNL     1     -36.551  25.051   3.519  0.00  0.00    +0.316 C 
BRANCH  12  13
ATOM     13  O   UNL     1     -37.448  25.887   4.095  0.00  0.00    -0.480 OA
ATOM     14  H   UNL     1     -37.163  26.512   4.733  0.00  0.00    +0.295 HD
ENDBRANCH  12  13
ENDBRANCH   7  12
ENDBRANCH   4   7
ENDBRANCH   1   4
BRANCH   1  15
ATOM     15  C   UNL     1     -35.422  20.383   2.346  0.00  0.00    -0.036 C 
BRANCH  15  16
ATOM     16  N   UNL     1     -36.829  19.961   2.361  0.00  0.00    +0.383 N 
ATOM     17  H   UNL     1     -36.906  19.021   1.972  0.00  0.00    -0.089 HD
ATOM     18  H   UNL     1     -37.384  20.607   1.799  0.00  0.00    -0.089 HD
ATOM     19  H   UNL     1     -37.174  19.962   3.321  0.00  0.00    -0.089 HD
ENDBRANCH  15  16
BRANCH  15  20
ATOM     20  C   UNL     1     -34.727  19.931   1.042  0.00  0.00    -0.019 C 
BRANCH  20  21
ATOM     21  C   UNL     1     -33.324  19.304   1.207  0.00  0.00    -0.002 C 
ATOM     22  C   UNL     1     -32.259  20.028   0.380  0.00  0.00    -0.000 C 
ATOM     23  C   UNL     1     -33.370  17.827   0.804  0.00  0.00    -0.000 C 
ENDBRANCH  20  21
ENDBRANCH  15  20
ENDBRANCH   1  15
TORSDOF 11
ENDMDL
MODEL 5
REMARK VINA RESULT:      -4.9      2.226      5.173
REMARK  Name = 5748410
REMARK  11 active torsions:
REMARK  status: ('A' for Active; 'I' for Inactive)
REMARK    1  A    between atoms: C_1  and  O_2
REMARK    2  A    between atoms: C_1  and  C_4
REMARK    3  A    between atoms: C_1  and  C_15
REMARK    4  A    between atoms: C_4  and  O_5
REMARK    5  A    between atoms: C_4  and  C_7
REMARK    6  A    between atoms: C_7  and  C_8
REMARK    7  A    between atoms: C_7  and  C_12
REMARK    8  A    between atoms: C_12  and  O_13
REMARK    9  A    between atoms: C_15  and  N_16
REMARK   10  A    between atoms: C_15  and  C_20
REMARK   11  A    between atoms: C_20  and  C_21
REMARK                            x       y       z     vdW  Elec       q    Type
REMARK                         _______ _______ _______ _____ _____    ______ ____
ROOT
ATOM      1  C   UNL     1     -36.250  22.099   2.711  0.00  0.00    +0.118 C 
ENDROOT
BRANCH   1   2
ATOM      2  O   UNL     1     -37.659  22.086   2.987  0.00  0.00    -0.384 OA
ATOM      3  H   UNL     1     -37.819  22.463   3.865  0.00  0.00    +0.210 HD
ENDBRANCH   1   2
BRANCH   1   4
ATOM      4  C   UNL     1     -35.546  22.757   3.922  0.00  0.00    +0.146 C 
BRANCH   4   5
ATOM      5  O   UNL     1     -36.257  22.388   5.110  0.00  0.00    -0.382 OA
ATOM      6  H   UNL     1     -35.666  22.462   5.876  0.00  0.00    +0.210 HD
ENDBRANCH   4   5
BRANCH   4   7
ATOM      7  C   UNL     1     -35.383  24.296   3.862  0.00  0.00    +0.128 C 
BRANCH   7   8
ATOM      8  C   UNL     1     -35.393  24.892   2.423  0.00  0.00    +0.013 C 
ATOM      9  C   UNL     1     -35.511  26.423   2.458  0.00  0.00    +0.001 C 
ATOM     10  C   UNL     1     -34.132  24.518   1.633  0.00  0.00    +0.001 C 
ENDBRANCH   7   8
BRANCH   7  12
ATOM     11  O   UNL     1     -36.093  25.660   5.738  0.00  0.00    -0.250 OA
ATOM     12  C   UNL     1     -36.403  24.996   4.755  0.00  0.00    +0.316 C 
BRANCH  12  13
ATOM     13  O   UNL     1     -37.691  24.819   4.374  0.00  0.00    -0.480 OA
ATOM     14  H   UNL     1     -38.357  24.686   5.021  0.00  0.00    +0.295 HD
ENDBRANCH  12  13
ENDBRANCH   7  12
ENDBRANCH   4   7
ENDBRANCH   1   4
BRANCH   1  15
ATOM     15  C   UNL     1     -35.774  20.668   2.356  0.00  0.00    -0.036 C 
BRANCH  15  16
ATOM     16  N   UNL     1     -36.953  19.795   2.308  0.00  0.00    +0.383 N 
ATOM     17  H   UNL     1     -36.886  19.177   1.499  0.00  0.00    -0.089 HD
ATOM     18  H   UNL     1     -37.796  20.365   2.231  0.00  0.00    -0.089 HD
ATOM     19  H   UNL     1     -36.997  19.236   3.160  0.00  0.00    -0.089 HD
ENDBRANCH  15  16
BRANCH  15  20
ATOM     20  C   UNL     1     -34.980  20.593   1.032  0.00  0.00    -0.019 C 
BRANCH  20  21
ATOM     21  C   UNL     1     -33.498  20.173   1.155  0.00  0.00    -0.002 C 
ATOM     22  C   UNL     1     -32.651  20.664  -0.021  0.00  0.00    -0.000 C 
ATOM     23  C   UNL     1     -33.403  18.647   1.256  0.00  0.00    -0.000 C 
ENDBRANCH  20  21
ENDBRANCH  15  20
ENDBRANCH   1  15
TORSDOF 11
ENDMDL
MODEL 6
REMARK VINA RESULT:      -4.8      2.122      3.499
REMARK  Name = 5748410
REMARK  11 active torsions:
REMARK  status: ('A' for Active; 'I' for Inactive)
REMARK    1  A    between atoms: C_1  and  O_2
REMARK    2  A    between atoms: C_1  and  C_4
REMARK    3  A    between atoms: C_1  and  C_15
REMARK    4  A    between atoms: C_4  and  O_5
REMARK    5  A    between atoms: C_4  and  C_7
REMARK    6  A    between atoms: C_7  and  C_8
REMARK    7  A    between atoms: C_7  and  C_12
REMARK    8  A    between atoms: C_12  and  O_13
REMARK    9  A    between atoms: C_15  and  N_16
REMARK   10  A    between atoms: C_15  and  C_20
REMARK   11  A    between atoms: C_20  and  C_21
REMARK                            x       y       z     vdW  Elec       q    Type
REMARK                         _______ _______ _______ _____ _____    ______ ____
ROOT
ATOM      1  C   UNL     1     -35.866  22.384   3.753  0.00  0.00    +0.118 C 
ENDROOT
BRANCH   1   2
ATOM      2  O   UNL     1     -35.713  20.971   3.953  0.00  0.00    -0.384 OA
ATOM      3  H   UNL     1     -36.384  20.497   3.439  0.00  0.00    +0.210 HD
ENDBRANCH   1   2
BRANCH   1   4
ATOM      4  C   UNL     1     -37.163  22.598   2.936  0.00  0.00    +0.146 C 
BRANCH   4   5
ATOM      5  O   UNL     1     -36.960  22.067   1.622  0.00  0.00    -0.382 OA
ATOM      6  H   UNL     1     -36.815  22.795   0.998  0.00  0.00    +0.210 HD
ENDBRANCH   4   5
BRANCH   4   7
ATOM      7  C   UNL     1     -37.676  24.058   2.843  0.00  0.00    +0.128 C 
BRANCH   7   8
ATOM      8  C   UNL     1     -37.159  24.847   1.604  0.00  0.00    +0.013 C 
ATOM      9  C   UNL     1     -37.975  26.129   1.384  0.00  0.00    +0.001 C 
ATOM     10  C   UNL     1     -35.679  25.227   1.737  0.00  0.00    +0.001 C 
ENDBRANCH   7   8
BRANCH   7  12
ATOM     11  O   UNL     1     -39.942  23.511   2.171  0.00  0.00    -0.250 OA
ATOM     12  C   UNL     1     -39.199  24.115   2.937  0.00  0.00    +0.316 C 
BRANCH  12  13
ATOM     13  O   UNL     1     -39.666  24.896   3.940  0.00  0.00    -0.480 OA
ATOM     14  H   UNL     1     -39.367  24.760   4.818  0.00  0.00    +0.295 HD
ENDBRANCH  12  13
ENDBRANCH   7  12
ENDBRANCH   4   7
ENDBRANCH   1   4
BRANCH   1  15
ATOM     15  C   UNL     1     -35.807  23.115   5.119  0.00  0.00    -0.036 C 
BRANCH  15  16
ATOM     16  N   UNL     1     -35.937  22.108   6.179  0.00  0.00    +0.383 N 
ATOM     17  H   UNL     1     -35.103  21.519   6.192  0.00  0.00    -0.089 HD
ATOM     18  H   UNL     1     -36.758  21.529   6.002  0.00  0.00    -0.089 HD
ATOM     19  H   UNL     1     -36.037  22.574   7.081  0.00  0.00    -0.089 HD
ENDBRANCH  15  16
BRANCH  15  20
ATOM     20  C   UNL     1     -34.526  23.957   5.313  0.00  0.00    -0.019 C 
BRANCH  20  21
ATOM     21  C   UNL     1     -34.699  25.488   5.197  0.00  0.00    -0.002 C 
ATOM     22  C   UNL     1     -33.756  26.256   6.124  0.00  0.00    -0.000 C 
ATOM     23  C   UNL     1     -36.151  25.866   5.512  0.00  0.00    -0.000 C 
ENDBRANCH  20  21
ENDBRANCH  15  20
ENDBRANCH   1  15
TORSDOF 11
ENDMDL
MODEL 7
REMARK VINA RESULT:      -4.8      2.130      3.357
REMARK  Name = 5748410
REMARK  11 active torsions:
REMARK  status: ('A' for Active; 'I' for Inactive)
REMARK    1  A    between atoms: C_1  and  O_2
REMARK    2  A    between atoms: C_1  and  C_4
REMARK    3  A    between atoms: C_1  and  C_15
REMARK    4  A    between atoms: C_4  and  O_5
REMARK    5  A    between atoms: C_4  and  C_7
REMARK    6  A    between atoms: C_7  and  C_8
REMARK    7  A    between atoms: C_7  and  C_12
REMARK    8  A    between atoms: C_12  and  O_13
REMARK    9  A    between atoms: C_15  and  N_16
REMARK   10  A    between atoms: C_15  and  C_20
REMARK   11  A    between atoms: C_20  and  C_21
REMARK                            x       y       z     vdW  Elec       q    Type
REMARK                         _______ _______ _______ _____ _____    ______ ____
ROOT
ATOM      1  C   UNL     1     -35.611  22.035   3.505  0.00  0.00    +0.118 C 
ENDROOT
BRANCH   1   2
ATOM      2  O   UNL     1     -35.883  20.635   3.668  0.00  0.00    -0.384 OA
ATOM      3  H   UNL     1     -36.837  20.503   3.781  0.00  0.00    +0.210 HD
ENDBRANCH   1   2
BRANCH   1   4
ATOM      4  C   UNL     1     -36.476  22.541   2.326  0.00  0.00    +0.146 C 
BRANCH   4   5
ATOM      5  O   UNL     1     -35.897  23.754   1.831  0.00  0.00    -0.382 OA
ATOM      6  H   UNL     1     -35.943  23.763   0.862  0.00  0.00    +0.210 HD
ENDBRANCH   4   5
BRANCH   4   7
ATOM      7  C   UNL     1     -37.980  22.760   2.628  0.00  0.00    +0.128 C 
BRANCH   7   8
ATOM      8  C   UNL     1     -38.534  24.147   2.187  0.00  0.00    +0.013 C 
ATOM      9  C   UNL     1     -39.144  24.077   0.779  0.00  0.00    +0.001 C 
ATOM     10  C   UNL     1     -39.598  24.680   3.154  0.00  0.00    +0.001 C 
ENDBRANCH   7   8
BRANCH   7  12
ATOM     11  O   UNL     1     -40.042  21.548   2.220  0.00  0.00    -0.250 OA
ATOM     12  C   UNL     1     -38.828  21.623   2.064  0.00  0.00    +0.316 C 
BRANCH  12  13
ATOM     13  O   UNL     1     -38.125  20.693   1.374  0.00  0.00    -0.480 OA
ATOM     14  H   UNL     1     -37.755  20.909   0.540  0.00  0.00    +0.295 HD
ENDBRANCH  12  13
ENDBRANCH   7  12
ENDBRANCH   4   7
ENDBRANCH   1   4
BRANCH   1  15
ATOM     15  C   UNL     1     -35.823  22.769   4.853  0.00  0.00    -0.036 C 
BRANCH  15  16
ATOM     16  N   UNL     1     -35.910  21.756   5.913  0.00  0.00    +0.383 N 
ATOM     17  H   UNL     1     -35.118  21.117   5.838  0.00  0.00    -0.089 HD
ATOM     18  H   UNL     1     -36.780  21.233   5.814  0.00  0.00    -0.089 HD
ATOM     19  H   UNL     1     -35.891  22.215   6.824  0.00  0.00    -0.089 HD
ENDBRANCH  15  16
BRANCH  15  20
ATOM     20  C   UNL     1     -34.722  23.805   5.171  0.00  0.00    -0.019 C 
BRANCH  20  21
ATOM     21  C   UNL     1     -35.215  25.189   5.651  0.00  0.00    -0.002 C 
ATOM     22  C   UNL     1     -36.278  25.785   4.726  0.00  0.00    -0.000 C 
ATOM     23  C   UNL     1     -34.026  26.150   5.754  0.00  0.00    -0.000 C 
ENDBRANCH  20  21
ENDBRANCH  15  20
ENDBRANCH   1  15
TORSDOF 11
ENDMDL
MODEL 8
REMARK VINA RESULT:      -4.8      2.148      5.361
REMARK  Name = 5748410
REMARK  11 active torsions:
REMARK  status: ('A' for Active; 'I' for Inactive)
REMARK    1  A    between atoms: C_1  and  O_2
REMARK    2  A    between atoms: C_1  and  C_4
REMARK    3  A    between atoms: C_1  and  C_15
REMARK    4  A    between atoms: C_4  and  O_5
REMARK    5  A    between atoms: C_4  and  C_7
REMARK    6  A    between atoms: C_7  and  C_8
REMARK    7  A    between atoms: C_7  and  C_12
REMARK    8  A    between atoms: C_12  and  O_13
REMARK    9  A    between atoms: C_15  and  N_16
REMARK   10  A    between atoms: C_15  and  C_20
REMARK   11  A    between atoms: C_20  and  C_21
REMARK                            x       y       z     vdW  Elec       q    Type
REMARK                         _______ _______ _______ _____ _____    ______ ____
ROOT
ATOM      1  C   UNL     1     -36.447  21.047   2.068  0.00  0.00    +0.118 C 
ENDROOT
BRANCH   1   2
ATOM      2  O   UNL     1     -36.792  19.697   2.411  0.00  0.00    -0.384 OA
ATOM      3  H   UNL     1     -37.367  19.326   1.725  0.00  0.00    +0.210 HD
ENDBRANCH   1   2
BRANCH   1   4
ATOM      4  C   UNL     1     -35.626  21.630   3.243  0.00  0.00    +0.146 C 
BRANCH   4   5
ATOM      5  O   UNL     1     -35.234  20.549   4.098  0.00  0.00    -0.382 OA
ATOM      6  H   UNL     1     -34.937  20.903   4.950  0.00  0.00    +0.210 HD
ENDBRANCH   4   5
BRANCH   4   7
ATOM      7  C   UNL     1     -36.321  22.736   4.077  0.00  0.00    +0.128 C 
BRANCH   7   8
ATOM      8  C   UNL     1     -35.387  23.466   5.088  0.00  0.00    +0.013 C 
ATOM      9  C   UNL     1     -35.922  24.865   5.424  0.00  0.00    +0.001 C 
ATOM     10  C   UNL     1     -35.223  22.680   6.395  0.00  0.00    +0.001 C 
ENDBRANCH   7   8
BRANCH   7  12
ATOM     11  O   UNL     1     -38.242  23.979   3.272  0.00  0.00    -0.250 OA
ATOM     12  C   UNL     1     -37.045  23.734   3.176  0.00  0.00    +0.316 C 
BRANCH  12  13
ATOM     13  O   UNL     1     -36.252  24.328   2.253  0.00  0.00    -0.480 OA
ATOM     14  H   UNL     1     -35.426  24.690   2.508  0.00  0.00    +0.295 HD
ENDBRANCH  12  13
ENDBRANCH   7  12
ENDBRANCH   4   7
ENDBRANCH   1   4
BRANCH   1  15
ATOM     15  C   UNL     1     -35.746  21.072   0.686  0.00  0.00    -0.036 C 
BRANCH  15  16
ATOM     16  N   UNL     1     -36.317  22.178  -0.094  0.00  0.00    +0.383 N 
ATOM     17  H   UNL     1     -35.573  22.654  -0.604  0.00  0.00    -0.089 HD
ATOM     18  H   UNL     1     -36.774  22.838   0.536  0.00  0.00    -0.089 HD
ATOM     19  H   UNL     1     -37.001  21.810  -0.755  0.00  0.00    -0.089 HD
ENDBRANCH  15  16
BRANCH  15  20
ATOM     20  C   UNL     1     -34.208  21.200   0.776  0.00  0.00    -0.019 C 
BRANCH  20  21
ATOM     21  C   UNL     1     -33.402  19.941   0.385  0.00  0.00    -0.002 C 
ATOM     22  C   UNL     1     -33.390  18.887   1.493  0.00  0.00    -0.000 C 
ATOM     23  C   UNL     1     -31.963  20.340   0.039  0.00  0.00    -0.000 C 
ENDBRANCH  20  21
ENDBRANCH  15  20
ENDBRANCH   1  15
TORSDOF 11
ENDMDL
MODEL 9
REMARK VINA RESULT:      -4.7      1.888      2.754
REMARK  Name = 5748410
REMARK  11 active torsions:
REMARK  status: ('A' for Active; 'I' for Inactive)
REMARK    1  A    between atoms: C_1  and  O_2
REMARK    2  A    between atoms: C_1  and  C_4
REMARK    3  A    between atoms: C_1  and  C_15
REMARK    4  A    between atoms: C_4  and  O_5
REMARK    5  A    between atoms: C_4  and  C_7
REMARK    6  A    between atoms: C_7  and  C_8
REMARK    7  A    between atoms: C_7  and  C_12
REMARK    8  A    between atoms: C_12  and  O_13
REMARK    9  A    between atoms: C_15  and  N_16
REMARK   10  A    between atoms: C_15  and  C_20
REMARK   11  A    between atoms: C_20  and  C_21
REMARK                            x       y       z     vdW  Elec       q    Type
REMARK                         _______ _______ _______ _____ _____    ______ ____
ROOT
ATOM      1  C   UNL     1     -35.361  21.566   3.252  0.00  0.00    +0.118 C 
ENDROOT
BRANCH   1   2
ATOM      2  O   UNL     1     -35.309  20.631   4.339  0.00  0.00    -0.384 OA
ATOM      3  H   UNL     1     -35.978  19.942   4.205  0.00  0.00    +0.210 HD
ENDBRANCH   1   2
BRANCH   1   4
ATOM      4  C   UNL     1     -36.100  20.875   2.081  0.00  0.00    +0.146 C 
BRANCH   4   5
ATOM      5  O   UNL     1     -36.721  19.685   2.580  0.00  0.00    -0.382 OA
ATOM      6  H   UNL     1     -37.527  19.503   2.072  0.00  0.00    +0.210 HD
ENDBRANCH   4   5
BRANCH   4   7
ATOM      7  C   UNL     1     -35.241  20.540   0.836  0.00  0.00    +0.128 C 
BRANCH   7   8
ATOM      8  C   UNL     1     -33.988  19.664   1.132  0.00  0.00    +0.013 C 
ATOM      9  C   UNL     1     -34.184  18.228   0.623  0.00  0.00    +0.001 C 
ATOM     10  C   UNL     1     -32.717  20.238   0.494  0.00  0.00    +0.001 C 
ENDBRANCH   7   8
BRANCH   7  12
ATOM     11  O   UNL     1     -37.085  19.242  -0.059  0.00  0.00    -0.250 OA
ATOM     12  C   UNL     1     -36.092  19.929  -0.274  0.00  0.00    +0.316 C 
BRANCH  12  13
ATOM     13  O   UNL     1     -35.656  20.205  -1.526  0.00  0.00    -0.480 OA
ATOM     14  H   UNL     1     -34.736  20.261  -1.701  0.00  0.00    +0.295 HD
ENDBRANCH  12  13
ENDBRANCH   7  12
ENDBRANCH   4   7
ENDBRANCH   1   4
BRANCH   1  15
ATOM     15  C   UNL     1     -35.980  22.901   3.739  0.00  0.00    -0.036 C 
BRANCH  15  16
ATOM     16  N   UNL     1     -37.432  22.831   3.530  0.00  0.00    +0.383 N 
ATOM     17  H   UNL     1     -37.900  23.459   4.184  0.00  0.00    -0.089 HD
ATOM     18  H   UNL     1     -37.754  21.876   3.689  0.00  0.00    -0.089 HD
ATOM     19  H   UNL     1     -37.652  23.110   2.574  0.00  0.00    -0.089 HD
ENDBRANCH  15  16
BRANCH  15  20
ATOM     20  C   UNL     1     -35.652  23.231   5.213  0.00  0.00    -0.019 C 
BRANCH  20  21
ATOM     21  C   UNL     1     -34.969  24.594   5.464  0.00  0.00    -0.002 C 
ATOM     22  C   UNL     1     -35.973  25.745   5.550  0.00  0.00    -0.000 C 
ATOM     23  C   UNL     1     -33.959  24.876   4.346  0.00  0.00    -0.000 C 
ENDBRANCH  20  21
ENDBRANCH  15  20
ENDBRANCH   1  15
TORSDOF 11
ENDMDL
