MODEL 1
REMARK VINA RESULT:      -6.5      0.000      0.000
REMARK  Name = 19540641
REMARK  6 active torsions:
REMARK  status: ('A' for Active; 'I' for Inactive)
REMARK    1  A    between atoms: C_2  and  C_3
REMARK    2  A    between atoms: C_2  and  C_14
REMARK    3  A    between atoms: C_4  and  O_9
REMARK    4  A    between atoms: C_8  and  O_11
REMARK    5  A    between atoms: C_13  and  C_15
REMARK    6  A    between atoms: C_18  and  N_23
REMARK                            x       y       z     vdW  Elec       q    Type
REMARK                         _______ _______ _______ _____ _____    ______ ____
ROOT
ATOM      1  O   UNL     1     -37.781  21.347   2.074  0.00  0.00    -0.286 OA
ATOM      2  C   UNL     1     -36.715  21.691   2.573  0.00  0.00    +0.199 C 
ENDROOT
BRANCH   2   3
ATOM      3  C   UNL     1     -36.639  22.957   3.341  0.00  0.00    +0.073 C 
ATOM      4  C   UNL     1     -37.376  24.075   2.952  0.00  0.00    +0.140 C 
ATOM      5  C   UNL     1     -35.815  23.021   4.465  0.00  0.00    +0.009 C 
ATOM      6  C   UNL     1     -37.290  25.258   3.687  0.00  0.00    +0.073 C 
ATOM      7  C   UNL     1     -35.729  24.203   5.200  0.00  0.00    +0.037 C 
ATOM      8  C   UNL     1     -36.467  25.322   4.810  0.00  0.00    +0.137 C 
BRANCH   4   9
ATOM      9  O   UNL     1     -38.186  24.032   1.857  0.00  0.00    -0.505 OA
ATOM     10  H   UNL     1     -38.094  23.340   1.233  0.00  0.00    +0.292 HD
ENDBRANCH   4   9
BRANCH   8  11
ATOM     11  O   UNL     1     -36.384  26.474   5.529  0.00  0.00    -0.505 OA
ATOM     12  H   UNL     1     -35.682  26.598   6.137  0.00  0.00    +0.292 HD
ENDBRANCH   8  11
ENDBRANCH   2   3
BRANCH   2  14
ATOM     13  C   UNL     1     -34.804  20.830   1.315  0.00  0.00    +0.003 C 
ATOM     14  C   UNL     1     -35.476  20.868   2.470  0.00  0.00    +0.042 C 
BRANCH  13  15
ATOM     15  C   UNL     1     -33.591  20.075   1.038  0.00  0.00    +0.000 C 
ATOM     16  C   UNL     1     -32.585  20.637   0.251  0.00  0.00    +0.002 C 
ATOM     17  C   UNL     1     -33.432  18.793   1.563  0.00  0.00    +0.002 C 
ATOM     18  C   UNL     1     -31.264  18.631   0.510  0.00  0.00    +0.143 C 
ATOM     19  C   UNL     1     -31.422  19.914  -0.015  0.00  0.00    +0.024 C 
ATOM     20  C   UNL     1     -32.269  18.070   1.298  0.00  0.00    +0.024 C 
BRANCH  18  23
ATOM     21  O   UNL     1     -29.920  16.786   0.802  0.00  0.00    -0.126 OA
ATOM     22  O   UNL     1     -29.234  18.380  -0.548  0.00  0.00    -0.126 OA
ATOM     23  N   UNL     1     -30.080  17.896   0.241  0.00  0.00    +0.058 N 
ENDBRANCH  18  23
ENDBRANCH  13  15
ENDBRANCH   2  14
TORSDOF 6
ENDMDL
MODEL 2
REMARK VINA RESULT:      -6.4      2.094      2.628
REMARK  Name = 19540641
REMARK  6 active torsions:
REMARK  status: ('A' for Active; 'I' for Inactive)
REMARK    1  A    between atoms: C_2  and  C_3
REMARK    2  A    between atoms: C_2  and  C_14
REMARK    3  A    between atoms: C_4  and  O_9
REMARK    4  A    between atoms: C_8  and  O_11
REMARK    5  A    between atoms: C_13  and  C_15
REMARK    6  A    between atoms: C_18  and  N_23
REMARK                            x       y       z     vdW  Elec       q    Type
REMARK                         _______ _______ _______ _____ _____    ______ ____
ROOT
ATOM      1  O   UNL     1     -37.427  22.218   2.654  0.00  0.00    -0.286 OA
ATOM      2  C   UNL     1     -36.246  22.053   2.941  0.00  0.00    +0.199 C 
ENDROOT
BRANCH   2   3
ATOM      3  C   UNL     1     -35.493  23.143   3.606  0.00  0.00    +0.073 C 
ATOM      4  C   UNL     1     -35.530  23.295   4.992  0.00  0.00    +0.140 C 
ATOM      5  C   UNL     1     -34.743  24.024   2.827  0.00  0.00    +0.009 C 
ATOM      6  C   UNL     1     -34.816  24.329   5.599  0.00  0.00    +0.073 C 
ATOM      7  C   UNL     1     -34.028  25.056   3.434  0.00  0.00    +0.037 C 
ATOM      8  C   UNL     1     -34.065  25.209   4.821  0.00  0.00    +0.137 C 
BRANCH   4   9
ATOM      9  O   UNL     1     -36.258  22.446   5.770  0.00  0.00    -0.505 OA
ATOM     10  H   UNL     1     -35.927  22.175   6.604  0.00  0.00    +0.292 HD
ENDBRANCH   4   9
BRANCH   8  11
ATOM     11  O   UNL     1     -33.366  26.215   5.413  0.00  0.00    -0.505 OA
ATOM     12  H   UNL     1     -33.719  26.653   6.162  0.00  0.00    +0.292 HD
ENDBRANCH   8  11
ENDBRANCH   2   3
BRANCH   2  14
ATOM     13  C   UNL     1     -35.150  20.474   1.430  0.00  0.00    +0.003 C 
ATOM     14  C   UNL     1     -35.525  20.775   2.678  0.00  0.00    +0.042 C 
BRANCH  13  15
ATOM     15  C   UNL     1     -34.454  19.273   0.996  0.00  0.00    +0.000 C 
ATOM     16  C   UNL     1     -35.038  18.431   0.049  0.00  0.00    +0.002 C 
ATOM     17  C   UNL     1     -33.200  18.965   1.524  0.00  0.00    +0.002 C 
ATOM     18  C   UNL     1     -33.116  16.972   0.161  0.00  0.00    +0.143 C 
ATOM     19  C   UNL     1     -34.370  17.280  -0.367  0.00  0.00    +0.024 C 
ATOM     20  C   UNL     1     -32.531  17.814   1.107  0.00  0.00    +0.024 C 
BRANCH  18  23
ATOM     21  O   UNL     1     -32.872  15.179  -1.261  0.00  0.00    -0.126 OA
ATOM     22  O   UNL     1     -31.422  15.428   0.373  0.00  0.00    -0.126 OA
ATOM     23  N   UNL     1     -32.435  15.801  -0.264  0.00  0.00    +0.058 N 
ENDBRANCH  18  23
ENDBRANCH  13  15
ENDBRANCH   2  14
TORSDOF 6
ENDMDL
MODEL 3
REMARK VINA RESULT:      -6.1      3.030      8.089
REMARK  Name = 19540641
REMARK  6 active torsions:
REMARK  status: ('A' for Active; 'I' for Inactive)
REMARK    1  A    between atoms: C_2  and  C_3
REMARK    2  A    between atoms: C_2  and  C_14
REMARK    3  A    between atoms: C_4  and  O_9
REMARK    4  A    between atoms: C_8  and  O_11
REMARK    5  A    between atoms: C_13  and  C_15
REMARK    6  A    between atoms: C_18  and  N_23
REMARK                            x       y       z     vdW  Elec       q    Type
REMARK                         _______ _______ _______ _____ _____    ______ ____
ROOT
ATOM      1  O   UNL     1     -35.937  19.038   0.449  0.00  0.00    -0.286 OA
ATOM      2  C   UNL     1     -34.844  19.373   0.892  0.00  0.00    +0.199 C 
ENDROOT
BRANCH   2   3
ATOM      3  C   UNL     1     -33.672  18.484   0.706  0.00  0.00    +0.073 C 
ATOM      4  C   UNL     1     -33.836  17.160   0.302  0.00  0.00    +0.140 C 
ATOM      5  C   UNL     1     -32.393  18.987   0.944  0.00  0.00    +0.009 C 
ATOM      6  C   UNL     1     -32.721  16.338   0.134  0.00  0.00    +0.073 C 
ATOM      7  C   UNL     1     -31.278  18.166   0.776  0.00  0.00    +0.037 C 
ATOM      8  C   UNL     1     -31.443  16.841   0.371  0.00  0.00    +0.137 C 
BRANCH   4   9
ATOM      9  O   UNL     1     -35.078  16.649   0.065  0.00  0.00    -0.505 OA
ATOM     10  H   UNL     1     -35.839  17.149   0.283  0.00  0.00    +0.292 HD
ENDBRANCH   4   9
BRANCH   8  11
ATOM     11  O   UNL     1     -30.355  16.040   0.205  0.00  0.00    -0.505 OA
ATOM     12  H   UNL     1     -29.666  16.049   0.840  0.00  0.00    +0.292 HD
ENDBRANCH   8  11
ENDBRANCH   2   3
BRANCH   2  14
ATOM     13  C   UNL     1     -35.382  20.987   2.647  0.00  0.00    +0.003 C 
ATOM     14  C   UNL     1     -34.623  20.671   1.593  0.00  0.00    +0.042 C 
BRANCH  13  15
ATOM     15  C   UNL     1     -35.311  22.208   3.436  0.00  0.00    +0.000 C 
ATOM     16  C   UNL     1     -35.491  22.156   4.818  0.00  0.00    +0.002 C 
ATOM     17  C   UNL     1     -35.060  23.428   2.810  0.00  0.00    +0.002 C 
ATOM     18  C   UNL     1     -35.172  24.546   4.949  0.00  0.00    +0.143 C 
ATOM     19  C   UNL     1     -35.423  23.326   5.575  0.00  0.00    +0.024 C 
ATOM     20  C   UNL     1     -34.991  24.598   3.567  0.00  0.00    +0.024 C 
BRANCH  18  23
ATOM     21  O   UNL     1     -33.989  26.093   6.176  0.00  0.00    -0.126 OA
ATOM     22  O   UNL     1     -36.151  26.392   5.916  0.00  0.00    -0.126 OA
ATOM     23  N   UNL     1     -35.101  25.737   5.719  0.00  0.00    +0.058 N 
ENDBRANCH  18  23
ENDBRANCH  13  15
ENDBRANCH   2  14
TORSDOF 6
ENDMDL
MODEL 4
REMARK VINA RESULT:      -6.1      1.346      2.169
REMARK  Name = 19540641
REMARK  6 active torsions:
REMARK  status: ('A' for Active; 'I' for Inactive)
REMARK    1  A    between atoms: C_2  and  C_3
REMARK    2  A    between atoms: C_2  and  C_14
REMARK    3  A    between atoms: C_4  and  O_9
REMARK    4  A    between atoms: C_8  and  O_11
REMARK    5  A    between atoms: C_13  and  C_15
REMARK    6  A    between atoms: C_18  and  N_23
REMARK                            x       y       z     vdW  Elec       q    Type
REMARK                         _______ _______ _______ _____ _____    ______ ____
ROOT
ATOM      1  O   UNL     1     -37.087  21.015   2.141  0.00  0.00    -0.286 OA
ATOM      2  C   UNL     1     -35.946  21.178   2.563  0.00  0.00    +0.199 C 
ENDROOT
BRANCH   2   3
ATOM      3  C   UNL     1     -35.641  22.350   3.420  0.00  0.00    +0.073 C 
ATOM      4  C   UNL     1     -35.491  22.206   4.799  0.00  0.00    +0.140 C 
ATOM      5  C   UNL     1     -35.507  23.606   2.830  0.00  0.00    +0.009 C 
ATOM      6  C   UNL     1     -35.205  23.320   5.589  0.00  0.00    +0.073 C 
ATOM      7  C   UNL     1     -35.221  24.720   3.620  0.00  0.00    +0.037 C 
ATOM      8  C   UNL     1     -35.070  24.577   5.000  0.00  0.00    +0.137 C 
BRANCH   4   9
ATOM      9  O   UNL     1     -35.619  20.987   5.394  0.00  0.00    -0.505 OA
ATOM     10  H   UNL     1     -35.019  20.298   5.185  0.00  0.00    +0.292 HD
ENDBRANCH   4   9
BRANCH   8  11
ATOM     11  O   UNL     1     -34.789  25.663   5.769  0.00  0.00    -0.505 OA
ATOM     12  H   UNL     1     -33.932  26.041   5.750  0.00  0.00    +0.292 HD
ENDBRANCH   8  11
ENDBRANCH   2   3
BRANCH   2  14
ATOM     13  C   UNL     1     -34.000  20.469   1.266  0.00  0.00    +0.003 C 
ATOM     14  C   UNL     1     -34.838  20.223   2.278  0.00  0.00    +0.042 C 
BRANCH  13  15
ATOM     15  C   UNL     1     -32.879  19.643   0.844  0.00  0.00    +0.000 C 
ATOM     16  C   UNL     1     -32.822  18.300   1.218  0.00  0.00    +0.002 C 
ATOM     17  C   UNL     1     -31.863  20.193   0.063  0.00  0.00    +0.002 C 
ATOM     18  C   UNL     1     -30.731  18.059   0.032  0.00  0.00    +0.143 C 
ATOM     19  C   UNL     1     -31.747  17.508   0.812  0.00  0.00    +0.024 C 
ATOM     20  C   UNL     1     -30.788  19.401  -0.343  0.00  0.00    +0.024 C 
BRANCH  18  23
ATOM     21  O   UNL     1     -29.794  16.010  -0.437  0.00  0.00    -0.126 OA
ATOM     22  O   UNL     1     -28.555  17.811  -0.678  0.00  0.00    -0.126 OA
ATOM     23  N   UNL     1     -29.638  17.253  -0.382  0.00  0.00    +0.058 N 
ENDBRANCH  18  23
ENDBRANCH  13  15
ENDBRANCH   2  14
TORSDOF 6
ENDMDL
MODEL 5
REMARK VINA RESULT:      -5.7      1.951      2.424
REMARK  Name = 19540641
REMARK  6 active torsions:
REMARK  status: ('A' for Active; 'I' for Inactive)
REMARK    1  A    between atoms: C_2  and  C_3
REMARK    2  A    between atoms: C_2  and  C_14
REMARK    3  A    between atoms: C_4  and  O_9
REMARK    4  A    between atoms: C_8  and  O_11
REMARK    5  A    between atoms: C_13  and  C_15
REMARK    6  A    between atoms: C_18  and  N_23
REMARK                            x       y       z     vdW  Elec       q    Type
REMARK                         _______ _______ _______ _____ _____    ______ ____
ROOT
ATOM      1  O   UNL     1     -38.026  23.119   3.122  0.00  0.00    -0.286 OA
ATOM      2  C   UNL     1     -36.825  22.950   3.304  0.00  0.00    +0.199 C 
ENDROOT
BRANCH   2   3
ATOM      3  C   UNL     1     -36.005  24.051   3.865  0.00  0.00    +0.073 C 
ATOM      4  C   UNL     1     -36.029  25.323   3.294  0.00  0.00    +0.140 C 
ATOM      5  C   UNL     1     -35.200  23.800   4.977  0.00  0.00    +0.009 C 
ATOM      6  C   UNL     1     -35.249  26.345   3.836  0.00  0.00    +0.073 C 
ATOM      7  C   UNL     1     -34.421  24.821   5.518  0.00  0.00    +0.037 C 
ATOM      8  C   UNL     1     -34.445  26.095   4.947  0.00  0.00    +0.137 C 
BRANCH   4   9
ATOM      9  O   UNL     1     -36.808  25.587   2.208  0.00  0.00    -0.505 OA
ATOM     10  H   UNL     1     -37.467  24.976   1.943  0.00  0.00    +0.292 HD
ENDBRANCH   4   9
BRANCH   8  11
ATOM     11  O   UNL     1     -33.687  27.092   5.477  0.00  0.00    -0.505 OA
ATOM     12  H   UNL     1     -33.707  27.948   5.097  0.00  0.00    +0.292 HD
ENDBRANCH   8  11
ENDBRANCH   2   3
BRANCH   2  14
ATOM     13  C   UNL     1     -35.804  21.358   1.756  0.00  0.00    +0.003 C 
ATOM     14  C   UNL     1     -36.142  21.657   3.014  0.00  0.00    +0.042 C 
BRANCH  13  15
ATOM     15  C   UNL     1     -35.147  20.144   1.295  0.00  0.00    +0.000 C 
ATOM     16  C   UNL     1     -33.888  19.803   1.789  0.00  0.00    +0.002 C 
ATOM     17  C   UNL     1     -35.778  19.321   0.363  0.00  0.00    +0.002 C 
ATOM     18  C   UNL     1     -33.889  17.816   0.415  0.00  0.00    +0.143 C 
ATOM     19  C   UNL     1     -33.258  18.639   1.347  0.00  0.00    +0.024 C 
ATOM     20  C   UNL     1     -35.149  18.156  -0.078  0.00  0.00    +0.024 C 
BRANCH  18  23
ATOM     21  O   UNL     1     -32.135  16.326   0.456  0.00  0.00    -0.126 OA
ATOM     22  O   UNL     1     -33.817  15.929  -0.903  0.00  0.00    -0.126 OA
ATOM     23  N   UNL     1     -33.249  16.630  -0.033  0.00  0.00    +0.058 N 
ENDBRANCH  18  23
ENDBRANCH  13  15
ENDBRANCH   2  14
TORSDOF 6
ENDMDL
MODEL 6
REMARK VINA RESULT:      -5.6      2.063      2.703
REMARK  Name = 19540641
REMARK  6 active torsions:
REMARK  status: ('A' for Active; 'I' for Inactive)
REMARK    1  A    between atoms: C_2  and  C_3
REMARK    2  A    between atoms: C_2  and  C_14
REMARK    3  A    between atoms: C_4  and  O_9
REMARK    4  A    between atoms: C_8  and  O_11
REMARK    5  A    between atoms: C_13  and  C_15
REMARK    6  A    between atoms: C_18  and  N_23
REMARK                            x       y       z     vdW  Elec       q    Type
REMARK                         _______ _______ _______ _____ _____    ______ ____
ROOT
ATOM      1  O   UNL     1     -37.726  24.205   1.681  0.00  0.00    -0.286 OA
ATOM      2  C   UNL     1     -36.608  23.838   2.027  0.00  0.00    +0.199 C 
ENDROOT
BRANCH   2   3
ATOM      3  C   UNL     1     -35.934  24.511   3.164  0.00  0.00    +0.073 C 
ATOM      4  C   UNL     1     -36.667  24.978   4.254  0.00  0.00    +0.140 C 
ATOM      5  C   UNL     1     -34.549  24.675   3.132  0.00  0.00    +0.009 C 
ATOM      6  C   UNL     1     -36.015  25.610   5.314  0.00  0.00    +0.073 C 
ATOM      7  C   UNL     1     -33.897  25.306   4.191  0.00  0.00    +0.037 C 
ATOM      8  C   UNL     1     -34.631  25.774   5.282  0.00  0.00    +0.137 C 
BRANCH   4   9
ATOM      9  O   UNL     1     -38.021  24.828   4.304  0.00  0.00    -0.505 OA
ATOM     10  H   UNL     1     -38.399  23.972   4.255  0.00  0.00    +0.292 HD
ENDBRANCH   4   9
BRANCH   8  11
ATOM     11  O   UNL     1     -33.994  26.388   6.316  0.00  0.00    -0.505 OA
ATOM     12  H   UNL     1     -33.132  26.736   6.196  0.00  0.00    +0.292 HD
ENDBRANCH   8  11
ENDBRANCH   2   3
BRANCH   2  14
ATOM     13  C   UNL     1     -35.936  21.490   1.924  0.00  0.00    +0.003 C 
ATOM     14  C   UNL     1     -35.893  22.706   1.371  0.00  0.00    +0.042 C 
BRANCH  13  15
ATOM     15  C   UNL     1     -35.291  20.284   1.427  0.00  0.00    +0.000 C 
ATOM     16  C   UNL     1     -35.928  19.496   0.469  0.00  0.00    +0.002 C 
ATOM     17  C   UNL     1     -34.034  19.917   1.908  0.00  0.00    +0.002 C 
ATOM     18  C   UNL     1     -34.053  17.974   0.473  0.00  0.00    +0.143 C 
ATOM     19  C   UNL     1     -35.310  18.340  -0.008  0.00  0.00    +0.024 C 
ATOM     20  C   UNL     1     -33.415  18.762   1.431  0.00  0.00    +0.024 C 
BRANCH  18  23
ATOM     21  O   UNL     1     -32.194  16.832  -0.258  0.00  0.00    -0.126 OA
ATOM     22  O   UNL     1     -34.115  15.767  -0.180  0.00  0.00    -0.126 OA
ATOM     23  N   UNL     1     -33.422  16.798  -0.012  0.00  0.00    +0.058 N 
ENDBRANCH  18  23
ENDBRANCH  13  15
ENDBRANCH   2  14
TORSDOF 6
ENDMDL
MODEL 7
REMARK VINA RESULT:      -5.5      5.548      9.740
REMARK  Name = 19540641
REMARK  6 active torsions:
REMARK  status: ('A' for Active; 'I' for Inactive)
REMARK    1  A    between atoms: C_2  and  C_3
REMARK    2  A    between atoms: C_2  and  C_14
REMARK    3  A    between atoms: C_4  and  O_9
REMARK    4  A    between atoms: C_8  and  O_11
REMARK    5  A    between atoms: C_13  and  C_15
REMARK    6  A    between atoms: C_18  and  N_23
REMARK                            x       y       z     vdW  Elec       q    Type
REMARK                         _______ _______ _______ _____ _____    ______ ____
ROOT
ATOM      1  O   UNL     1     -36.152  26.268   2.748  0.00  0.00    -0.286 OA
ATOM      2  C   UNL     1     -36.855  25.281   2.942  0.00  0.00    +0.199 C 
ENDROOT
BRANCH   2   3
ATOM      3  C   UNL     1     -36.317  24.138   3.720  0.00  0.00    +0.073 C 
ATOM      4  C   UNL     1     -35.952  24.293   5.057  0.00  0.00    +0.140 C 
ATOM      5  C   UNL     1     -36.178  22.898   3.097  0.00  0.00    +0.009 C 
ATOM      6  C   UNL     1     -35.447  23.206   5.772  0.00  0.00    +0.073 C 
ATOM      7  C   UNL     1     -35.673  21.812   3.812  0.00  0.00    +0.037 C 
ATOM      8  C   UNL     1     -35.308  21.966   5.150  0.00  0.00    +0.137 C 
BRANCH   4   9
ATOM      9  O   UNL     1     -36.081  25.497   5.683  0.00  0.00    -0.505 OA
ATOM     10  H   UNL     1     -35.445  26.170   5.539  0.00  0.00    +0.292 HD
ENDBRANCH   4   9
BRANCH   8  11
ATOM     11  O   UNL     1     -34.818  20.906   5.848  0.00  0.00    -0.505 OA
ATOM     12  H   UNL     1     -34.461  21.033   6.705  0.00  0.00    +0.292 HD
ENDBRANCH   8  11
ENDBRANCH   2   3
BRANCH   2  14
ATOM     13  C   UNL     1     -39.216  25.905   3.046  0.00  0.00    +0.003 C 
ATOM     14  C   UNL     1     -38.260  25.184   2.452  0.00  0.00    +0.042 C 
BRANCH  13  15
ATOM     15  C   UNL     1     -40.630  25.924   2.707  0.00  0.00    +0.000 C 
ATOM     16  C   UNL     1     -41.531  26.627   3.507  0.00  0.00    +0.002 C 
ATOM     17  C   UNL     1     -41.086  25.240   1.579  0.00  0.00    +0.002 C 
ATOM     18  C   UNL     1     -43.342  25.960   2.055  0.00  0.00    +0.143 C 
ATOM     19  C   UNL     1     -42.887  26.644   3.182  0.00  0.00    +0.024 C 
ATOM     20  C   UNL     1     -42.442  25.258   1.253  0.00  0.00    +0.024 C 
BRANCH  18  23
ATOM     21  O   UNL     1     -45.535  25.416   2.493  0.00  0.00    -0.126 OA
ATOM     22  O   UNL     1     -45.081  26.558   0.670  0.00  0.00    -0.126 OA
ATOM     23  N   UNL     1     -44.722  25.979   1.722  0.00  0.00    +0.058 N 
ENDBRANCH  18  23
ENDBRANCH  13  15
ENDBRANCH   2  14
TORSDOF 6
ENDMDL
MODEL 8
REMARK VINA RESULT:      -5.5      5.295      8.043
REMARK  Name = 19540641
REMARK  6 active torsions:
REMARK  status: ('A' for Active; 'I' for Inactive)
REMARK    1  A    between atoms: C_2  and  C_3
REMARK    2  A    between atoms: C_2  and  C_14
REMARK    3  A    between atoms: C_4  and  O_9
REMARK    4  A    between atoms: C_8  and  O_11
REMARK    5  A    between atoms: C_13  and  C_15
REMARK    6  A    between atoms: C_18  and  N_23
REMARK                            x       y       z     vdW  Elec       q    Type
REMARK                         _______ _______ _______ _____ _____    ______ ____
ROOT
ATOM      1  O   UNL     1     -36.979  25.950   2.895  0.00  0.00    -0.286 OA
ATOM      2  C   UNL     1     -36.027  25.741   3.639  0.00  0.00    +0.199 C 
ENDROOT
BRANCH   2   3
ATOM      3  C   UNL     1     -35.799  24.376   4.173  0.00  0.00    +0.073 C 
ATOM      4  C   UNL     1     -35.759  23.273   3.322  0.00  0.00    +0.140 C 
ATOM      5  C   UNL     1     -35.625  24.205   5.546  0.00  0.00    +0.009 C 
ATOM      6  C   UNL     1     -35.545  21.997   3.843  0.00  0.00    +0.073 C 
ATOM      7  C   UNL     1     -35.410  22.930   6.068  0.00  0.00    +0.037 C 
ATOM      8  C   UNL     1     -35.370  21.825   5.216  0.00  0.00    +0.137 C 
BRANCH   4   9
ATOM      9  O   UNL     1     -35.927  23.419   1.977  0.00  0.00    -0.505 OA
ATOM     10  H   UNL     1     -35.271  23.107   1.386  0.00  0.00    +0.292 HD
ENDBRANCH   4   9
BRANCH   8  11
ATOM     11  O   UNL     1     -35.158  20.581   5.725  0.00  0.00    -0.505 OA
ATOM     12  H   UNL     1     -35.741  20.235   6.372  0.00  0.00    +0.292 HD
ENDBRANCH   8  11
ENDBRANCH   2   3
BRANCH   2  14
ATOM     13  C   UNL     1     -33.761  26.657   3.693  0.00  0.00    +0.003 C 
ATOM     14  C   UNL     1     -35.050  26.803   4.014  0.00  0.00    +0.042 C 
BRANCH  13  15
ATOM     15  C   UNL     1     -32.679  27.582   3.989  0.00  0.00    +0.000 C 
ATOM     16  C   UNL     1     -31.854  28.043   2.963  0.00  0.00    +0.002 C 
ATOM     17  C   UNL     1     -32.467  28.011   5.300  0.00  0.00    +0.002 C 
ATOM     18  C   UNL     1     -30.605  29.359   4.558  0.00  0.00    +0.143 C 
ATOM     19  C   UNL     1     -30.816  28.931   3.247  0.00  0.00    +0.024 C 
ATOM     20  C   UNL     1     -31.430  28.900   5.584  0.00  0.00    +0.024 C 
BRANCH  18  23
ATOM     21  O   UNL     1     -29.834  31.458   5.102  0.00  0.00    -0.126 OA
ATOM     22  O   UNL     1     -28.371  29.839   4.838  0.00  0.00    -0.126 OA
ATOM     23  N   UNL     1     -29.550  30.264   4.847  0.00  0.00    +0.058 N 
ENDBRANCH  18  23
ENDBRANCH  13  15
ENDBRANCH   2  14
TORSDOF 6
ENDMDL
MODEL 9
REMARK VINA RESULT:      -5.5      5.579      8.005
REMARK  Name = 19540641
REMARK  6 active torsions:
REMARK  status: ('A' for Active; 'I' for Inactive)
REMARK    1  A    between atoms: C_2  and  C_3
REMARK    2  A    between atoms: C_2  and  C_14
REMARK    3  A    between atoms: C_4  and  O_9
REMARK    4  A    between atoms: C_8  and  O_11
REMARK    5  A    between atoms: C_13  and  C_15
REMARK    6  A    between atoms: C_18  and  N_23
REMARK                            x       y       z     vdW  Elec       q    Type
REMARK                         _______ _______ _______ _____ _____    ______ ____
ROOT
ATOM      1  O   UNL     1     -32.986  29.673   4.586  0.00  0.00    -0.286 OA
ATOM      2  C   UNL     1     -32.290  28.666   4.505  0.00  0.00    +0.199 C 
ENDROOT
BRANCH   2   3
ATOM      3  C   UNL     1     -30.893  28.697   5.000  0.00  0.00    +0.073 C 
ATOM      4  C   UNL     1     -30.617  28.919   6.349  0.00  0.00    +0.140 C 
ATOM      5  C   UNL     1     -29.848  28.504   4.097  0.00  0.00    +0.009 C 
ATOM      6  C   UNL     1     -29.296  28.946   6.796  0.00  0.00    +0.073 C 
ATOM      7  C   UNL     1     -28.527  28.530   4.543  0.00  0.00    +0.037 C 
ATOM      8  C   UNL     1     -28.251  28.752   5.894  0.00  0.00    +0.137 C 
BRANCH   4   9
ATOM      9  O   UNL     1     -31.625  29.111   7.247  0.00  0.00    -0.505 OA
ATOM     10  H   UNL     1     -32.117  29.908   7.236  0.00  0.00    +0.292 HD
ENDBRANCH   4   9
BRANCH   8  11
ATOM     11  O   UNL     1     -26.962  28.775   6.329  0.00  0.00    -0.505 OA
ATOM     12  H   UNL     1     -26.269  28.516   5.755  0.00  0.00    +0.292 HD
ENDBRANCH   8  11
ENDBRANCH   2   3
BRANCH   2  14
ATOM     13  C   UNL     1     -33.640  26.635   4.679  0.00  0.00    +0.003 C 
ATOM     14  C   UNL     1     -32.799  27.378   3.952  0.00  0.00    +0.042 C 
BRANCH  13  15
ATOM     15  C   UNL     1     -34.221  25.356   4.301  0.00  0.00    +0.000 C 
ATOM     16  C   UNL     1     -34.302  24.997   2.956  0.00  0.00    +0.002 C 
ATOM     17  C   UNL     1     -34.694  24.488   5.285  0.00  0.00    +0.002 C 
ATOM     18  C   UNL     1     -35.332  22.903   3.578  0.00  0.00    +0.143 C 
ATOM     19  C   UNL     1     -34.859  23.771   2.594  0.00  0.00    +0.024 C 
ATOM     20  C   UNL     1     -35.250  23.261   4.923  0.00  0.00    +0.024 C 
BRANCH  18  23
ATOM     21  O   UNL     1     -35.325  20.601   3.579  0.00  0.00    -0.126 OA
ATOM     22  O   UNL     1     -36.950  21.644   2.528  0.00  0.00    -0.126 OA
ATOM     23  N   UNL     1     -35.898  21.653   3.209  0.00  0.00    +0.058 N 
ENDBRANCH  18  23
ENDBRANCH  13  15
ENDBRANCH   2  14
TORSDOF 6
ENDMDL
