MODEL 1
REMARK VINA RESULT:      -6.2      0.000      0.000
REMARK  Name = 21122164
REMARK  3 active torsions:
REMARK  status: ('A' for Active; 'I' for Inactive)
REMARK    1  A    between atoms: N_3  and  S_9
REMARK    2  A    between atoms: C_8  and  C_13
REMARK    3  A    between atoms: C_13  and  N_17
REMARK                            x       y       z     vdW  Elec       q    Type
REMARK                         _______ _______ _______ _____ _____    ______ ____
ROOT
ATOM      1  O   UNL     1     -34.391  23.810   4.903  0.00  0.00    -0.273 OA
ATOM      2  N   UNL     1     -34.053  26.094   4.659  0.00  0.00    -0.275 N 
ATOM      3  N   UNL     1     -32.621  28.350   5.634  0.00  0.00    -0.150 NA
ATOM      4  C   UNL     1     -33.962  26.338   6.099  0.00  0.00    +0.113 C 
ATOM      5  C   UNL     1     -33.936  27.300   3.831  0.00  0.00    +0.113 C 
ATOM      6  C   UNL     1     -32.685  27.095   6.442  0.00  0.00    +0.117 C 
ATOM      7  C   UNL     1     -32.658  28.064   4.168  0.00  0.00    +0.117 C 
ATOM      8  C   UNL     1     -34.297  24.807   4.183  0.00  0.00    +0.249 C 
ENDROOT
BRANCH   3   9
ATOM      9  S   UNL     1     -31.432  29.482   6.129  0.00  0.00    +0.080 S 
ATOM     10  O   UNL     1     -31.871  30.851   5.361  0.00  0.00    -0.053 OA
ATOM     11  O   UNL     1     -30.156  29.060   5.582  0.00  0.00    -0.053 OA
ATOM     12  O   UNL     1     -31.585  29.703   7.553  0.00  0.00    -0.053 OA
ENDBRANCH   3   9
BRANCH   8  13
ATOM     13  C   UNL     1     -34.447  24.656   2.691  0.00  0.00    +0.195 C 
BRANCH  13  17
ATOM     14 CL   UNL     1     -33.954  19.270   1.476  0.00  0.00    -0.082 Cl
ATOM     15  S   UNL     1     -38.311  23.669   2.284  0.00  0.00    -0.026 S 
ATOM     16  O   UNL     1     -37.103  25.945   2.864  0.00  0.00    -0.259 OA
ATOM     17  N   UNL     1     -35.728  24.062   2.495  0.00  0.00    -0.281 N 
ATOM     18  C   UNL     1     -35.892  22.683   2.170  0.00  0.00    +0.070 A 
ATOM     19  C   UNL     1     -37.223  22.297   2.019  0.00  0.00    +0.050 A 
ATOM     20  C   UNL     1     -36.943  24.762   2.599  0.00  0.00    +0.293 A 
ATOM     21  C   UNL     1     -34.867  21.759   2.005  0.00  0.00    +0.029 C 
ATOM     22  C   UNL     1     -37.566  20.992   1.702  0.00  0.00    +0.009 C 
ATOM     23  C   UNL     1     -35.201  20.440   1.686  0.00  0.00    +0.059 C 
ATOM     24  C   UNL     1     -36.542  20.059   1.536  0.00  0.00    +0.012 C 
ENDBRANCH  13  17
ENDBRANCH   8  13
TORSDOF 3
ENDMDL
MODEL 2
REMARK VINA RESULT:      -6.1      1.456      2.224
REMARK  Name = 21122164
REMARK  3 active torsions:
REMARK  status: ('A' for Active; 'I' for Inactive)
REMARK    1  A    between atoms: N_3  and  S_9
REMARK    2  A    between atoms: C_8  and  C_13
REMARK    3  A    between atoms: C_13  and  N_17
REMARK                            x       y       z     vdW  Elec       q    Type
REMARK                         _______ _______ _______ _____ _____    ______ ____
ROOT
ATOM      1  O   UNL     1     -36.357  25.232   1.921  0.00  0.00    -0.273 OA
ATOM      2  N   UNL     1     -34.709  25.352   3.553  0.00  0.00    -0.275 N 
ATOM      3  N   UNL     1     -32.839  27.059   4.848  0.00  0.00    -0.150 NA
ATOM      4  C   UNL     1     -33.844  26.225   2.760  0.00  0.00    +0.113 C 
ATOM      5  C   UNL     1     -34.158  24.976   4.861  0.00  0.00    +0.113 C 
ATOM      6  C   UNL     1     -33.456  27.469   3.551  0.00  0.00    +0.117 C 
ATOM      7  C   UNL     1     -33.768  26.216   5.659  0.00  0.00    +0.117 C 
ATOM      8  C   UNL     1     -35.917  24.899   3.024  0.00  0.00    +0.249 C 
ENDROOT
BRANCH   3   9
ATOM      9  S   UNL     1     -32.044  28.309   5.710  0.00  0.00    +0.080 S 
ATOM     10  O   UNL     1     -32.563  28.102   7.242  0.00  0.00    -0.053 OA
ATOM     11  O   UNL     1     -32.562  29.580   5.238  0.00  0.00    -0.053 OA
ATOM     12  O   UNL     1     -30.620  28.041   5.684  0.00  0.00    -0.053 OA
ENDBRANCH   3   9
BRANCH   8  13
ATOM     13  C   UNL     1     -36.713  23.946   3.879  0.00  0.00    +0.195 C 
BRANCH  13  17
ATOM     14 CL   UNL     1     -34.062  19.510   1.873  0.00  0.00    -0.082 Cl
ATOM     15  S   UNL     1     -39.557  22.450   1.483  0.00  0.00    -0.026 S 
ATOM     16  O   UNL     1     -39.485  24.569   3.058  0.00  0.00    -0.259 OA
ATOM     17  N   UNL     1     -37.545  23.226   2.972  0.00  0.00    -0.281 N 
ATOM     18  C   UNL     1     -37.111  22.040   2.310  0.00  0.00    +0.070 A 
ATOM     19  C   UNL     1     -38.071  21.486   1.465  0.00  0.00    +0.050 A 
ATOM     20  C   UNL     1     -38.859  23.604   2.643  0.00  0.00    +0.293 A 
ATOM     21  C   UNL     1     -35.864  21.442   2.448  0.00  0.00    +0.029 C 
ATOM     22  C   UNL     1     -37.818  20.332   0.741  0.00  0.00    +0.009 C 
ATOM     23  C   UNL     1     -35.598  20.277   1.723  0.00  0.00    +0.059 C 
ATOM     24  C   UNL     1     -36.568  19.726   0.875  0.00  0.00    +0.012 C 
ENDBRANCH  13  17
ENDBRANCH   8  13
TORSDOF 3
ENDMDL
MODEL 3
REMARK VINA RESULT:      -6.0      2.463      3.122
REMARK  Name = 21122164
REMARK  3 active torsions:
REMARK  status: ('A' for Active; 'I' for Inactive)
REMARK    1  A    between atoms: N_3  and  S_9
REMARK    2  A    between atoms: C_8  and  C_13
REMARK    3  A    between atoms: C_13  and  N_17
REMARK                            x       y       z     vdW  Elec       q    Type
REMARK                         _______ _______ _______ _____ _____    ______ ____
ROOT
ATOM      1  O   UNL     1     -36.831  23.262   4.479  0.00  0.00    -0.273 OA
ATOM      2  N   UNL     1     -36.019  25.412   4.146  0.00  0.00    -0.275 N 
ATOM      3  N   UNL     1     -33.894  27.212   4.727  0.00  0.00    -0.150 NA
ATOM      4  C   UNL     1     -35.531  25.551   5.518  0.00  0.00    +0.113 C 
ATOM      5  C   UNL     1     -35.815  26.599   3.307  0.00  0.00    +0.113 C 
ATOM      6  C   UNL     1     -34.065  25.966   5.534  0.00  0.00    +0.117 C 
ATOM      7  C   UNL     1     -34.349  27.021   3.316  0.00  0.00    +0.117 C 
ATOM      8  C   UNL     1     -36.674  24.246   3.752  0.00  0.00    +0.249 C 
ENDROOT
BRANCH   3   9
ATOM      9  S   UNL     1     -32.385  28.003   4.909  0.00  0.00    +0.080 S 
ATOM     10  O   UNL     1     -31.849  27.468   6.352  0.00  0.00    -0.053 OA
ATOM     11  O   UNL     1     -32.636  29.427   5.032  0.00  0.00    -0.053 OA
ATOM     12  O   UNL     1     -31.486  27.501   3.888  0.00  0.00    -0.053 OA
ENDBRANCH   3   9
BRANCH   8  13
ATOM     13  C   UNL     1     -37.207  24.215   2.343  0.00  0.00    +0.195 C 
BRANCH  13  17
ATOM     14 CL   UNL     1     -32.168  24.788   0.105  0.00  0.00    -0.082 Cl
ATOM     15  S   UNL     1     -36.590  20.478   1.030  0.00  0.00    -0.026 S 
ATOM     16  O   UNL     1     -38.610  21.612   2.300  0.00  0.00    -0.259 OA
ATOM     17  N   UNL     1     -36.755  22.981   1.791  0.00  0.00    -0.281 N 
ATOM     18  C   UNL     1     -35.487  22.845   1.152  0.00  0.00    +0.070 A 
ATOM     19  C   UNL     1     -35.232  21.558   0.679  0.00  0.00    +0.050 A 
ATOM     20  C   UNL     1     -37.499  21.788   1.820  0.00  0.00    +0.293 A 
ATOM     21  C   UNL     1     -34.550  23.857   0.982  0.00  0.00    +0.029 C 
ATOM     22  C   UNL     1     -34.048  21.249   0.031  0.00  0.00    +0.009 C 
ATOM     23  C   UNL     1     -33.351  23.555   0.330  0.00  0.00    +0.059 C 
ATOM     24  C   UNL     1     -33.102  22.260  -0.143  0.00  0.00    +0.012 C 
ENDBRANCH  13  17
ENDBRANCH   8  13
TORSDOF 3
ENDMDL
MODEL 4
REMARK VINA RESULT:      -6.0      2.896      3.874
REMARK  Name = 21122164
REMARK  3 active torsions:
REMARK  status: ('A' for Active; 'I' for Inactive)
REMARK    1  A    between atoms: N_3  and  S_9
REMARK    2  A    between atoms: C_8  and  C_13
REMARK    3  A    between atoms: C_13  and  N_17
REMARK                            x       y       z     vdW  Elec       q    Type
REMARK                         _______ _______ _______ _____ _____    ______ ____
ROOT
ATOM      1  O   UNL     1     -36.191  26.716   2.475  0.00  0.00    -0.273 OA
ATOM      2  N   UNL     1     -34.484  26.364   4.011  0.00  0.00    -0.275 N 
ATOM      3  N   UNL     1     -32.186  27.508   5.236  0.00  0.00    -0.150 NA
ATOM      4  C   UNL     1     -33.471  27.028   3.190  0.00  0.00    +0.113 C 
ATOM      5  C   UNL     1     -33.978  25.814   5.273  0.00  0.00    +0.113 C 
ATOM      6  C   UNL     1     -32.748  28.107   3.987  0.00  0.00    +0.117 C 
ATOM      7  C   UNL     1     -33.253  26.888   6.079  0.00  0.00    +0.117 C 
ATOM      8  C   UNL     1     -35.792  26.242   3.542  0.00  0.00    +0.249 C 
ENDROOT
BRANCH   3   9
ATOM      9  S   UNL     1     -31.064  28.490   6.080  0.00  0.00    +0.080 S 
ATOM     10  O   UNL     1     -30.586  29.570   4.957  0.00  0.00    -0.053 OA
ATOM     11  O   UNL     1     -29.916  27.670   6.420  0.00  0.00    -0.053 OA
ATOM     12  O   UNL     1     -31.783  29.212   7.112  0.00  0.00    -0.053 OA
ENDBRANCH   3   9
BRANCH   8  13
ATOM     13  C   UNL     1     -36.755  25.482   4.418  0.00  0.00    +0.195 C 
BRANCH  13  17
ATOM     14 CL   UNL     1     -41.711  26.786   2.306  0.00  0.00    -0.082 Cl
ATOM     15  S   UNL     1     -37.521  22.157   2.316  0.00  0.00    -0.026 S 
ATOM     16  O   UNL     1     -35.476  22.884   3.822  0.00  0.00    -0.259 OA
ATOM     17  N   UNL     1     -37.253  24.422   3.606  0.00  0.00    -0.281 N 
ATOM     18  C   UNL     1     -38.512  24.495   2.939  0.00  0.00    +0.070 A 
ATOM     19  C   UNL     1     -38.819  23.356   2.195  0.00  0.00    +0.050 A 
ATOM     20  C   UNL     1     -36.568  23.216   3.381  0.00  0.00    +0.293 A 
ATOM     21  C   UNL     1     -39.396  25.565   2.985  0.00  0.00    +0.029 C 
ATOM     22  C   UNL     1     -40.003  23.255   1.483  0.00  0.00    +0.009 C 
ATOM     23  C   UNL     1     -40.594  25.475   2.270  0.00  0.00    +0.059 C 
ATOM     24  C   UNL     1     -40.895  24.326   1.525  0.00  0.00    +0.012 C 
ENDBRANCH  13  17
ENDBRANCH   8  13
TORSDOF 3
ENDMDL
MODEL 5
REMARK VINA RESULT:      -5.8      2.062      2.502
REMARK  Name = 21122164
REMARK  3 active torsions:
REMARK  status: ('A' for Active; 'I' for Inactive)
REMARK    1  A    between atoms: N_3  and  S_9
REMARK    2  A    between atoms: C_8  and  C_13
REMARK    3  A    between atoms: C_13  and  N_17
REMARK                            x       y       z     vdW  Elec       q    Type
REMARK                         _______ _______ _______ _____ _____    ______ ____
ROOT
ATOM      1  O   UNL     1     -36.703  23.660   4.066  0.00  0.00    -0.273 OA
ATOM      2  N   UNL     1     -35.638  25.722   3.964  0.00  0.00    -0.275 N 
ATOM      3  N   UNL     1     -33.591  27.340   5.094  0.00  0.00    -0.150 NA
ATOM      4  C   UNL     1     -35.525  25.850   5.417  0.00  0.00    +0.113 C 
ATOM      5  C   UNL     1     -35.110  26.865   3.210  0.00  0.00    +0.113 C 
ATOM      6  C   UNL     1     -34.084  26.134   5.826  0.00  0.00    +0.117 C 
ATOM      7  C   UNL     1     -33.667  27.156   3.613  0.00  0.00    +0.117 C 
ATOM      8  C   UNL     1     -36.268  24.608   3.408  0.00  0.00    +0.249 C 
ENDROOT
BRANCH   3   9
ATOM      9  S   UNL     1     -32.119  27.999   5.675  0.00  0.00    +0.080 S 
ATOM     10  O   UNL     1     -31.097  27.807   4.420  0.00  0.00    -0.053 OA
ATOM     11  O   UNL     1     -31.648  27.159   6.760  0.00  0.00    -0.053 OA
ATOM     12  O   UNL     1     -32.310  29.422   5.877  0.00  0.00    -0.053 OA
ENDBRANCH   3   9
BRANCH   8  13
ATOM     13  C   UNL     1     -36.406  24.590   1.907  0.00  0.00    +0.195 C 
BRANCH  13  17
ATOM     14 CL   UNL     1     -37.515  19.513  -0.022  0.00  0.00    -0.082 Cl
ATOM     15  S   UNL     1     -40.376  24.867   1.436  0.00  0.00    -0.026 S 
ATOM     16  O   UNL     1     -38.558  26.580   2.295  0.00  0.00    -0.259 OA
ATOM     17  N   UNL     1     -37.801  24.438   1.655  0.00  0.00    -0.281 N 
ATOM     18  C   UNL     1     -38.361  23.227   1.152  0.00  0.00    +0.070 A 
ATOM     19  C   UNL     1     -39.743  23.280   0.973  0.00  0.00    +0.050 A 
ATOM     20  C   UNL     1     -38.753  25.449   1.872  0.00  0.00    +0.293 A 
ATOM     21  C   UNL     1     -37.655  22.069   0.848  0.00  0.00    +0.029 C 
ATOM     22  C   UNL     1     -40.452  22.192   0.491  0.00  0.00    +0.009 C 
ATOM     23  C   UNL     1     -38.360  20.964   0.362  0.00  0.00    +0.059 C 
ATOM     24  C   UNL     1     -39.749  21.026   0.184  0.00  0.00    +0.012 C 
ENDBRANCH  13  17
ENDBRANCH   8  13
TORSDOF 3
ENDMDL
MODEL 6
REMARK VINA RESULT:      -5.7      2.683      3.650
REMARK  Name = 21122164
REMARK  3 active torsions:
REMARK  status: ('A' for Active; 'I' for Inactive)
REMARK    1  A    between atoms: N_3  and  S_9
REMARK    2  A    between atoms: C_8  and  C_13
REMARK    3  A    between atoms: C_13  and  N_17
REMARK                            x       y       z     vdW  Elec       q    Type
REMARK                         _______ _______ _______ _____ _____    ______ ____
ROOT
ATOM      1  O   UNL     1     -35.698  24.550   1.571  0.00  0.00    -0.273 OA
ATOM      2  N   UNL     1     -34.480  24.907   3.515  0.00  0.00    -0.275 N 
ATOM      3  N   UNL     1     -32.865  26.765   4.939  0.00  0.00    -0.150 NA
ATOM      4  C   UNL     1     -33.398  25.613   2.829  0.00  0.00    +0.113 C 
ATOM      5  C   UNL     1     -34.279  24.745   4.960  0.00  0.00    +0.113 C 
ATOM      6  C   UNL     1     -33.130  26.964   3.482  0.00  0.00    +0.117 C 
ATOM      7  C   UNL     1     -34.011  26.094   5.622  0.00  0.00    +0.117 C 
ATOM      8  C   UNL     1     -35.554  24.398   2.786  0.00  0.00    +0.249 C 
ENDROOT
BRANCH   3   9
ATOM      9  S   UNL     1     -32.219  28.125   5.759  0.00  0.00    +0.080 S 
ATOM     10  O   UNL     1     -30.608  27.911   5.636  0.00  0.00    -0.053 OA
ATOM     11  O   UNL     1     -32.573  28.013   7.162  0.00  0.00    -0.053 OA
ATOM     12  O   UNL     1     -32.568  29.314   5.006  0.00  0.00    -0.053 OA
ENDBRANCH   3   9
BRANCH   8  13
ATOM     13  C   UNL     1     -36.589  23.623   3.561  0.00  0.00    +0.195 C 
BRANCH  13  17
ATOM     14 CL   UNL     1     -41.385  24.348   0.878  0.00  0.00    -0.082 Cl
ATOM     15  S   UNL     1     -36.809  20.156   1.562  0.00  0.00    -0.026 S 
ATOM     16  O   UNL     1     -35.017  21.140   3.235  0.00  0.00    -0.259 OA
ATOM     17  N   UNL     1     -36.895  22.487   2.756  0.00  0.00    -0.281 N 
ATOM     18  C   UNL     1     -38.075  22.409   1.959  0.00  0.00    +0.070 A 
ATOM     19  C   UNL     1     -38.191  21.216   1.246  0.00  0.00    +0.050 A 
ATOM     20  C   UNL     1     -36.080  21.346   2.666  0.00  0.00    +0.293 A 
ATOM     21  C   UNL     1     -39.055  23.389   1.857  0.00  0.00    +0.029 C 
ATOM     22  C   UNL     1     -39.277  20.970   0.420  0.00  0.00    +0.009 C 
ATOM     23  C   UNL     1     -40.154  23.152   1.026  0.00  0.00    +0.059 C 
ATOM     24  C   UNL     1     -40.264  21.950   0.313  0.00  0.00    +0.012 C 
ENDBRANCH  13  17
ENDBRANCH   8  13
TORSDOF 3
ENDMDL
MODEL 7
REMARK VINA RESULT:      -5.7      3.214      4.448
REMARK  Name = 21122164
REMARK  3 active torsions:
REMARK  status: ('A' for Active; 'I' for Inactive)
REMARK    1  A    between atoms: N_3  and  S_9
REMARK    2  A    between atoms: C_8  and  C_13
REMARK    3  A    between atoms: C_13  and  N_17
REMARK                            x       y       z     vdW  Elec       q    Type
REMARK                         _______ _______ _______ _____ _____    ______ ____
ROOT
ATOM      1  O   UNL     1     -35.254  20.265   2.996  0.00  0.00    -0.273 OA
ATOM      2  N   UNL     1     -35.327  22.565   2.684  0.00  0.00    -0.275 N 
ATOM      3  N   UNL     1     -34.726  25.090   3.847  0.00  0.00    -0.150 NA
ATOM      4  C   UNL     1     -35.711  22.843   4.068  0.00  0.00    +0.113 C 
ATOM      5  C   UNL     1     -35.219  23.755   1.833  0.00  0.00    +0.113 C 
ATOM      6  C   UNL     1     -34.769  23.862   4.698  0.00  0.00    +0.117 C 
ATOM      7  C   UNL     1     -34.277  24.781   2.456  0.00  0.00    +0.117 C 
ATOM      8  C   UNL     1     -35.157  21.248   2.258  0.00  0.00    +0.249 C 
ENDROOT
BRANCH   3   9
ATOM      9  S   UNL     1     -33.987  26.458   4.568  0.00  0.00    +0.080 S 
ATOM     10  O   UNL     1     -34.817  27.712   3.940  0.00  0.00    -0.053 OA
ATOM     11  O   UNL     1     -32.624  26.542   4.079  0.00  0.00    -0.053 OA
ATOM     12  O   UNL     1     -34.256  26.417   5.992  0.00  0.00    -0.053 OA
ENDBRANCH   3   9
BRANCH   8  13
ATOM     13  C   UNL     1     -34.832  21.047   0.800  0.00  0.00    +0.195 C 
BRANCH  13  17
ATOM     14 CL   UNL     1     -32.607  16.016   0.115  0.00  0.00    -0.082 Cl
ATOM     15  S   UNL     1     -38.033  19.036  -0.533  0.00  0.00    -0.026 S 
ATOM     16  O   UNL     1     -37.681  21.552   0.191  0.00  0.00    -0.259 OA
ATOM     17  N   UNL     1     -35.806  20.124   0.317  0.00  0.00    -0.281 N 
ATOM     18  C   UNL     1     -35.500  18.756   0.053  0.00  0.00    +0.070 A 
ATOM     19  C   UNL     1     -36.589  18.019  -0.414  0.00  0.00    +0.050 A 
ATOM     20  C   UNL     1     -37.145  20.461   0.055  0.00  0.00    +0.293 A 
ATOM     21  C   UNL     1     -34.261  18.152   0.221  0.00  0.00    +0.029 C 
ATOM     22  C   UNL     1     -36.471  16.674  -0.722  0.00  0.00    +0.009 C 
ATOM     23  C   UNL     1     -34.131  16.795  -0.085  0.00  0.00    +0.059 C 
ATOM     24  C   UNL     1     -35.229  16.061  -0.555  0.00  0.00    +0.012 C 
ENDBRANCH  13  17
ENDBRANCH   8  13
TORSDOF 3
ENDMDL
MODEL 8
REMARK VINA RESULT:      -5.7      3.795      8.579
REMARK  Name = 21122164
REMARK  3 active torsions:
REMARK  status: ('A' for Active; 'I' for Inactive)
REMARK    1  A    between atoms: N_3  and  S_9
REMARK    2  A    between atoms: C_8  and  C_13
REMARK    3  A    between atoms: C_13  and  N_17
REMARK                            x       y       z     vdW  Elec       q    Type
REMARK                         _______ _______ _______ _____ _____    ______ ____
ROOT
ATOM      1  O   UNL     1     -31.486  27.373   3.499  0.00  0.00    -0.273 OA
ATOM      2  N   UNL     1     -33.632  26.643   4.006  0.00  0.00    -0.275 N 
ATOM      3  N   UNL     1     -35.473  24.489   3.767  0.00  0.00    -0.150 NA
ATOM      4  C   UNL     1     -33.823  25.984   2.714  0.00  0.00    +0.113 C 
ATOM      5  C   UNL     1     -34.791  26.568   4.903  0.00  0.00    +0.113 C 
ATOM      6  C   UNL     1     -34.254  24.534   2.903  0.00  0.00    +0.117 C 
ATOM      7  C   UNL     1     -35.229  25.120   5.099  0.00  0.00    +0.117 C 
ATOM      8  C   UNL     1     -32.446  27.326   4.273  0.00  0.00    +0.249 C 
ENDROOT
BRANCH   3   9
ATOM      9  S   UNL     1     -36.287  22.981   3.809  0.00  0.00    +0.080 S 
ATOM     10  O   UNL     1     -36.221  22.559   5.382  0.00  0.00    -0.053 OA
ATOM     11  O   UNL     1     -35.494  22.022   3.062  0.00  0.00    -0.053 OA
ATOM     12  O   UNL     1     -37.677  23.208   3.468  0.00  0.00    -0.053 OA
ENDBRANCH   3   9
BRANCH   8  13
ATOM     13  C   UNL     1     -32.360  28.037   5.599  0.00  0.00    +0.195 C 
BRANCH  13  17
ATOM     14 CL   UNL     1     -27.168  27.735   7.517  0.00  0.00    -0.082 Cl
ATOM     15  S   UNL     1     -31.009  31.662   4.549  0.00  0.00    -0.026 S 
ATOM     16  O   UNL     1     -33.346  30.471   4.239  0.00  0.00    -0.259 OA
ATOM     17  N   UNL     1     -31.652  29.247   5.337  0.00  0.00    -0.281 N 
ATOM     18  C   UNL     1     -30.294  29.439   5.725  0.00  0.00    +0.070 A 
ATOM     19  C   UNL     1     -29.783  30.690   5.379  0.00  0.00    +0.050 A 
ATOM     20  C   UNL     1     -32.211  30.357   4.680  0.00  0.00    +0.293 A 
ATOM     21  C   UNL     1     -29.498  28.513   6.388  0.00  0.00    +0.029 C 
ATOM     22  C   UNL     1     -28.479  31.047   5.680  0.00  0.00    +0.009 C 
ATOM     23  C   UNL     1     -28.180  28.862   6.697  0.00  0.00    +0.059 C 
ATOM     24  C   UNL     1     -27.675  30.121   6.346  0.00  0.00    +0.012 C 
ENDBRANCH  13  17
ENDBRANCH   8  13
TORSDOF 3
ENDMDL
MODEL 9
REMARK VINA RESULT:      -5.6      5.689      9.993
REMARK  Name = 21122164
REMARK  3 active torsions:
REMARK  status: ('A' for Active; 'I' for Inactive)
REMARK    1  A    between atoms: N_3  and  S_9
REMARK    2  A    between atoms: C_8  and  C_13
REMARK    3  A    between atoms: C_13  and  N_17
REMARK                            x       y       z     vdW  Elec       q    Type
REMARK                         _______ _______ _______ _____ _____    ______ ____
ROOT
ATOM      1  O   UNL     1     -34.494  19.901   1.611  0.00  0.00    -0.273 OA
ATOM      2  N   UNL     1     -35.980  19.003   0.070  0.00  0.00    -0.275 N 
ATOM      3  N   UNL     1     -36.855  16.611  -1.196  0.00  0.00    -0.150 NA
ATOM      4  C   UNL     1     -35.001  18.066  -0.482  0.00  0.00    +0.113 C 
ATOM      5  C   UNL     1     -37.296  18.957  -0.578  0.00  0.00    +0.113 C 
ATOM      6  C   UNL     1     -35.547  16.643  -0.475  0.00  0.00    +0.117 C 
ATOM      7  C   UNL     1     -37.851  17.535  -0.575  0.00  0.00    +0.117 C 
ATOM      8  C   UNL     1     -35.608  19.885   1.084  0.00  0.00    +0.249 C 
ENDROOT
BRANCH   3   9
ATOM      9  S   UNL     1     -37.446  15.047  -1.575  0.00  0.00    +0.080 S 
ATOM     10  O   UNL     1     -38.673  14.840  -0.522  0.00  0.00    -0.053 OA
ATOM     11  O   UNL     1     -36.413  14.084  -1.241  0.00  0.00    -0.053 OA
ATOM     12  O   UNL     1     -38.009  15.088  -2.910  0.00  0.00    -0.053 OA
ENDBRANCH   3   9
BRANCH   8  13
ATOM     13  C   UNL     1     -36.657  20.864   1.544  0.00  0.00    +0.195 C 
BRANCH  13  17
ATOM     14 CL   UNL     1     -35.282  22.252   6.732  0.00  0.00    -0.082 Cl
ATOM     15  S   UNL     1     -34.930  24.421   0.888  0.00  0.00    -0.026 S 
ATOM     16  O   UNL     1     -36.039  22.650  -0.729  0.00  0.00    -0.259 OA
ATOM     17  N   UNL     1     -36.007  22.132   1.574  0.00  0.00    -0.281 N 
ATOM     18  C   UNL     1     -35.547  22.730   2.784  0.00  0.00    +0.070 A 
ATOM     19  C   UNL     1     -34.939  23.972   2.600  0.00  0.00    +0.050 A 
ATOM     20  C   UNL     1     -35.757  22.913   0.432  0.00  0.00    +0.293 A 
ATOM     21  C   UNL     1     -35.662  22.183   4.056  0.00  0.00    +0.029 C 
ATOM     22  C   UNL     1     -34.434  24.694   3.669  0.00  0.00    +0.009 C 
ATOM     23  C   UNL     1     -35.156  22.903   5.142  0.00  0.00    +0.059 C 
ATOM     24  C   UNL     1     -34.546  24.151   4.949  0.00  0.00    +0.012 C 
ENDBRANCH  13  17
ENDBRANCH   8  13
TORSDOF 3
ENDMDL
