MODEL 1
REMARK VINA RESULT:      -5.9      0.000      0.000
REMARK  Name = 5315876
REMARK  11 active torsions:
REMARK  status: ('A' for Active; 'I' for Inactive)
REMARK    1  A    between atoms: O_1  and  C_3
REMARK    2  A    between atoms: O_1  and  C_16
REMARK    3  A    between atoms: C_3  and  C_5
REMARK    4  A    between atoms: C_4  and  C_6
REMARK    5  A    between atoms: C_8  and  O_12
REMARK    6  A    between atoms: C_10  and  O_14
REMARK    7  A    between atoms: C_16  and  C_18
REMARK    8  A    between atoms: C_18  and  C_19
REMARK    9  A    between atoms: C_19  and  C_20
REMARK   10  A    between atoms: C_23  and  O_26
REMARK   11  A    between atoms: C_25  and  O_28
REMARK                            x       y       z     vdW  Elec       q    Type
REMARK                         _______ _______ _______ _____ _____    ______ ____
ROOT
ATOM      1  O   UNL     1     -35.080  27.507   1.820  0.00  0.00    -0.437 OA
ENDROOT
BRANCH   1   3
ATOM      2  O   UNL     1     -36.822  28.935   1.305  0.00  0.00    -0.245 OA
ATOM      3  C   UNL     1     -36.386  27.853   1.664  0.00  0.00    +0.342 C 
BRANCH   3   5
ATOM      4  C   UNL     1     -37.337  25.650   1.136  0.00  0.00    +0.007 C 
ATOM      5  C   UNL     1     -37.206  26.670   2.014  0.00  0.00    +0.082 C 
BRANCH   4   6
ATOM      6  C   UNL     1     -38.104  24.437   1.368  0.00  0.00    +0.003 C 
ATOM      7  C   UNL     1     -37.779  23.265   0.685  0.00  0.00    +0.040 C 
ATOM      8  C   UNL     1     -38.514  22.101   0.907  0.00  0.00    +0.172 C 
ATOM      9  C   UNL     1     -39.166  24.445   2.274  0.00  0.00    +0.003 C 
ATOM     10  C   UNL     1     -39.575  22.109   1.813  0.00  0.00    +0.168 C 
ATOM     11  C   UNL     1     -39.901  23.280   2.495  0.00  0.00    +0.040 C 
BRANCH   8  12
ATOM     12  O   UNL     1     -38.188  20.962   0.234  0.00  0.00    -0.468 OA
ATOM     13  C   UNL     1     -36.915  20.384   0.516  0.00  0.00    +0.253 C 
ENDBRANCH   8  12
BRANCH  10  14
ATOM     14  O   UNL     1     -40.300  20.978   2.040  0.00  0.00    -0.503 OA
ATOM     15  H   UNL     1     -41.226  20.979   1.903  0.00  0.00    +0.292 HD
ENDBRANCH  10  14
ENDBRANCH   4   6
ENDBRANCH   3   5
ENDBRANCH   1   3
BRANCH   1  16
ATOM     16  C   UNL     1     -34.443  28.024   2.994  0.00  0.00    +0.273 C 
BRANCH  16  18
ATOM     17  O   UNL     1     -32.730  26.533   3.779  0.00  0.00    -0.292 OA
ATOM     18  C   UNL     1     -33.903  26.898   3.854  0.00  0.00    +0.199 C 
BRANCH  18  19
ATOM     19  C   UNL     1     -34.903  26.263   4.803  0.00  0.00    +0.095 C 
BRANCH  19  20
ATOM     20  C   UNL     1     -35.113  24.792   4.554  0.00  0.00    -0.011 C 
ATOM     21  C   UNL     1     -35.500  23.969   5.603  0.00  0.00    +0.036 C 
ATOM     22  C   UNL     1     -34.913  24.280   3.279  0.00  0.00    -0.001 C 
ATOM     23  C   UNL     1     -35.694  22.608   5.372  0.00  0.00    +0.167 C 
ATOM     24  C   UNL     1     -35.107  22.919   3.048  0.00  0.00    +0.039 C 
ATOM     25  C   UNL     1     -35.497  22.082   4.095  0.00  0.00    +0.167 C 
BRANCH  23  26
ATOM     26  O   UNL     1     -36.075  21.801   6.401  0.00  0.00    -0.503 OA
ATOM     27  H   UNL     1     -36.573  22.154   7.112  0.00  0.00    +0.292 HD
ENDBRANCH  23  26
BRANCH  25  28
ATOM     28  O   UNL     1     -35.683  20.754   3.856  0.00  0.00    -0.503 OA
ATOM     29  H   UNL     1     -35.222  20.117   4.366  0.00  0.00    +0.292 HD
ENDBRANCH  25  28
ENDBRANCH  19  20
ENDBRANCH  18  19
ENDBRANCH  16  18
ENDBRANCH   1  16
TORSDOF 11
ENDMDL
MODEL 2
REMARK VINA RESULT:      -5.9      2.667      5.964
REMARK  Name = 5315876
REMARK  11 active torsions:
REMARK  status: ('A' for Active; 'I' for Inactive)
REMARK    1  A    between atoms: O_1  and  C_3
REMARK    2  A    between atoms: O_1  and  C_16
REMARK    3  A    between atoms: C_3  and  C_5
REMARK    4  A    between atoms: C_4  and  C_6
REMARK    5  A    between atoms: C_8  and  O_12
REMARK    6  A    between atoms: C_10  and  O_14
REMARK    7  A    between atoms: C_16  and  C_18
REMARK    8  A    between atoms: C_18  and  C_19
REMARK    9  A    between atoms: C_19  and  C_20
REMARK   10  A    between atoms: C_23  and  O_26
REMARK   11  A    between atoms: C_25  and  O_28
REMARK                            x       y       z     vdW  Elec       q    Type
REMARK                         _______ _______ _______ _____ _____    ______ ____
ROOT
ATOM      1  O   UNL     1     -30.824  27.642   5.859  0.00  0.00    -0.437 OA
ENDROOT
BRANCH   1   3
ATOM      2  O   UNL     1     -32.200  29.197   6.872  0.00  0.00    -0.245 OA
ATOM      3  C   UNL     1     -32.001  28.110   6.354  0.00  0.00    +0.342 C 
BRANCH   3   5
ATOM      4  C   UNL     1     -33.454  26.753   4.912  0.00  0.00    +0.007 C 
ATOM      5  C   UNL     1     -33.021  27.055   6.156  0.00  0.00    +0.082 C 
BRANCH   4   6
ATOM      6  C   UNL     1     -34.440  25.733   4.591  0.00  0.00    +0.003 C 
ATOM      7  C   UNL     1     -34.724  24.724   5.512  0.00  0.00    +0.040 C 
ATOM      8  C   UNL     1     -35.670  23.746   5.204  0.00  0.00    +0.172 C 
ATOM      9  C   UNL     1     -35.102  25.764   3.364  0.00  0.00    +0.003 C 
ATOM     10  C   UNL     1     -36.332  23.777   3.977  0.00  0.00    +0.168 C 
ATOM     11  C   UNL     1     -36.047  24.786   3.057  0.00  0.00    +0.040 C 
BRANCH   8  12
ATOM     12  O   UNL     1     -35.938  22.764   6.110  0.00  0.00    -0.468 OA
ATOM     13  C   UNL     1     -35.028  21.669   6.170  0.00  0.00    +0.253 C 
ENDBRANCH   8  12
BRANCH  10  14
ATOM     14  O   UNL     1     -37.259  22.828   3.665  0.00  0.00    -0.503 OA
ATOM     15  H   UNL     1     -36.990  21.945   3.510  0.00  0.00    +0.292 HD
ENDBRANCH  10  14
ENDBRANCH   4   6
ENDBRANCH   3   5
ENDBRANCH   1   3
BRANCH   1  16
ATOM     16  C   UNL     1     -30.134  28.530   4.971  0.00  0.00    +0.273 C 
BRANCH  16  18
ATOM     17  O   UNL     1     -30.273  27.047   3.086  0.00  0.00    -0.292 OA
ATOM     18  C   UNL     1     -30.434  28.185   3.525  0.00  0.00    +0.199 C 
BRANCH  18  19
ATOM     19  C   UNL     1     -30.941  29.333   2.671  0.00  0.00    +0.095 C 
BRANCH  19  20
ATOM     20  C   UNL     1     -32.428  29.287   2.431  0.00  0.00    -0.011 C 
ATOM     21  C   UNL     1     -33.272  30.045   3.231  0.00  0.00    +0.036 C 
ATOM     22  C   UNL     1     -32.932  28.487   1.416  0.00  0.00    -0.001 C 
ATOM     23  C   UNL     1     -34.648  30.003   3.010  0.00  0.00    +0.167 C 
ATOM     24  C   UNL     1     -34.308  28.445   1.194  0.00  0.00    +0.039 C 
ATOM     25  C   UNL     1     -35.166  29.202   1.992  0.00  0.00    +0.167 C 
BRANCH  23  26
ATOM     26  O   UNL     1     -35.477  30.746   3.795  0.00  0.00    -0.503 OA
ATOM     27  H   UNL     1     -35.546  30.560   4.711  0.00  0.00    +0.292 HD
ENDBRANCH  23  26
BRANCH  25  28
ATOM     28  O   UNL     1     -36.509  29.152   1.766  0.00  0.00    -0.503 OA
ATOM     29  H   UNL     1     -37.076  28.759   2.399  0.00  0.00    +0.292 HD
ENDBRANCH  25  28
ENDBRANCH  19  20
ENDBRANCH  18  19
ENDBRANCH  16  18
ENDBRANCH   1  16
TORSDOF 11
ENDMDL
MODEL 3
REMARK VINA RESULT:      -5.9      2.377      6.197
REMARK  Name = 5315876
REMARK  11 active torsions:
REMARK  status: ('A' for Active; 'I' for Inactive)
REMARK    1  A    between atoms: O_1  and  C_3
REMARK    2  A    between atoms: O_1  and  C_16
REMARK    3  A    between atoms: C_3  and  C_5
REMARK    4  A    between atoms: C_4  and  C_6
REMARK    5  A    between atoms: C_8  and  O_12
REMARK    6  A    between atoms: C_10  and  O_14
REMARK    7  A    between atoms: C_16  and  C_18
REMARK    8  A    between atoms: C_18  and  C_19
REMARK    9  A    between atoms: C_19  and  C_20
REMARK   10  A    between atoms: C_23  and  O_26
REMARK   11  A    between atoms: C_25  and  O_28
REMARK                            x       y       z     vdW  Elec       q    Type
REMARK                         _______ _______ _______ _____ _____    ______ ____
ROOT
ATOM      1  O   UNL     1     -34.418  21.715   0.910  0.00  0.00    -0.437 OA
ENDROOT
BRANCH   1   3
ATOM      2  O   UNL     1     -32.713  22.509  -0.433  0.00  0.00    -0.245 OA
ATOM      3  C   UNL     1     -33.681  22.677   0.291  0.00  0.00    +0.342 C 
BRANCH   3   5
ATOM      4  C   UNL     1     -33.651  24.777   1.564  0.00  0.00    +0.007 C 
ATOM      5  C   UNL     1     -34.264  23.989   0.654  0.00  0.00    +0.082 C 
BRANCH   4   6
ATOM      6  C   UNL     1     -34.119  26.085   1.994  0.00  0.00    +0.003 C 
ATOM      7  C   UNL     1     -33.400  26.804   2.949  0.00  0.00    +0.040 C 
ATOM      8  C   UNL     1     -33.849  28.059   3.361  0.00  0.00    +0.172 C 
ATOM      9  C   UNL     1     -35.287  26.620   1.451  0.00  0.00    +0.003 C 
ATOM     10  C   UNL     1     -35.017  28.594   2.818  0.00  0.00    +0.168 C 
ATOM     11  C   UNL     1     -35.736  27.875   1.864  0.00  0.00    +0.040 C 
BRANCH   8  12
ATOM     12  O   UNL     1     -33.138  28.752   4.295  0.00  0.00    -0.468 OA
ATOM     13  C   UNL     1     -32.063  28.066   4.932  0.00  0.00    +0.253 C 
ENDBRANCH   8  12
BRANCH  10  14
ATOM     14  O   UNL     1     -35.464  29.820   3.211  0.00  0.00    -0.503 OA
ATOM     15  H   UNL     1     -35.207  30.586   2.739  0.00  0.00    +0.292 HD
ENDBRANCH  10  14
ENDBRANCH   4   6
ENDBRANCH   3   5
ENDBRANCH   1   3
BRANCH   1  16
ATOM     16  C   UNL     1     -35.829  21.776   0.675  0.00  0.00    +0.273 C 
BRANCH  16  18
ATOM     17  O   UNL     1     -37.778  21.120   1.918  0.00  0.00    -0.292 OA
ATOM     18  C   UNL     1     -36.600  21.473   1.946  0.00  0.00    +0.199 C 
BRANCH  18  19
ATOM     19  C   UNL     1     -35.820  21.635   3.238  0.00  0.00    +0.095 C 
BRANCH  19  20
ATOM     20  C   UNL     1     -35.972  22.998   3.861  0.00  0.00    -0.011 C 
ATOM     21  C   UNL     1     -37.011  23.824   3.453  0.00  0.00    +0.036 C 
ATOM     22  C   UNL     1     -35.071  23.410   4.832  0.00  0.00    -0.001 C 
ATOM     23  C   UNL     1     -37.152  25.086   4.029  0.00  0.00    +0.167 C 
ATOM     24  C   UNL     1     -35.212  24.673   5.408  0.00  0.00    +0.039 C 
ATOM     25  C   UNL     1     -36.251  25.511   5.006  0.00  0.00    +0.167 C 
BRANCH  23  26
ATOM     26  O   UNL     1     -38.172  25.896   3.629  0.00  0.00    -0.503 OA
ATOM     27  H   UNL     1     -38.857  25.553   3.088  0.00  0.00    +0.292 HD
ENDBRANCH  23  26
BRANCH  25  28
ATOM     28  O   UNL     1     -36.378  26.742   5.576  0.00  0.00    -0.503 OA
ATOM     29  H   UNL     1     -36.567  27.488   5.042  0.00  0.00    +0.292 HD
ENDBRANCH  25  28
ENDBRANCH  19  20
ENDBRANCH  18  19
ENDBRANCH  16  18
ENDBRANCH   1  16
TORSDOF 11
ENDMDL
MODEL 4
REMARK VINA RESULT:      -5.9      2.779      5.461
REMARK  Name = 5315876
REMARK  11 active torsions:
REMARK  status: ('A' for Active; 'I' for Inactive)
REMARK    1  A    between atoms: O_1  and  C_3
REMARK    2  A    between atoms: O_1  and  C_16
REMARK    3  A    between atoms: C_3  and  C_5
REMARK    4  A    between atoms: C_4  and  C_6
REMARK    5  A    between atoms: C_8  and  O_12
REMARK    6  A    between atoms: C_10  and  O_14
REMARK    7  A    between atoms: C_16  and  C_18
REMARK    8  A    between atoms: C_18  and  C_19
REMARK    9  A    between atoms: C_19  and  C_20
REMARK   10  A    between atoms: C_23  and  O_26
REMARK   11  A    between atoms: C_25  and  O_28
REMARK                            x       y       z     vdW  Elec       q    Type
REMARK                         _______ _______ _______ _____ _____    ______ ____
ROOT
ATOM      1  O   UNL     1     -34.023  28.349   2.209  0.00  0.00    -0.437 OA
ENDROOT
BRANCH   1   3
ATOM      2  O   UNL     1     -36.284  27.982   1.910  0.00  0.00    -0.245 OA
ATOM      3  C   UNL     1     -35.183  27.646   2.315  0.00  0.00    +0.342 C 
BRANCH   3   5
ATOM      4  C   UNL     1     -35.864  25.502   3.299  0.00  0.00    +0.007 C 
ATOM      5  C   UNL     1     -34.876  26.382   3.021  0.00  0.00    +0.082 C 
BRANCH   4   6
ATOM      6  C   UNL     1     -35.686  24.227   3.976  0.00  0.00    +0.003 C 
ATOM      7  C   UNL     1     -35.694  23.041   3.242  0.00  0.00    +0.040 C 
ATOM      8  C   UNL     1     -35.524  21.818   3.891  0.00  0.00    +0.172 C 
ATOM      9  C   UNL     1     -35.510  24.190   5.359  0.00  0.00    +0.003 C 
ATOM     10  C   UNL     1     -35.346  21.781   5.274  0.00  0.00    +0.168 C 
ATOM     11  C   UNL     1     -35.340  22.967   6.008  0.00  0.00    +0.040 C 
BRANCH   8  12
ATOM     12  O   UNL     1     -35.533  20.666   3.163  0.00  0.00    -0.468 OA
ATOM     13  C   UNL     1     -36.107  20.726   1.860  0.00  0.00    +0.253 C 
ENDBRANCH   8  12
BRANCH  10  14
ATOM     14  O   UNL     1     -35.177  20.593   5.919  0.00  0.00    -0.503 OA
ATOM     15  H   UNL     1     -34.900  19.836   5.441  0.00  0.00    +0.292 HD
ENDBRANCH  10  14
ENDBRANCH   4   6
ENDBRANCH   3   5
ENDBRANCH   1   3
BRANCH   1  16
ATOM     16  C   UNL     1     -34.172  29.738   1.892  0.00  0.00    +0.273 C 
BRANCH  16  18
ATOM     17  O   UNL     1     -35.107  30.817   3.824  0.00  0.00    -0.292 OA
ATOM     18  C   UNL     1     -34.106  30.587   3.147  0.00  0.00    +0.199 C 
BRANCH  18  19
ATOM     19  C   UNL     1     -32.731  31.125   3.502  0.00  0.00    +0.095 C 
BRANCH  19  20
ATOM     20  C   UNL     1     -31.939  30.200   4.388  0.00  0.00    -0.011 C 
ATOM     21  C   UNL     1     -32.108  30.262   5.765  0.00  0.00    +0.036 C 
ATOM     22  C   UNL     1     -31.050  29.301   3.817  0.00  0.00    -0.001 C 
ATOM     23  C   UNL     1     -31.374  29.406   6.586  0.00  0.00    +0.167 C 
ATOM     24  C   UNL     1     -30.317  28.445   4.638  0.00  0.00    +0.039 C 
ATOM     25  C   UNL     1     -30.478  28.498   6.022  0.00  0.00    +0.167 C 
BRANCH  23  26
ATOM     26  O   UNL     1     -31.540  29.467   7.936  0.00  0.00    -0.503 OA
ATOM     27  H   UNL     1     -31.246  28.759   8.476  0.00  0.00    +0.292 HD
ENDBRANCH  23  26
BRANCH  25  28
ATOM     28  O   UNL     1     -29.755  27.657   6.813  0.00  0.00    -0.503 OA
ATOM     29  H   UNL     1     -29.148  27.056   6.428  0.00  0.00    +0.292 HD
ENDBRANCH  25  28
ENDBRANCH  19  20
ENDBRANCH  18  19
ENDBRANCH  16  18
ENDBRANCH   1  16
TORSDOF 11
ENDMDL
MODEL 5
REMARK VINA RESULT:      -5.8      3.074      5.851
REMARK  Name = 5315876
REMARK  11 active torsions:
REMARK  status: ('A' for Active; 'I' for Inactive)
REMARK    1  A    between atoms: O_1  and  C_3
REMARK    2  A    between atoms: O_1  and  C_16
REMARK    3  A    between atoms: C_3  and  C_5
REMARK    4  A    between atoms: C_4  and  C_6
REMARK    5  A    between atoms: C_8  and  O_12
REMARK    6  A    between atoms: C_10  and  O_14
REMARK    7  A    between atoms: C_16  and  C_18
REMARK    8  A    between atoms: C_18  and  C_19
REMARK    9  A    between atoms: C_19  and  C_20
REMARK   10  A    between atoms: C_23  and  O_26
REMARK   11  A    between atoms: C_25  and  O_28
REMARK                            x       y       z     vdW  Elec       q    Type
REMARK                         _______ _______ _______ _____ _____    ______ ____
ROOT
ATOM      1  O   UNL     1     -32.224  29.328   6.489  0.00  0.00    -0.437 OA
ENDROOT
BRANCH   1   3
ATOM      2  O   UNL     1     -30.546  27.745   6.356  0.00  0.00    -0.245 OA
ATOM      3  C   UNL     1     -31.721  28.072   6.341  0.00  0.00    +0.342 C 
BRANCH   3   5
ATOM      4  C   UNL     1     -33.405  26.979   4.925  0.00  0.00    +0.007 C 
ATOM      5  C   UNL     1     -32.866  27.152   6.153  0.00  0.00    +0.082 C 
BRANCH   4   6
ATOM      6  C   UNL     1     -34.520  26.099   4.614  0.00  0.00    +0.003 C 
ATOM      7  C   UNL     1     -34.759  24.972   5.401  0.00  0.00    +0.040 C 
ATOM      8  C   UNL     1     -35.828  24.128   5.103  0.00  0.00    +0.172 C 
ATOM      9  C   UNL     1     -35.349  26.381   3.528  0.00  0.00    +0.003 C 
ATOM     10  C   UNL     1     -36.658  24.410   4.017  0.00  0.00    +0.168 C 
ATOM     11  C   UNL     1     -36.418  25.535   3.230  0.00  0.00    +0.040 C 
BRANCH   8  12
ATOM     12  O   UNL     1     -36.052  23.030   5.878  0.00  0.00    -0.468 OA
ATOM     13  C   UNL     1     -34.964  22.125   6.052  0.00  0.00    +0.253 C 
ENDBRANCH   8  12
BRANCH  10  14
ATOM     14  O   UNL     1     -37.706  23.593   3.717  0.00  0.00    -0.503 OA
ATOM     15  H   UNL     1     -37.570  22.671   3.622  0.00  0.00    +0.292 HD
ENDBRANCH  10  14
ENDBRANCH   4   6
ENDBRANCH   3   5
ENDBRANCH   1   3
BRANCH   1  16
ATOM     16  C   UNL     1     -31.637  30.328   5.647  0.00  0.00    +0.273 C 
BRANCH  16  18
ATOM     17  O   UNL     1     -33.659  30.722   4.412  0.00  0.00    -0.292 OA
ATOM     18  C   UNL     1     -32.448  30.508   4.379  0.00  0.00    +0.199 C 
BRANCH  18  19
ATOM     19  C   UNL     1     -31.665  30.409   3.082  0.00  0.00    +0.095 C 
BRANCH  19  20
ATOM     20  C   UNL     1     -31.659  29.022   2.494  0.00  0.00    -0.011 C 
ATOM     21  C   UNL     1     -30.617  28.156   2.798  0.00  0.00    +0.036 C 
ATOM     22  C   UNL     1     -32.692  28.630   1.655  0.00  0.00    -0.001 C 
ATOM     23  C   UNL     1     -30.610  26.872   2.253  0.00  0.00    +0.167 C 
ATOM     24  C   UNL     1     -32.686  27.346   1.111  0.00  0.00    +0.039 C 
ATOM     25  C   UNL     1     -31.645  26.468   1.409  0.00  0.00    +0.167 C 
BRANCH  23  26
ATOM     26  O   UNL     1     -29.589  26.022   2.552  0.00  0.00    -0.503 OA
ATOM     27  H   UNL     1     -28.995  26.230   3.247  0.00  0.00    +0.292 HD
ENDBRANCH  23  26
BRANCH  25  28
ATOM     28  O   UNL     1     -31.650  25.216   0.870  0.00  0.00    -0.503 OA
ATOM     29  H   UNL     1     -30.927  24.639   1.020  0.00  0.00    +0.292 HD
ENDBRANCH  25  28
ENDBRANCH  19  20
ENDBRANCH  18  19
ENDBRANCH  16  18
ENDBRANCH   1  16
TORSDOF 11
ENDMDL
MODEL 6
REMARK VINA RESULT:      -5.8      3.924      5.548
REMARK  Name = 5315876
REMARK  11 active torsions:
REMARK  status: ('A' for Active; 'I' for Inactive)
REMARK    1  A    between atoms: O_1  and  C_3
REMARK    2  A    between atoms: O_1  and  C_16
REMARK    3  A    between atoms: C_3  and  C_5
REMARK    4  A    between atoms: C_4  and  C_6
REMARK    5  A    between atoms: C_8  and  O_12
REMARK    6  A    between atoms: C_10  and  O_14
REMARK    7  A    between atoms: C_16  and  C_18
REMARK    8  A    between atoms: C_18  and  C_19
REMARK    9  A    between atoms: C_19  and  C_20
REMARK   10  A    between atoms: C_23  and  O_26
REMARK   11  A    between atoms: C_25  and  O_28
REMARK                            x       y       z     vdW  Elec       q    Type
REMARK                         _______ _______ _______ _____ _____    ______ ____
ROOT
ATOM      1  O   UNL     1     -34.153  24.901   0.544  0.00  0.00    -0.437 OA
ENDROOT
BRANCH   1   3
ATOM      2  O   UNL     1     -34.138  24.615  -1.749  0.00  0.00    -0.245 OA
ATOM      3  C   UNL     1     -33.826  24.274  -0.619  0.00  0.00    +0.342 C 
BRANCH   3   5
ATOM      4  C   UNL     1     -33.612  21.891  -0.066  0.00  0.00    +0.007 C 
ATOM      5  C   UNL     1     -33.015  23.085  -0.273  0.00  0.00    +0.082 C 
BRANCH   4   6
ATOM      6  C   UNL     1     -32.924  20.654   0.268  0.00  0.00    +0.003 C 
ATOM      7  C   UNL     1     -31.625  20.434  -0.191  0.00  0.00    +0.040 C 
ATOM      8  C   UNL     1     -30.964  19.248   0.129  0.00  0.00    +0.172 C 
ATOM      9  C   UNL     1     -33.563  19.688   1.045  0.00  0.00    +0.003 C 
ATOM     10  C   UNL     1     -31.603  18.282   0.908  0.00  0.00    +0.168 C 
ATOM     11  C   UNL     1     -32.901  18.502   1.365  0.00  0.00    +0.040 C 
BRANCH   8  12
ATOM     12  O   UNL     1     -29.695  19.044  -0.324  0.00  0.00    -0.468 OA
ATOM     13  C   UNL     1     -28.940  20.199  -0.682  0.00  0.00    +0.253 C 
ENDBRANCH   8  12
BRANCH  10  14
ATOM     14  O   UNL     1     -30.967  17.121   1.228  0.00  0.00    -0.503 OA
ATOM     15  H   UNL     1     -30.146  16.911   0.829  0.00  0.00    +0.292 HD
ENDBRANCH  10  14
ENDBRANCH   4   6
ENDBRANCH   3   5
ENDBRANCH   1   3
BRANCH   1  16
ATOM     16  C   UNL     1     -33.056  25.483   1.257  0.00  0.00    +0.273 C 
BRANCH  16  18
ATOM     17  O   UNL     1     -32.525  25.928   3.558  0.00  0.00    -0.292 OA
ATOM     18  C   UNL     1     -33.382  25.615   2.733  0.00  0.00    +0.199 C 
BRANCH  18  19
ATOM     19  C   UNL     1     -34.826  25.337   3.111  0.00  0.00    +0.095 C 
BRANCH  19  20
ATOM     20  C   UNL     1     -35.007  24.048   3.869  0.00  0.00    -0.011 C 
ATOM     21  C   UNL     1     -35.397  22.903   3.188  0.00  0.00    +0.036 C 
ATOM     22  C   UNL     1     -34.783  24.024   5.239  0.00  0.00    -0.001 C 
ATOM     23  C   UNL     1     -35.565  21.710   3.891  0.00  0.00    +0.167 C 
ATOM     24  C   UNL     1     -34.951  22.831   5.941  0.00  0.00    +0.039 C 
ATOM     25  C   UNL     1     -35.343  21.675   5.267  0.00  0.00    +0.167 C 
BRANCH  23  26
ATOM     26  O   UNL     1     -35.947  20.586   3.222  0.00  0.00    -0.503 OA
ATOM     27  H   UNL     1     -35.313  20.088   2.744  0.00  0.00    +0.292 HD
ENDBRANCH  23  26
BRANCH  25  28
ATOM     28  O   UNL     1     -35.504  20.515   5.965  0.00  0.00    -0.503 OA
ATOM     29  H   UNL     1     -35.873  19.763   5.545  0.00  0.00    +0.292 HD
ENDBRANCH  25  28
ENDBRANCH  19  20
ENDBRANCH  18  19
ENDBRANCH  16  18
ENDBRANCH   1  16
TORSDOF 11
ENDMDL
MODEL 7
REMARK VINA RESULT:      -5.8      2.235      3.532
REMARK  Name = 5315876
REMARK  11 active torsions:
REMARK  status: ('A' for Active; 'I' for Inactive)
REMARK    1  A    between atoms: O_1  and  C_3
REMARK    2  A    between atoms: O_1  and  C_16
REMARK    3  A    between atoms: C_3  and  C_5
REMARK    4  A    between atoms: C_4  and  C_6
REMARK    5  A    between atoms: C_8  and  O_12
REMARK    6  A    between atoms: C_10  and  O_14
REMARK    7  A    between atoms: C_16  and  C_18
REMARK    8  A    between atoms: C_18  and  C_19
REMARK    9  A    between atoms: C_19  and  C_20
REMARK   10  A    between atoms: C_23  and  O_26
REMARK   11  A    between atoms: C_25  and  O_28
REMARK                            x       y       z     vdW  Elec       q    Type
REMARK                         _______ _______ _______ _____ _____    ______ ____
ROOT
ATOM      1  O   UNL     1     -33.292  27.191   0.622  0.00  0.00    -0.437 OA
ENDROOT
BRANCH   1   3
ATOM      2  O   UNL     1     -31.930  25.713  -0.519  0.00  0.00    -0.245 OA
ATOM      3  C   UNL     1     -32.873  25.962   0.215  0.00  0.00    +0.342 C 
BRANCH   3   5
ATOM      4  C   UNL     1     -33.712  23.664   0.440  0.00  0.00    +0.007 C 
ATOM      5  C   UNL     1     -33.775  24.958   0.825  0.00  0.00    +0.082 C 
BRANCH   4   6
ATOM      6  C   UNL     1     -34.535  22.589   0.970  0.00  0.00    +0.003 C 
ATOM      7  C   UNL     1     -35.756  22.882   1.578  0.00  0.00    +0.040 C 
ATOM      8  C   UNL     1     -36.546  21.851   2.087  0.00  0.00    +0.172 C 
ATOM      9  C   UNL     1     -34.103  21.267   0.873  0.00  0.00    +0.003 C 
ATOM     10  C   UNL     1     -36.114  20.528   1.988  0.00  0.00    +0.168 C 
ATOM     11  C   UNL     1     -34.893  20.236   1.382  0.00  0.00    +0.040 C 
BRANCH   8  12
ATOM     12  O   UNL     1     -37.737  22.148   2.678  0.00  0.00    -0.468 OA
ATOM     13  C   UNL     1     -38.861  22.326   1.819  0.00  0.00    +0.253 C 
ENDBRANCH   8  12
BRANCH  10  14
ATOM     14  O   UNL     1     -36.878  19.512   2.480  0.00  0.00    -0.503 OA
ATOM     15  H   UNL     1     -36.610  19.058   3.254  0.00  0.00    +0.292 HD
ENDBRANCH  10  14
ENDBRANCH   4   6
ENDBRANCH   3   5
ENDBRANCH   1   3
BRANCH   1  16
ATOM     16  C   UNL     1     -34.674  27.280   0.986  0.00  0.00    +0.273 C 
BRANCH  16  18
ATOM     17  O   UNL     1     -35.522  29.135   2.255  0.00  0.00    -0.292 OA
ATOM     18  C   UNL     1     -34.847  28.107   2.246  0.00  0.00    +0.199 C 
BRANCH  18  19
ATOM     19  C   UNL     1     -34.136  27.577   3.478  0.00  0.00    +0.095 C 
BRANCH  19  20
ATOM     20  C   UNL     1     -34.724  26.293   4.001  0.00  0.00    -0.011 C 
ATOM     21  C   UNL     1     -36.097  26.095   3.942  0.00  0.00    +0.036 C 
ATOM     22  C   UNL     1     -33.885  25.326   4.536  0.00  0.00    -0.001 C 
ATOM     23  C   UNL     1     -36.641  24.906   4.426  0.00  0.00    +0.167 C 
ATOM     24  C   UNL     1     -34.429  24.136   5.020  0.00  0.00    +0.039 C 
ATOM     25  C   UNL     1     -35.807  23.927   4.966  0.00  0.00    +0.167 C 
BRANCH  23  26
ATOM     26  O   UNL     1     -37.988  24.713   4.367  0.00  0.00    -0.503 OA
ATOM     27  H   UNL     1     -38.336  23.991   3.881  0.00  0.00    +0.292 HD
ENDBRANCH  23  26
BRANCH  25  28
ATOM     28  O   UNL     1     -36.326  22.761   5.442  0.00  0.00    -0.503 OA
ATOM     29  H   UNL     1     -37.150  22.450   5.122  0.00  0.00    +0.292 HD
ENDBRANCH  25  28
ENDBRANCH  19  20
ENDBRANCH  18  19
ENDBRANCH  16  18
ENDBRANCH   1  16
TORSDOF 11
ENDMDL
MODEL 8
REMARK VINA RESULT:      -5.8      2.327      5.881
REMARK  Name = 5315876
REMARK  11 active torsions:
REMARK  status: ('A' for Active; 'I' for Inactive)
REMARK    1  A    between atoms: O_1  and  C_3
REMARK    2  A    between atoms: O_1  and  C_16
REMARK    3  A    between atoms: C_3  and  C_5
REMARK    4  A    between atoms: C_4  and  C_6
REMARK    5  A    between atoms: C_8  and  O_12
REMARK    6  A    between atoms: C_10  and  O_14
REMARK    7  A    between atoms: C_16  and  C_18
REMARK    8  A    between atoms: C_18  and  C_19
REMARK    9  A    between atoms: C_19  and  C_20
REMARK   10  A    between atoms: C_23  and  O_26
REMARK   11  A    between atoms: C_25  and  O_28
REMARK                            x       y       z     vdW  Elec       q    Type
REMARK                         _______ _______ _______ _____ _____    ______ ____
ROOT
ATOM      1  O   UNL     1     -34.290  21.632   0.976  0.00  0.00    -0.437 OA
ENDROOT
BRANCH   1   3
ATOM      2  O   UNL     1     -33.042  22.355  -0.829  0.00  0.00    -0.245 OA
ATOM      3  C   UNL     1     -33.790  22.558   0.114  0.00  0.00    +0.342 C 
BRANCH   3   5
ATOM      4  C   UNL     1     -33.708  24.581   1.504  0.00  0.00    +0.007 C 
ATOM      5  C   UNL     1     -34.317  23.880   0.522  0.00  0.00    +0.082 C 
BRANCH   4   6
ATOM      6  C   UNL     1     -34.124  25.889   1.984  0.00  0.00    +0.003 C 
ATOM      7  C   UNL     1     -35.298  26.468   1.500  0.00  0.00    +0.040 C 
ATOM      8  C   UNL     1     -35.697  27.722   1.961  0.00  0.00    +0.172 C 
ATOM      9  C   UNL     1     -33.350  26.565   2.927  0.00  0.00    +0.003 C 
ATOM     10  C   UNL     1     -34.923  28.398   2.905  0.00  0.00    +0.168 C 
ATOM     11  C   UNL     1     -33.750  27.820   3.387  0.00  0.00    +0.040 C 
BRANCH   8  12
ATOM     12  O   UNL     1     -36.846  28.278   1.481  0.00  0.00    -0.468 OA
ATOM     13  C   UNL     1     -37.656  27.465   0.636  0.00  0.00    +0.253 C 
ENDBRANCH   8  12
BRANCH  10  14
ATOM     14  O   UNL     1     -35.304  29.623   3.363  0.00  0.00    -0.503 OA
ATOM     15  H   UNL     1     -34.855  30.392   3.073  0.00  0.00    +0.292 HD
ENDBRANCH  10  14
ENDBRANCH   4   6
ENDBRANCH   3   5
ENDBRANCH   1   3
BRANCH   1  16
ATOM     16  C   UNL     1     -35.647  21.240   0.739  0.00  0.00    +0.273 C 
BRANCH  16  18
ATOM     17  O   UNL     1     -37.666  21.094   2.032  0.00  0.00    -0.292 OA
ATOM     18  C   UNL     1     -36.447  21.261   2.027  0.00  0.00    +0.199 C 
BRANCH  18  19
ATOM     19  C   UNL     1     -35.643  21.499   3.292  0.00  0.00    +0.095 C 
BRANCH  19  20
ATOM     20  C   UNL     1     -35.866  22.863   3.893  0.00  0.00    -0.011 C 
ATOM     21  C   UNL     1     -36.950  23.624   3.478  0.00  0.00    +0.036 C 
ATOM     22  C   UNL     1     -34.983  23.339   4.852  0.00  0.00    -0.001 C 
ATOM     23  C   UNL     1     -37.156  24.886   4.034  0.00  0.00    +0.167 C 
ATOM     24  C   UNL     1     -35.189  24.601   5.408  0.00  0.00    +0.039 C 
ATOM     25  C   UNL     1     -36.275  25.375   4.999  0.00  0.00    +0.167 C 
BRANCH  23  26
ATOM     26  O   UNL     1     -38.220  25.632   3.627  0.00  0.00    -0.503 OA
ATOM     27  H   UNL     1     -38.501  26.365   4.140  0.00  0.00    +0.292 HD
ENDBRANCH  23  26
BRANCH  25  28
ATOM     28  O   UNL     1     -36.465  26.606   5.549  0.00  0.00    -0.503 OA
ATOM     29  H   UNL     1     -36.255  27.377   5.059  0.00  0.00    +0.292 HD
ENDBRANCH  25  28
ENDBRANCH  19  20
ENDBRANCH  18  19
ENDBRANCH  16  18
ENDBRANCH   1  16
TORSDOF 11
ENDMDL
MODEL 9
REMARK VINA RESULT:      -5.8      1.563      4.630
REMARK  Name = 5315876
REMARK  11 active torsions:
REMARK  status: ('A' for Active; 'I' for Inactive)
REMARK    1  A    between atoms: O_1  and  C_3
REMARK    2  A    between atoms: O_1  and  C_16
REMARK    3  A    between atoms: C_3  and  C_5
REMARK    4  A    between atoms: C_4  and  C_6
REMARK    5  A    between atoms: C_8  and  O_12
REMARK    6  A    between atoms: C_10  and  O_14
REMARK    7  A    between atoms: C_16  and  C_18
REMARK    8  A    between atoms: C_18  and  C_19
REMARK    9  A    between atoms: C_19  and  C_20
REMARK   10  A    between atoms: C_23  and  O_26
REMARK   11  A    between atoms: C_25  and  O_28
REMARK                            x       y       z     vdW  Elec       q    Type
REMARK                         _______ _______ _______ _____ _____    ______ ____
ROOT
ATOM      1  O   UNL     1     -36.883  27.017   0.412  0.00  0.00    -0.437 OA
ENDROOT
BRANCH   1   3
ATOM      2  O   UNL     1     -35.909  28.250   2.106  0.00  0.00    -0.245 OA
ATOM      3  C   UNL     1     -36.198  27.190   1.574  0.00  0.00    +0.342 C 
BRANCH   3   5
ATOM      4  C   UNL     1     -36.190  25.499   3.356  0.00  0.00    +0.007 C 
ATOM      5  C   UNL     1     -35.854  25.847   2.094  0.00  0.00    +0.082 C 
BRANCH   4   6
ATOM      6  C   UNL     1     -35.916  24.211   3.973  0.00  0.00    +0.003 C 
ATOM      7  C   UNL     1     -36.039  23.040   3.225  0.00  0.00    +0.040 C 
ATOM      8  C   UNL     1     -35.777  21.804   3.817  0.00  0.00    +0.172 C 
ATOM      9  C   UNL     1     -35.533  24.147   5.313  0.00  0.00    +0.003 C 
ATOM     10  C   UNL     1     -35.392  21.740   5.156  0.00  0.00    +0.168 C 
ATOM     11  C   UNL     1     -35.271  22.911   5.904  0.00  0.00    +0.040 C 
BRANCH   8  12
ATOM     12  O   UNL     1     -35.900  20.667   3.077  0.00  0.00    -0.468 OA
ATOM     13  C   UNL     1     -34.855  20.380   2.150  0.00  0.00    +0.253 C 
ENDBRANCH   8  12
BRANCH  10  14
ATOM     14  O   UNL     1     -35.132  20.539   5.745  0.00  0.00    -0.503 OA
ATOM     15  H   UNL     1     -35.144  20.462   6.678  0.00  0.00    +0.292 HD
ENDBRANCH  10  14
ENDBRANCH   4   6
ENDBRANCH   3   5
ENDBRANCH   1   3
BRANCH   1  16
ATOM     16  C   UNL     1     -38.227  27.514   0.411  0.00  0.00    +0.273 C 
BRANCH  16  18
ATOM     17  O   UNL     1     -39.726  26.175  -0.906  0.00  0.00    -0.292 OA
ATOM     18  C   UNL     1     -39.218  26.387   0.195  0.00  0.00    +0.199 C 
BRANCH  18  19
ATOM     19  C   UNL     1     -39.532  25.548   1.421  0.00  0.00    +0.095 C 
BRANCH  19  20
ATOM     20  C   UNL     1     -39.170  24.095   1.259  0.00  0.00    -0.011 C 
ATOM     21  C   UNL     1     -39.846  23.136   2.000  0.00  0.00    +0.036 C 
ATOM     22  C   UNL     1     -38.165  23.736   0.372  0.00  0.00    -0.001 C 
ATOM     23  C   UNL     1     -39.511  21.790   1.851  0.00  0.00    +0.167 C 
ATOM     24  C   UNL     1     -37.830  22.390   0.223  0.00  0.00    +0.039 C 
ATOM     25  C   UNL     1     -38.502  21.418   0.962  0.00  0.00    +0.167 C 
BRANCH  23  26
ATOM     26  O   UNL     1     -40.175  20.849   2.578  0.00  0.00    -0.503 OA
ATOM     27  H   UNL     1     -40.247  19.972   2.254  0.00  0.00    +0.292 HD
ENDBRANCH  23  26
BRANCH  25  28
ATOM     28  O   UNL     1     -38.166  20.107   0.808  0.00  0.00    -0.503 OA
ATOM     29  H   UNL     1     -38.339  19.671  -0.003  0.00  0.00    +0.292 HD
ENDBRANCH  25  28
ENDBRANCH  19  20
ENDBRANCH  18  19
ENDBRANCH  16  18
ENDBRANCH   1  16
TORSDOF 11
ENDMDL
