MODEL 1
REMARK VINA RESULT:      -7.3      0.000      0.000
REMARK  Name = 5284571
REMARK  5 active torsions:
REMARK  status: ('A' for Active; 'I' for Inactive)
REMARK    1  A    between atoms: C_1  and  C_15
REMARK    2  A    between atoms: C_2  and  O_13
REMARK    3  A    between atoms: C_3  and  C_9
REMARK    4  A    between atoms: C_16  and  C_17
REMARK    5  A    between atoms: C_20  and  C_25
REMARK                            x       y       z     vdW  Elec       q    Type
REMARK                         _______ _______ _______ _____ _____    ______ ____
ROOT
ATOM      1  C   UNL     1     -35.301  22.007   3.492  0.00  0.00    +0.034 C 
ATOM      2  C   UNL     1     -35.363  22.048   4.877  0.00  0.00    +0.134 C 
ATOM      3  C   UNL     1     -35.367  24.463   4.778  0.00  0.00    +0.034 C 
ATOM      4  C   UNL     1     -35.269  23.171   2.740  0.00  0.00    +0.003 C 
ATOM      5  C   UNL     1     -35.397  23.284   5.523  0.00  0.00    +0.039 C 
ATOM      6  C   UNL     1     -35.302  24.405   3.386  0.00  0.00    +0.003 C 
ENDROOT
BRANCH   3   9
ATOM      7  N   UNL     1     -34.260  26.284   6.053  0.00  0.00    -0.343 N 
ATOM      8  N   UNL     1     -36.527  26.435   5.508  0.00  0.00    -0.285 NA
ATOM      9  C   UNL     1     -35.400  25.751   5.453  0.00  0.00    +0.117 C 
ATOM     10  H   UNL     1     -34.305  27.158   6.504  0.00  0.00    +0.144 HD
ATOM     11  H   UNL     1     -33.411  25.787   6.024  0.00  0.00    +0.144 HD
ATOM     12  H   UNL     1     -36.552  27.308   5.964  0.00  0.00    +0.188 HD
ENDBRANCH   3   9
BRANCH   2  13
ATOM     13  O   UNL     1     -35.395  20.911   5.629  0.00  0.00    -0.506 OA
ATOM     14  H   UNL     1     -35.059  20.919   6.504  0.00  0.00    +0.292 HD
ENDBRANCH   2  13
BRANCH   1  15
ATOM     15  C   UNL     1     -35.264  20.714   2.785  0.00  0.00    +0.003 C 
ATOM     16  C   UNL     1     -34.492  20.436   1.708  0.00  0.00    +0.000 C 
BRANCH  16  17
ATOM     17  C   UNL     1     -34.441  19.155   1.021  0.00  0.00    +0.000 C 
ATOM     18  C   UNL     1     -35.523  18.736   0.245  0.00  0.00    +0.000 C 
ATOM     19  C   UNL     1     -33.313  18.344   1.137  0.00  0.00    +0.000 C 
ATOM     20  C   UNL     1     -34.346  16.697  -0.296  0.00  0.00    +0.031 C 
ATOM     21  C   UNL     1     -35.475  17.508  -0.412  0.00  0.00    +0.003 C 
ATOM     22  C   UNL     1     -33.265  17.116   0.479  0.00  0.00    +0.003 C 
BRANCH  20  25
ATOM     23  N   UNL     1     -35.176  14.384  -0.657  0.00  0.00    -0.343 N 
ATOM     24  N   UNL     1     -33.403  15.213  -1.933  0.00  0.00    -0.285 NA
ATOM     25  C   UNL     1     -34.297  15.415  -0.982  0.00  0.00    +0.117 C 
ATOM     26  H   UNL     1     -35.125  13.525  -1.134  0.00  0.00    +0.144 HD
ATOM     27  H   UNL     1     -35.847  14.515   0.051  0.00  0.00    +0.144 HD
ATOM     28  H   UNL     1     -33.368  14.346  -2.400  0.00  0.00    +0.188 HD
ENDBRANCH  20  25
ENDBRANCH  16  17
ENDBRANCH   1  15
TORSDOF 5
ENDMDL
MODEL 2
REMARK VINA RESULT:      -7.0      1.286      1.947
REMARK  Name = 5284571
REMARK  5 active torsions:
REMARK  status: ('A' for Active; 'I' for Inactive)
REMARK    1  A    between atoms: C_1  and  C_15
REMARK    2  A    between atoms: C_2  and  O_13
REMARK    3  A    between atoms: C_3  and  C_9
REMARK    4  A    between atoms: C_16  and  C_17
REMARK    5  A    between atoms: C_20  and  C_25
REMARK                            x       y       z     vdW  Elec       q    Type
REMARK                         _______ _______ _______ _____ _____    ______ ____
ROOT
ATOM      1  C   UNL     1     -35.438  21.592   3.050  0.00  0.00    +0.034 C 
ATOM      2  C   UNL     1     -35.505  21.800   4.419  0.00  0.00    +0.134 C 
ATOM      3  C   UNL     1     -36.323  24.037   4.013  0.00  0.00    +0.034 C 
ATOM      4  C   UNL     1     -35.804  22.585   2.154  0.00  0.00    +0.003 C 
ATOM      5  C   UNL     1     -35.951  23.030   4.904  0.00  0.00    +0.039 C 
ATOM      6  C   UNL     1     -36.250  23.814   2.638  0.00  0.00    +0.003 C 
ENDROOT
BRANCH   3   9
ATOM      7  N   UNL     1     -37.815  26.019   3.887  0.00  0.00    -0.343 N 
ATOM      8  N   UNL     1     -36.227  25.844   5.593  0.00  0.00    -0.285 NA
ATOM      9  C   UNL     1     -36.786  25.320   4.519  0.00  0.00    +0.117 C 
ATOM     10  H   UNL     1     -38.113  26.885   4.247  0.00  0.00    +0.144 HD
ATOM     11  H   UNL     1     -38.242  25.645   3.083  0.00  0.00    +0.144 HD
ATOM     12  H   UNL     1     -36.540  26.713   5.937  0.00  0.00    +0.188 HD
ENDBRANCH   3   9
BRANCH   2  13
ATOM     13  O   UNL     1     -35.148  20.832   5.312  0.00  0.00    -0.506 OA
ATOM     14  H   UNL     1     -34.355  20.918   5.803  0.00  0.00    +0.292 HD
ENDBRANCH   2  13
BRANCH   1  15
ATOM     15  C   UNL     1     -34.971  20.301   2.513  0.00  0.00    +0.003 C 
ATOM     16  C   UNL     1     -34.106  20.154   1.482  0.00  0.00    +0.000 C 
BRANCH  16  17
ATOM     17  C   UNL     1     -33.629  18.880   0.963  0.00  0.00    +0.000 C 
ATOM     18  C   UNL     1     -32.294  18.514   1.133  0.00  0.00    +0.000 C 
ATOM     19  C   UNL     1     -34.507  18.027   0.295  0.00  0.00    +0.000 C 
ATOM     20  C   UNL     1     -32.715  16.441  -0.035  0.00  0.00    +0.031 C 
ATOM     21  C   UNL     1     -31.837  17.295   0.634  0.00  0.00    +0.003 C 
ATOM     22  C   UNL     1     -34.049  16.807  -0.204  0.00  0.00    +0.003 C 
BRANCH  20  25
ATOM     23  N   UNL     1     -31.553  14.265   0.255  0.00  0.00    -0.343 N 
ATOM     24  N   UNL     1     -32.448  14.857  -1.821  0.00  0.00    -0.285 NA
ATOM     25  C   UNL     1     -32.237  15.170  -0.555  0.00  0.00    +0.117 C 
ATOM     26  H   UNL     1     -31.238  13.411  -0.118  0.00  0.00    +0.144 HD
ATOM     27  H   UNL     1     -31.384  14.481   1.200  0.00  0.00    +0.144 HD
ATOM     28  H   UNL     1     -32.125  13.996  -2.176  0.00  0.00    +0.188 HD
ENDBRANCH  20  25
ENDBRANCH  16  17
ENDBRANCH   1  15
TORSDOF 5
ENDMDL
MODEL 3
REMARK VINA RESULT:      -6.7      1.305      8.978
REMARK  Name = 5284571
REMARK  5 active torsions:
REMARK  status: ('A' for Active; 'I' for Inactive)
REMARK    1  A    between atoms: C_1  and  C_15
REMARK    2  A    between atoms: C_2  and  O_13
REMARK    3  A    between atoms: C_3  and  C_9
REMARK    4  A    between atoms: C_16  and  C_17
REMARK    5  A    between atoms: C_20  and  C_25
REMARK                            x       y       z     vdW  Elec       q    Type
REMARK                         _______ _______ _______ _____ _____    ______ ____
ROOT
ATOM      1  C   UNL     1     -34.557  19.217   0.944  0.00  0.00    +0.034 C 
ATOM      2  C   UNL     1     -35.615  18.795   0.154  0.00  0.00    +0.134 C 
ATOM      3  C   UNL     1     -34.418  16.748  -0.311  0.00  0.00    +0.034 C 
ATOM      4  C   UNL     1     -33.430  18.428   1.117  0.00  0.00    +0.003 C 
ATOM      5  C   UNL     1     -35.545  17.553  -0.477  0.00  0.00    +0.039 C 
ATOM      6  C   UNL     1     -33.360  17.186   0.486  0.00  0.00    +0.003 C 
ENDROOT
BRANCH   3   9
ATOM      7  N   UNL     1     -35.216  14.419  -0.633  0.00  0.00    -0.343 N 
ATOM      8  N   UNL     1     -33.438  15.242  -1.905  0.00  0.00    -0.285 NA
ATOM      9  C   UNL     1     -34.345  15.454  -0.970  0.00  0.00    +0.117 C 
ATOM     10  H   UNL     1     -35.150  13.551  -1.092  0.00  0.00    +0.144 HD
ATOM     11  H   UNL     1     -35.898  14.557   0.064  0.00  0.00    +0.144 HD
ATOM     12  H   UNL     1     -33.387  14.366  -2.353  0.00  0.00    +0.188 HD
ENDBRANCH   3   9
BRANCH   2  13
ATOM     13  O   UNL     1     -36.729  19.561  -0.024  0.00  0.00    -0.506 OA
ATOM     14  H   UNL     1     -36.676  20.358  -0.515  0.00  0.00    +0.292 HD
ENDBRANCH   2  13
BRANCH   1  15
ATOM     15  C   UNL     1     -34.605  20.525   1.622  0.00  0.00    +0.003 C 
ATOM     16  C   UNL     1     -35.233  20.773   2.795  0.00  0.00    +0.000 C 
BRANCH  16  17
ATOM     17  C   UNL     1     -35.266  22.059   3.474  0.00  0.00    +0.000 C 
ATOM     18  C   UNL     1     -35.436  22.113   4.858  0.00  0.00    +0.000 C 
ATOM     19  C   UNL     1     -35.129  23.238   2.742  0.00  0.00    +0.000 C 
ATOM     20  C   UNL     1     -35.332  24.526   4.776  0.00  0.00    +0.031 C 
ATOM     21  C   UNL     1     -35.470  23.346   5.508  0.00  0.00    +0.003 C 
ATOM     22  C   UNL     1     -35.161  24.471   3.393  0.00  0.00    +0.003 C 
BRANCH  20  25
ATOM     23  N   UNL     1     -34.224  26.356   6.036  0.00  0.00    -0.343 N 
ATOM     24  N   UNL     1     -36.502  26.483   5.532  0.00  0.00    -0.285 NA
ATOM     25  C   UNL     1     -35.367  25.811   5.455  0.00  0.00    +0.117 C 
ATOM     26  H   UNL     1     -34.270  27.227   6.491  0.00  0.00    +0.144 HD
ATOM     27  H   UNL     1     -33.369  25.869   5.992  0.00  0.00    +0.144 HD
ATOM     28  H   UNL     1     -36.528  27.354   5.992  0.00  0.00    +0.188 HD
ENDBRANCH  20  25
ENDBRANCH  16  17
ENDBRANCH   1  15
TORSDOF 5
ENDMDL
MODEL 4
REMARK VINA RESULT:      -6.6      1.862      8.824
REMARK  Name = 5284571
REMARK  5 active torsions:
REMARK  status: ('A' for Active; 'I' for Inactive)
REMARK    1  A    between atoms: C_1  and  C_15
REMARK    2  A    between atoms: C_2  and  O_13
REMARK    3  A    between atoms: C_3  and  C_9
REMARK    4  A    between atoms: C_16  and  C_17
REMARK    5  A    between atoms: C_20  and  C_25
REMARK                            x       y       z     vdW  Elec       q    Type
REMARK                         _______ _______ _______ _____ _____    ______ ____
ROOT
ATOM      1  C   UNL     1     -33.911  18.972   0.895  0.00  0.00    +0.034 C 
ATOM      2  C   UNL     1     -34.759  18.047   0.306  0.00  0.00    +0.134 C 
ATOM      3  C   UNL     1     -32.893  16.531   0.064  0.00  0.00    +0.034 C 
ATOM      4  C   UNL     1     -32.564  18.700   1.075  0.00  0.00    +0.003 C 
ATOM      5  C   UNL     1     -34.247  16.818  -0.111  0.00  0.00    +0.039 C 
ATOM      6  C   UNL     1     -32.052  17.473   0.657  0.00  0.00    +0.003 C 
ENDROOT
BRANCH   3   9
ATOM      7  N   UNL     1     -31.391  14.577   0.371  0.00  0.00    -0.343 N 
ATOM      8  N   UNL     1     -32.789  14.708  -1.497  0.00  0.00    -0.285 NA
ATOM      9  C   UNL     1     -32.359  15.251  -0.373  0.00  0.00    +0.117 C 
ATOM     10  H   UNL     1     -31.044  13.711   0.057  0.00  0.00    +0.144 HD
ATOM     11  H   UNL     1     -31.056  14.968   1.211  0.00  0.00    +0.144 HD
ATOM     12  H   UNL     1     -32.429  13.840  -1.794  0.00  0.00    +0.188 HD
ENDBRANCH   3   9
BRANCH   2  13
ATOM     13  O   UNL     1     -36.086  18.302   0.124  0.00  0.00    -0.506 OA
ATOM     14  H   UNL     1     -36.429  19.154   0.312  0.00  0.00    +0.292 HD
ENDBRANCH   2  13
BRANCH   1  15
ATOM     15  C   UNL     1     -34.428  20.278   1.345  0.00  0.00    +0.003 C 
ATOM     16  C   UNL     1     -35.019  20.513   2.540  0.00  0.00    +0.000 C 
BRANCH  16  17
ATOM     17  C   UNL     1     -35.512  21.805   2.993  0.00  0.00    +0.000 C 
ATOM     18  C   UNL     1     -36.040  22.711   2.073  0.00  0.00    +0.000 C 
ATOM     19  C   UNL     1     -35.455  22.138   4.346  0.00  0.00    +0.000 C 
ATOM     20  C   UNL     1     -36.454  24.283   3.860  0.00  0.00    +0.031 C 
ATOM     21  C   UNL     1     -36.510  23.949   2.506  0.00  0.00    +0.003 C 
ATOM     22  C   UNL     1     -35.927  23.377   4.779  0.00  0.00    +0.003 C 
BRANCH  20  25
ATOM     23  N   UNL     1     -36.335  26.257   5.362  0.00  0.00    -0.343 N 
ATOM     24  N   UNL     1     -37.994  26.122   3.722  0.00  0.00    -0.285 NA
ATOM     25  C   UNL     1     -36.945  25.576   4.311  0.00  0.00    +0.117 C 
ATOM     26  H   UNL     1     -36.684  27.131   5.651  0.00  0.00    +0.144 HD
ATOM     27  H   UNL     1     -35.554  25.864   5.816  0.00  0.00    +0.144 HD
ATOM     28  H   UNL     1     -38.328  26.998   4.026  0.00  0.00    +0.188 HD
ENDBRANCH  20  25
ENDBRANCH  16  17
ENDBRANCH   1  15
TORSDOF 5
ENDMDL
MODEL 5
REMARK VINA RESULT:      -6.6      5.426      9.578
REMARK  Name = 5284571
REMARK  5 active torsions:
REMARK  status: ('A' for Active; 'I' for Inactive)
REMARK    1  A    between atoms: C_1  and  C_15
REMARK    2  A    between atoms: C_2  and  O_13
REMARK    3  A    between atoms: C_3  and  C_9
REMARK    4  A    between atoms: C_16  and  C_17
REMARK    5  A    between atoms: C_20  and  C_25
REMARK                            x       y       z     vdW  Elec       q    Type
REMARK                         _______ _______ _______ _____ _____    ______ ____
ROOT
ATOM      1  C   UNL     1     -37.091  24.353   3.617  0.00  0.00    +0.034 C 
ATOM      2  C   UNL     1     -38.260  25.012   3.269  0.00  0.00    +0.134 C 
ATOM      3  C   UNL     1     -39.039  23.002   2.178  0.00  0.00    +0.034 C 
ATOM      4  C   UNL     1     -36.878  23.031   3.257  0.00  0.00    +0.003 C 
ATOM      5  C   UNL     1     -39.240  24.332   2.546  0.00  0.00    +0.039 C 
ATOM      6  C   UNL     1     -37.857  22.352   2.534  0.00  0.00    +0.003 C 
ENDROOT
BRANCH   3   9
ATOM      7  N   UNL     1     -40.903  22.965   0.537  0.00  0.00    -0.343 N 
ATOM      8  N   UNL     1     -40.205  20.991   1.573  0.00  0.00    -0.285 NA
ATOM      9  C   UNL     1     -40.061  22.294   1.423  0.00  0.00    +0.117 C 
ATOM     10  H   UNL     1     -41.587  22.467   0.035  0.00  0.00    +0.144 HD
ATOM     11  H   UNL     1     -40.812  23.938   0.414  0.00  0.00    +0.144 HD
ATOM     12  H   UNL     1     -40.896  20.509   1.062  0.00  0.00    +0.188 HD
ENDBRANCH   3   9
BRANCH   2  13
ATOM     13  O   UNL     1     -38.482  26.312   3.618  0.00  0.00    -0.506 OA
ATOM     14  H   UNL     1     -38.248  27.001   3.028  0.00  0.00    +0.292 HD
ENDBRANCH   2  13
BRANCH   1  15
ATOM     15  C   UNL     1     -36.040  25.048   4.381  0.00  0.00    +0.003 C 
ATOM     16  C   UNL     1     -35.131  25.903   3.856  0.00  0.00    +0.000 C 
BRANCH  16  17
ATOM     17  C   UNL     1     -34.105  26.605   4.613  0.00  0.00    +0.000 C 
ATOM     18  C   UNL     1     -33.905  26.305   5.960  0.00  0.00    +0.000 C 
ATOM     19  C   UNL     1     -33.322  27.577   3.991  0.00  0.00    +0.000 C 
ATOM     20  C   UNL     1     -32.139  27.951   6.064  0.00  0.00    +0.031 C 
ATOM     21  C   UNL     1     -32.923  26.978   6.686  0.00  0.00    +0.003 C 
ATOM     22  C   UNL     1     -32.339  28.250   4.717  0.00  0.00    +0.003 C 
BRANCH  20  25
ATOM     23  N   UNL     1     -29.766  28.332   6.688  0.00  0.00    -0.343 N 
ATOM     24  N   UNL     1     -31.460  29.615   7.659  0.00  0.00    -0.285 NA
ATOM     25  C   UNL     1     -31.115  28.653   6.822  0.00  0.00    +0.117 C 
ATOM     26  H   UNL     1     -29.089  28.819   7.211  0.00  0.00    +0.144 HD
ATOM     27  H   UNL     1     -29.489  27.616   6.071  0.00  0.00    +0.144 HD
ATOM     28  H   UNL     1     -30.768  30.092   8.173  0.00  0.00    +0.188 HD
ENDBRANCH  20  25
ENDBRANCH  16  17
ENDBRANCH   1  15
TORSDOF 5
ENDMDL
MODEL 6
REMARK VINA RESULT:      -6.5      1.260      8.933
REMARK  Name = 5284571
REMARK  5 active torsions:
REMARK  status: ('A' for Active; 'I' for Inactive)
REMARK    1  A    between atoms: C_1  and  C_15
REMARK    2  A    between atoms: C_2  and  O_13
REMARK    3  A    between atoms: C_3  and  C_9
REMARK    4  A    between atoms: C_16  and  C_17
REMARK    5  A    between atoms: C_20  and  C_25
REMARK                            x       y       z     vdW  Elec       q    Type
REMARK                         _______ _______ _______ _____ _____    ______ ____
ROOT
ATOM      1  C   UNL     1     -34.674  19.177   0.839  0.00  0.00    +0.034 C 
ATOM      2  C   UNL     1     -33.582  18.324   0.890  0.00  0.00    +0.134 C 
ATOM      3  C   UNL     1     -34.764  16.768  -0.532  0.00  0.00    +0.034 C 
ATOM      4  C   UNL     1     -35.810  18.847   0.117  0.00  0.00    +0.003 C 
ATOM      5  C   UNL     1     -33.628  17.113   0.199  0.00  0.00    +0.039 C 
ATOM      6  C   UNL     1     -35.856  17.636  -0.573  0.00  0.00    +0.003 C 
ENDROOT
BRANCH   3   9
ATOM      7  N   UNL     1     -35.158  14.318  -0.606  0.00  0.00    -0.343 N 
ATOM      8  N   UNL     1     -34.520  15.468  -2.537  0.00  0.00    -0.285 NA
ATOM      9  C   UNL     1     -34.812  15.505  -1.250  0.00  0.00    +0.117 C 
ATOM     10  H   UNL     1     -35.185  13.473  -1.112  0.00  0.00    +0.144 HD
ATOM     11  H   UNL     1     -35.376  14.325   0.354  0.00  0.00    +0.144 HD
ATOM     12  H   UNL     1     -34.553  14.613  -3.026  0.00  0.00    +0.188 HD
ENDBRANCH   3   9
BRANCH   2  13
ATOM     13  O   UNL     1     -32.458  18.636   1.596  0.00  0.00    -0.506 OA
ATOM     14  H   UNL     1     -31.648  18.782   1.147  0.00  0.00    +0.292 HD
ENDBRANCH   2  13
BRANCH   1  15
ATOM     15  C   UNL     1     -34.651  20.463   1.559  0.00  0.00    +0.003 C 
ATOM     16  C   UNL     1     -35.448  20.784   2.606  0.00  0.00    +0.000 C 
BRANCH  16  17
ATOM     17  C   UNL     1     -35.413  22.046   3.329  0.00  0.00    +0.000 C 
ATOM     18  C   UNL     1     -35.490  22.054   4.722  0.00  0.00    +0.000 C 
ATOM     19  C   UNL     1     -35.305  23.249   2.631  0.00  0.00    +0.000 C 
ATOM     20  C   UNL     1     -35.350  24.466   4.717  0.00  0.00    +0.031 C 
ATOM     21  C   UNL     1     -35.459  23.263   5.416  0.00  0.00    +0.003 C 
ATOM     22  C   UNL     1     -35.272  24.458   3.325  0.00  0.00    +0.003 C 
BRANCH  20  25
ATOM     23  N   UNL     1     -34.148  26.189   6.041  0.00  0.00    -0.343 N 
ATOM     24  N   UNL     1     -36.415  26.455   5.541  0.00  0.00    -0.285 NA
ATOM     25  C   UNL     1     -35.318  25.727   5.441  0.00  0.00    +0.117 C 
ATOM     26  H   UNL     1     -34.149  27.045   6.526  0.00  0.00    +0.144 HD
ATOM     27  H   UNL     1     -33.321  25.659   5.980  0.00  0.00    +0.144 HD
ATOM     28  H   UNL     1     -36.396  27.310   6.031  0.00  0.00    +0.188 HD
ENDBRANCH  20  25
ENDBRANCH  16  17
ENDBRANCH   1  15
TORSDOF 5
ENDMDL
MODEL 7
REMARK VINA RESULT:      -6.5      1.850      2.408
REMARK  Name = 5284571
REMARK  5 active torsions:
REMARK  status: ('A' for Active; 'I' for Inactive)
REMARK    1  A    between atoms: C_1  and  C_15
REMARK    2  A    between atoms: C_2  and  O_13
REMARK    3  A    between atoms: C_3  and  C_9
REMARK    4  A    between atoms: C_16  and  C_17
REMARK    5  A    between atoms: C_20  and  C_25
REMARK                            x       y       z     vdW  Elec       q    Type
REMARK                         _______ _______ _______ _____ _____    ______ ____
ROOT
ATOM      1  C   UNL     1     -36.036  21.893   2.293  0.00  0.00    +0.034 C 
ATOM      2  C   UNL     1     -37.390  22.087   2.520  0.00  0.00    +0.134 C 
ATOM      3  C   UNL     1     -36.913  24.330   3.284  0.00  0.00    +0.034 C 
ATOM      4  C   UNL     1     -35.113  22.894   2.554  0.00  0.00    +0.003 C 
ATOM      5  C   UNL     1     -37.831  23.314   3.018  0.00  0.00    +0.039 C 
ATOM      6  C   UNL     1     -35.554  24.119   3.052  0.00  0.00    +0.003 C 
ENDROOT
BRANCH   3   9
ATOM      7  N   UNL     1     -36.742  26.219   4.887  0.00  0.00    -0.343 N 
ATOM      8  N   UNL     1     -38.410  26.208   3.251  0.00  0.00    -0.285 NA
ATOM      9  C   UNL     1     -37.373  25.608   3.804  0.00  0.00    +0.117 C 
ATOM     10  H   UNL     1     -37.069  27.084   5.223  0.00  0.00    +0.144 HD
ATOM     11  H   UNL     1     -35.969  25.784   5.315  0.00  0.00    +0.144 HD
ATOM     12  H   UNL     1     -38.723  27.074   3.602  0.00  0.00    +0.188 HD
ENDBRANCH   3   9
BRANCH   2  13
ATOM     13  O   UNL     1     -38.309  21.112   2.267  0.00  0.00    -0.506 OA
ATOM     14  H   UNL     1     -38.024  20.254   2.016  0.00  0.00    +0.292 HD
ENDBRANCH   2  13
BRANCH   1  15
ATOM     15  C   UNL     1     -35.544  20.606   1.767  0.00  0.00    +0.003 C 
ATOM     16  C   UNL     1     -34.255  20.332   1.460  0.00  0.00    +0.000 C 
BRANCH  16  17
ATOM     17  C   UNL     1     -33.765  19.056   0.958  0.00  0.00    +0.000 C 
ATOM     18  C   UNL     1     -32.434  18.693   1.159  0.00  0.00    +0.000 C 
ATOM     19  C   UNL     1     -34.627  18.198   0.277  0.00  0.00    +0.000 C 
ATOM     20  C   UNL     1     -32.826  16.613  -0.005  0.00  0.00    +0.031 C 
ATOM     21  C   UNL     1     -31.964  17.473   0.677  0.00  0.00    +0.003 C 
ATOM     22  C   UNL     1     -34.157  16.975  -0.205  0.00  0.00    +0.003 C 
BRANCH  20  25
ATOM     23  N   UNL     1     -31.622  14.463   0.309  0.00  0.00    -0.343 N 
ATOM     24  N   UNL     1     -32.561  14.997  -1.763  0.00  0.00    -0.285 NA
ATOM     25  C   UNL     1     -32.335  15.339  -0.507  0.00  0.00    +0.117 C 
ATOM     26  H   UNL     1     -31.299  13.606  -0.052  0.00  0.00    +0.144 HD
ATOM     27  H   UNL     1     -31.441  14.702   1.247  0.00  0.00    +0.144 HD
ATOM     28  H   UNL     1     -32.230  14.135  -2.106  0.00  0.00    +0.188 HD
ENDBRANCH  20  25
ENDBRANCH  16  17
ENDBRANCH   1  15
TORSDOF 5
ENDMDL
MODEL 8
REMARK VINA RESULT:      -6.3      2.961      3.779
REMARK  Name = 5284571
REMARK  5 active torsions:
REMARK  status: ('A' for Active; 'I' for Inactive)
REMARK    1  A    between atoms: C_1  and  C_15
REMARK    2  A    between atoms: C_2  and  O_13
REMARK    3  A    between atoms: C_3  and  C_9
REMARK    4  A    between atoms: C_16  and  C_17
REMARK    5  A    between atoms: C_20  and  C_25
REMARK                            x       y       z     vdW  Elec       q    Type
REMARK                         _______ _______ _______ _____ _____    ______ ____
ROOT
ATOM      1  C   UNL     1     -36.077  23.159   2.033  0.00  0.00    +0.034 C 
ATOM      2  C   UNL     1     -36.861  23.262   3.172  0.00  0.00    +0.134 C 
ATOM      3  C   UNL     1     -38.121  25.031   2.114  0.00  0.00    +0.034 C 
ATOM      4  C   UNL     1     -36.296  23.976   0.934  0.00  0.00    +0.003 C 
ATOM      5  C   UNL     1     -37.889  24.203   3.213  0.00  0.00    +0.039 C 
ATOM      6  C   UNL     1     -37.324  24.916   0.975  0.00  0.00    +0.003 C 
ENDROOT
BRANCH   3   9
ATOM      7  N   UNL     1     -39.785  26.491   0.989  0.00  0.00    -0.343 N 
ATOM      8  N   UNL     1     -39.618  26.472   3.319  0.00  0.00    -0.285 NA
ATOM      9  C   UNL     1     -39.193  26.013   2.157  0.00  0.00    +0.117 C 
ATOM     10  H   UNL     1     -40.510  27.155   1.041  0.00  0.00    +0.144 HD
ATOM     11  H   UNL     1     -39.479  26.163   0.112  0.00  0.00    +0.144 HD
ATOM     12  H   UNL     1     -40.345  27.137   3.351  0.00  0.00    +0.188 HD
ENDBRANCH   3   9
BRANCH   2  13
ATOM     13  O   UNL     1     -36.656  22.465   4.260  0.00  0.00    -0.506 OA
ATOM     14  H   UNL     1     -36.271  22.822   5.037  0.00  0.00    +0.292 HD
ENDBRANCH   2  13
BRANCH   1  15
ATOM     15  C   UNL     1     -34.984  22.172   1.965  0.00  0.00    +0.003 C 
ATOM     16  C   UNL     1     -34.727  21.366   0.909  0.00  0.00    +0.000 C 
BRANCH  16  17
ATOM     17  C   UNL     1     -33.637  20.405   0.833  0.00  0.00    +0.000 C 
ATOM     18  C   UNL     1     -32.485  20.712   0.109  0.00  0.00    +0.000 C 
ATOM     19  C   UNL     1     -33.743  19.176   1.483  0.00  0.00    +0.000 C 
ATOM     20  C   UNL     1     -31.547  18.562   0.686  0.00  0.00    +0.031 C 
ATOM     21  C   UNL     1     -31.441  19.791   0.035  0.00  0.00    +0.003 C 
ATOM     22  C   UNL     1     -32.699  18.254   1.410  0.00  0.00    +0.003 C 
BRANCH  20  25
ATOM     23  N   UNL     1     -29.128  18.003   0.709  0.00  0.00    -0.343 N 
ATOM     24  N   UNL     1     -30.724  16.319   0.434  0.00  0.00    -0.285 NA
ATOM     25  C   UNL     1     -30.458  17.601   0.608  0.00  0.00    +0.117 C 
ATOM     26  H   UNL     1     -28.406  17.336   0.653  0.00  0.00    +0.144 HD
ATOM     27  H   UNL     1     -28.909  18.955   0.835  0.00  0.00    +0.144 HD
ATOM     28  H   UNL     1     -29.988  15.666   0.382  0.00  0.00    +0.188 HD
ENDBRANCH  20  25
ENDBRANCH  16  17
ENDBRANCH   1  15
TORSDOF 5
ENDMDL
MODEL 9
REMARK VINA RESULT:      -6.2      4.567      6.123
REMARK  Name = 5284571
REMARK  5 active torsions:
REMARK  status: ('A' for Active; 'I' for Inactive)
REMARK    1  A    between atoms: C_1  and  C_15
REMARK    2  A    between atoms: C_2  and  O_13
REMARK    3  A    between atoms: C_3  and  C_9
REMARK    4  A    between atoms: C_16  and  C_17
REMARK    5  A    between atoms: C_20  and  C_25
REMARK                            x       y       z     vdW  Elec       q    Type
REMARK                         _______ _______ _______ _____ _____    ______ ____
ROOT
ATOM      1  C   UNL     1     -34.052  26.459   4.864  0.00  0.00    +0.034 C 
ATOM      2  C   UNL     1     -33.354  27.378   4.097  0.00  0.00    +0.134 C 
ATOM      3  C   UNL     1     -32.086  28.010   6.054  0.00  0.00    +0.034 C 
ATOM      4  C   UNL     1     -33.786  26.302   6.216  0.00  0.00    +0.003 C 
ATOM      5  C   UNL     1     -32.364  28.158   4.696  0.00  0.00    +0.039 C 
ATOM      6  C   UNL     1     -32.798  27.081   6.814  0.00  0.00    +0.003 C 
ENDROOT
BRANCH   3   9
ATOM      7  N   UNL     1     -29.743  28.820   6.207  0.00  0.00    -0.343 N 
ATOM      8  N   UNL     1     -31.355  29.583   7.716  0.00  0.00    -0.285 NA
ATOM      9  C   UNL     1     -31.055  28.824   6.679  0.00  0.00    +0.117 C 
ATOM     10  H   UNL     1     -29.061  29.379   6.644  0.00  0.00    +0.144 HD
ATOM     11  H   UNL     1     -29.500  28.257   5.436  0.00  0.00    +0.144 HD
ATOM     12  H   UNL     1     -30.659  30.136   8.140  0.00  0.00    +0.188 HD
ENDBRANCH   3   9
BRANCH   2  13
ATOM     13  O   UNL     1     -33.605  27.542   2.766  0.00  0.00    -0.506 OA
ATOM     14  H   UNL     1     -34.017  26.855   2.279  0.00  0.00    +0.292 HD
ENDBRANCH   2  13
BRANCH   1  15
ATOM     15  C   UNL     1     -35.103  25.622   4.255  0.00  0.00    +0.003 C 
ATOM     16  C   UNL     1     -34.922  24.368   3.779  0.00  0.00    +0.000 C 
BRANCH  16  17
ATOM     17  C   UNL     1     -35.963  23.535   3.196  0.00  0.00    +0.000 C 
ATOM     18  C   UNL     1     -37.272  24.010   3.113  0.00  0.00    +0.000 C 
ATOM     19  C   UNL     1     -35.652  22.261   2.720  0.00  0.00    +0.000 C 
ATOM     20  C   UNL     1     -37.958  21.936   2.079  0.00  0.00    +0.031 C 
ATOM     21  C   UNL     1     -38.269  23.211   2.555  0.00  0.00    +0.003 C 
ATOM     22  C   UNL     1     -36.649  21.462   2.162  0.00  0.00    +0.003 C 
BRANCH  20  25
ATOM     23  N   UNL     1     -38.743  20.283   0.401  0.00  0.00    -0.343 N 
ATOM     24  N   UNL     1     -40.217  21.120   2.010  0.00  0.00    -0.285 NA
ATOM     25  C   UNL     1     -38.999  21.104   1.498  0.00  0.00    +0.117 C 
ATOM     26  H   UNL     1     -39.462  19.727   0.023  0.00  0.00    +0.144 HD
ATOM     27  H   UNL     1     -37.843  20.258   0.004  0.00  0.00    +0.144 HD
ATOM     28  H   UNL     1     -40.923  20.557   1.618  0.00  0.00    +0.188 HD
ENDBRANCH  20  25
ENDBRANCH  16  17
ENDBRANCH   1  15
TORSDOF 5
ENDMDL
