MODEL 1
REMARK VINA RESULT:      -6.4      0.000      0.000
REMARK  Name = 20844695
REMARK  8 active torsions:
REMARK  status: ('A' for Active; 'I' for Inactive)
REMARK    1  A    between atoms: N_1  and  C_14
REMARK    2  A    between atoms: N_1  and  O_26
REMARK    3  A    between atoms: C_5  and  O_20
REMARK    4  A    between atoms: C_9  and  O_22
REMARK    5  A    between atoms: C_19  and  O_24
REMARK    6  A    between atoms: O_26  and  C_27
REMARK    7  A    between atoms: C_27  and  C_29
REMARK    8  A    between atoms: C_29  and  O_30
REMARK                            x       y       z     vdW  Elec       q    Type
REMARK                         _______ _______ _______ _____ _____    ______ ____
ROOT
ATOM      1  C   UNL     1     -36.045  19.722  -0.022  0.00  0.00    +0.027 C 
ATOM      2  C   UNL     1     -35.621  20.106   1.408  0.00  0.00    +0.005 C 
ATOM      3  C   UNL     1     -36.199  21.452   1.851  0.00  0.00    +0.006 C 
ATOM      4  C   UNL     1     -35.263  18.404  -0.168  0.00  0.00    +0.137 C 
ATOM      5  C   UNL     1     -37.750  21.384   1.815  0.00  0.00    +0.022 C 
ATOM      6  C   UNL     1     -37.570  19.567  -0.032  0.00  0.00    +0.003 C 
ATOM      7  C   UNL     1     -34.103  19.918   1.397  0.00  0.00    +0.032 C 
ATOM      8  C   UNL     1     -33.887  18.720   0.452  0.00  0.00    +0.137 C 
ATOM      9  C   UNL     1     -38.273  20.846   0.453  0.00  0.00    +0.004 C 
ATOM     10  C   UNL     1     -35.620  20.732  -1.118  0.00  0.00    +0.002 C 
ATOM     11  C   UNL     1     -35.750  21.814   3.262  0.00  0.00    +0.025 C 
ATOM     12  C   UNL     1     -38.333  22.730   2.239  0.00  0.00    -0.025 C 
ATOM     13  C   UNL     1     -36.331  23.138   3.708  0.00  0.00    +0.125 C 
ATOM     14  C   UNL     1     -37.646  23.567   3.148  0.00  0.00    -0.005 C 
ATOM     15  C   UNL     1     -39.596  23.147   1.780  0.00  0.00    -0.001 C 
ATOM     16  C   UNL     1     -38.208  24.796   3.531  0.00  0.00    +0.033 C 
ATOM     17  C   UNL     1     -40.147  24.368   2.170  0.00  0.00    +0.036 C 
ATOM     18  C   UNL     1     -39.450  25.194   3.040  0.00  0.00    +0.133 C 
ENDROOT
BRANCH   4  19
ATOM     19  O   UNL     1     -35.140  17.988  -1.516  0.00  0.00    -0.382 OA
ATOM     20  H   UNL     1     -34.887  17.052  -1.545  0.00  0.00    +0.210 HD
ENDBRANCH   4  19
BRANCH   8  21
ATOM     21  O   UNL     1     -33.405  17.592   1.171  0.00  0.00    -0.382 OA
ATOM     22  H   UNL     1     -32.502  17.387   0.884  0.00  0.00    +0.210 HD
ENDBRANCH   8  21
BRANCH  18  23
ATOM     23  O   UNL     1     -39.983  26.387   3.420  0.00  0.00    -0.506 OA
ATOM     24  H   UNL     1     -40.599  26.421   4.125  0.00  0.00    +0.292 HD
ENDBRANCH  18  23
BRANCH  13  25
ATOM     25  N   UNL     1     -35.647  23.801   4.585  0.00  0.00    -0.080 NA
BRANCH  25  26
ATOM     26  O   UNL     1     -34.423  24.157   4.006  0.00  0.00    -0.254 OA
BRANCH  26  27
ATOM     27  C   UNL     1     -34.456  25.551   3.740  0.00  0.00    +0.277 C 
BRANCH  27  29
ATOM     28  O   UNL     1     -33.866  26.495   5.899  0.00  0.00    -0.247 OA
ATOM     29  C   UNL     1     -34.691  26.309   5.017  0.00  0.00    +0.347 C 
BRANCH  29  30
ATOM     30  O   UNL     1     -35.967  26.767   5.062  0.00  0.00    -0.478 OA
ATOM     31  H   UNL     1     -36.336  27.043   5.878  0.00  0.00    +0.295 HD
ENDBRANCH  29  30
ENDBRANCH  27  29
ENDBRANCH  26  27
ENDBRANCH  25  26
ENDBRANCH  13  25
TORSDOF 8
ENDMDL
MODEL 2
REMARK VINA RESULT:      -6.3      3.861      6.474
REMARK  Name = 20844695
REMARK  8 active torsions:
REMARK  status: ('A' for Active; 'I' for Inactive)
REMARK    1  A    between atoms: N_1  and  C_14
REMARK    2  A    between atoms: N_1  and  O_26
REMARK    3  A    between atoms: C_5  and  O_20
REMARK    4  A    between atoms: C_9  and  O_22
REMARK    5  A    between atoms: C_19  and  O_24
REMARK    6  A    between atoms: O_26  and  C_27
REMARK    7  A    between atoms: C_27  and  C_29
REMARK    8  A    between atoms: C_29  and  O_30
REMARK                            x       y       z     vdW  Elec       q    Type
REMARK                         _______ _______ _______ _____ _____    ______ ____
ROOT
ATOM      1  C   UNL     1     -35.976  24.057   3.198  0.00  0.00    +0.027 C 
ATOM      2  C   UNL     1     -35.250  24.702   4.392  0.00  0.00    +0.005 C 
ATOM      3  C   UNL     1     -34.376  25.888   3.978  0.00  0.00    +0.006 C 
ATOM      4  C   UNL     1     -36.682  22.901   3.930  0.00  0.00    +0.137 C 
ATOM      5  C   UNL     1     -35.264  26.976   3.316  0.00  0.00    +0.022 C 
ATOM      6  C   UNL     1     -36.921  25.108   2.602  0.00  0.00    +0.003 C 
ATOM      7  C   UNL     1     -34.599  23.514   5.103  0.00  0.00    +0.032 C 
ATOM      8  C   UNL     1     -35.605  22.365   4.896  0.00  0.00    +0.137 C 
ATOM      9  C   UNL     1     -36.164  26.384   2.195  0.00  0.00    +0.004 C 
ATOM     10  C   UNL     1     -35.043  23.512   2.088  0.00  0.00    +0.002 C 
ATOM     11  C   UNL     1     -33.657  26.496   5.177  0.00  0.00    +0.025 C 
ATOM     12  C   UNL     1     -34.396  28.156   2.884  0.00  0.00    -0.025 C 
ATOM     13  C   UNL     1     -32.802  27.677   4.772  0.00  0.00    +0.125 C 
ATOM     14  C   UNL     1     -33.214  28.486   3.587  0.00  0.00    -0.005 C 
ATOM     15  C   UNL     1     -34.777  28.978   1.808  0.00  0.00    -0.001 C 
ATOM     16  C   UNL     1     -32.437  29.581   3.177  0.00  0.00    +0.033 C 
ATOM     17  C   UNL     1     -34.000  30.067   1.412  0.00  0.00    +0.036 C 
ATOM     18  C   UNL     1     -32.828  30.364   2.092  0.00  0.00    +0.133 C 
ENDROOT
BRANCH   4  19
ATOM     19  O   UNL     1     -37.133  21.890   3.047  0.00  0.00    -0.382 OA
ATOM     20  H   UNL     1     -37.768  22.268   2.419  0.00  0.00    +0.210 HD
ENDBRANCH   4  19
BRANCH   8  21
ATOM     21  O   UNL     1     -36.202  21.990   6.131  0.00  0.00    -0.382 OA
ATOM     22  H   UNL     1     -36.708  21.171   6.010  0.00  0.00    +0.210 HD
ENDBRANCH   8  21
BRANCH  18  23
ATOM     23  O   UNL     1     -32.066  31.423   1.707  0.00  0.00    -0.506 OA
ATOM     24  H   UNL     1     -32.115  32.232   2.177  0.00  0.00    +0.292 HD
ENDBRANCH  18  23
BRANCH  13  25
ATOM     25  N   UNL     1     -31.773  27.925   5.517  0.00  0.00    -0.080 NA
BRANCH  25  26
ATOM     26  O   UNL     1     -32.220  28.548   6.688  0.00  0.00    -0.254 OA
BRANCH  26  27
ATOM     27  C   UNL     1     -31.478  29.748   6.854  0.00  0.00    +0.277 C 
BRANCH  27  29
ATOM     28  O   UNL     1     -29.385  30.168   5.695  0.00  0.00    -0.247 OA
ATOM     29  C   UNL     1     -30.039  29.511   6.492  0.00  0.00    +0.347 C 
BRANCH  29  30
ATOM     30  O   UNL     1     -29.551  28.449   7.180  0.00  0.00    -0.478 OA
ATOM     31  H   UNL     1     -28.882  27.914   6.802  0.00  0.00    +0.295 HD
ENDBRANCH  29  30
ENDBRANCH  27  29
ENDBRANCH  26  27
ENDBRANCH  25  26
ENDBRANCH  13  25
TORSDOF 8
ENDMDL
MODEL 3
REMARK VINA RESULT:      -6.0      2.328      7.964
REMARK  Name = 20844695
REMARK  8 active torsions:
REMARK  status: ('A' for Active; 'I' for Inactive)
REMARK    1  A    between atoms: N_1  and  C_14
REMARK    2  A    between atoms: N_1  and  O_26
REMARK    3  A    between atoms: C_5  and  O_20
REMARK    4  A    between atoms: C_9  and  O_22
REMARK    5  A    between atoms: C_19  and  O_24
REMARK    6  A    between atoms: O_26  and  C_27
REMARK    7  A    between atoms: C_27  and  C_29
REMARK    8  A    between atoms: C_29  and  O_30
REMARK                            x       y       z     vdW  Elec       q    Type
REMARK                         _______ _______ _______ _____ _____    ______ ____
ROOT
ATOM      1  C   UNL     1     -36.724  23.888   3.211  0.00  0.00    +0.027 C 
ATOM      2  C   UNL     1     -37.714  22.922   2.535  0.00  0.00    +0.005 C 
ATOM      3  C   UNL     1     -37.016  21.911   1.621  0.00  0.00    +0.006 C 
ATOM      4  C   UNL     1     -37.726  24.777   3.971  0.00  0.00    +0.137 C 
ATOM      5  C   UNL     1     -36.019  21.063   2.457  0.00  0.00    +0.022 C 
ATOM      6  C   UNL     1     -35.798  23.057   4.107  0.00  0.00    +0.003 C 
ATOM      7  C   UNL     1     -38.775  23.850   1.940  0.00  0.00    +0.032 C 
ATOM      8  C   UNL     1     -38.861  25.007   2.953  0.00  0.00    +0.137 C 
ATOM      9  C   UNL     1     -35.075  21.958   3.310  0.00  0.00    +0.004 C 
ATOM     10  C   UNL     1     -35.874  24.737   2.233  0.00  0.00    +0.002 C 
ATOM     11  C   UNL     1     -38.021  20.979   0.952  0.00  0.00    +0.025 C 
ATOM     12  C   UNL     1     -35.307  20.064   1.549  0.00  0.00    -0.025 C 
ATOM     13  C   UNL     1     -37.333  19.969   0.059  0.00  0.00    +0.125 C 
ATOM     14  C   UNL     1     -35.943  19.543   0.399  0.00  0.00    -0.005 C 
ATOM     15  C   UNL     1     -34.018  19.593   1.863  0.00  0.00    -0.001 C 
ATOM     16  C   UNL     1     -35.271  18.618  -0.416  0.00  0.00    +0.033 C 
ATOM     17  C   UNL     1     -33.362  18.670   1.049  0.00  0.00    +0.036 C 
ATOM     18  C   UNL     1     -33.985  18.188  -0.093  0.00  0.00    +0.133 C 
ENDROOT
BRANCH   4  19
ATOM     19  O   UNL     1     -37.155  26.003   4.395  0.00  0.00    -0.382 OA
ATOM     20  H   UNL     1     -36.566  26.342   3.703  0.00  0.00    +0.210 HD
ENDBRANCH   4  19
BRANCH   8  21
ATOM     21  O   UNL     1     -40.119  25.003   3.617  0.00  0.00    -0.382 OA
ATOM     22  H   UNL     1     -40.769  25.482   3.080  0.00  0.00    +0.210 HD
ENDBRANCH   8  21
BRANCH  18  23
ATOM     23  O   UNL     1     -33.347  17.290  -0.890  0.00  0.00    -0.506 OA
ATOM     24  H   UNL     1     -32.440  17.100  -0.750  0.00  0.00    +0.292 HD
ENDBRANCH  18  23
BRANCH  13  25
ATOM     25  N   UNL     1     -38.025  19.515  -0.936  0.00  0.00    -0.080 NA
BRANCH  25  26
ATOM     26  O   UNL     1     -38.862  18.500  -0.459  0.00  0.00    -0.254 OA
BRANCH  26  27
ATOM     27  C   UNL     1     -38.673  17.357  -1.280  0.00  0.00    +0.277 C 
BRANCH  27  29
ATOM     28  O   UNL     1     -38.674  15.011  -0.646  0.00  0.00    -0.247 OA
ATOM     29  C   UNL     1     -38.337  16.165  -0.427  0.00  0.00    +0.347 C 
BRANCH  29  30
ATOM     30  O   UNL     1     -37.593  16.549   0.642  0.00  0.00    -0.478 OA
ATOM     31  H   UNL     1     -37.968  17.103   1.297  0.00  0.00    +0.295 HD
ENDBRANCH  29  30
ENDBRANCH  27  29
ENDBRANCH  26  27
ENDBRANCH  25  26
ENDBRANCH  13  25
TORSDOF 8
ENDMDL
MODEL 4
REMARK VINA RESULT:      -5.8      3.543      6.250
REMARK  Name = 20844695
REMARK  8 active torsions:
REMARK  status: ('A' for Active; 'I' for Inactive)
REMARK    1  A    between atoms: N_1  and  C_14
REMARK    2  A    between atoms: N_1  and  O_26
REMARK    3  A    between atoms: C_5  and  O_20
REMARK    4  A    between atoms: C_9  and  O_22
REMARK    5  A    between atoms: C_19  and  O_24
REMARK    6  A    between atoms: O_26  and  C_27
REMARK    7  A    between atoms: C_27  and  C_29
REMARK    8  A    between atoms: C_29  and  O_30
REMARK                            x       y       z     vdW  Elec       q    Type
REMARK                         _______ _______ _______ _____ _____    ______ ____
ROOT
ATOM      1  C   UNL     1     -37.168  26.458  -0.059  0.00  0.00    +0.027 C 
ATOM      2  C   UNL     1     -36.217  26.952   1.046  0.00  0.00    +0.005 C 
ATOM      3  C   UNL     1     -36.118  25.973   2.218  0.00  0.00    +0.006 C 
ATOM      4  C   UNL     1     -37.090  27.665  -1.012  0.00  0.00    +0.137 C 
ATOM      5  C   UNL     1     -35.585  24.608   1.706  0.00  0.00    +0.022 C 
ATOM      6  C   UNL     1     -36.591  25.156  -0.626  0.00  0.00    +0.003 C 
ATOM      7  C   UNL     1     -36.686  28.384   1.313  0.00  0.00    +0.032 C 
ATOM      8  C   UNL     1     -37.147  28.884  -0.070  0.00  0.00    +0.137 C 
ATOM      9  C   UNL     1     -36.389  24.100   0.475  0.00  0.00    +0.004 C 
ATOM     10  C   UNL     1     -38.629  26.220   0.401  0.00  0.00    +0.002 C 
ATOM     11  C   UNL     1     -35.183  26.495   3.303  0.00  0.00    +0.025 C 
ATOM     12  C   UNL     1     -35.501  23.620   2.867  0.00  0.00    -0.025 C 
ATOM     13  C   UNL     1     -35.073  25.523   4.457  0.00  0.00    +0.125 C 
ATOM     14  C   UNL     1     -35.256  24.067   4.186  0.00  0.00    -0.005 C 
ATOM     15  C   UNL     1     -35.610  22.235   2.647  0.00  0.00    -0.001 C 
ATOM     16  C   UNL     1     -35.173  23.138   5.236  0.00  0.00    +0.033 C 
ATOM     17  C   UNL     1     -35.522  21.321   3.697  0.00  0.00    +0.036 C 
ATOM     18  C   UNL     1     -35.310  21.773   4.992  0.00  0.00    +0.133 C 
ENDROOT
BRANCH   4  19
ATOM     19  O   UNL     1     -38.151  27.688  -1.951  0.00  0.00    -0.382 OA
ATOM     20  H   UNL     1     -38.999  27.649  -1.483  0.00  0.00    +0.210 HD
ENDBRANCH   4  19
BRANCH   8  21
ATOM     21  O   UNL     1     -36.285  29.909  -0.547  0.00  0.00    -0.382 OA
ATOM     22  H   UNL     1     -36.544  30.758  -0.156  0.00  0.00    +0.210 HD
ENDBRANCH   8  21
BRANCH  18  23
ATOM     23  O   UNL     1     -35.225  20.885   6.018  0.00  0.00    -0.506 OA
ATOM     24  H   UNL     1     -35.929  20.288   6.180  0.00  0.00    +0.292 HD
ENDBRANCH  18  23
BRANCH  13  25
ATOM     25  N   UNL     1     -34.791  26.032   5.614  0.00  0.00    -0.080 NA
BRANCH  25  26
ATOM     26  O   UNL     1     -33.822  27.024   5.430  0.00  0.00    -0.254 OA
BRANCH  26  27
ATOM     27  C   UNL     1     -32.957  27.003   6.557  0.00  0.00    +0.277 C 
BRANCH  27  29
ATOM     28  O   UNL     1     -32.203  29.274   6.137  0.00  0.00    -0.247 OA
ATOM     29  C   UNL     1     -31.956  28.120   6.451  0.00  0.00    +0.347 C 
BRANCH  29  30
ATOM     30  O   UNL     1     -30.714  27.666   6.758  0.00  0.00    -0.478 OA
ATOM     31  H   UNL     1     -30.411  27.695   7.643  0.00  0.00    +0.295 HD
ENDBRANCH  29  30
ENDBRANCH  27  29
ENDBRANCH  26  27
ENDBRANCH  25  26
ENDBRANCH  13  25
TORSDOF 8
ENDMDL
MODEL 5
REMARK VINA RESULT:      -5.8      3.609      7.437
REMARK  Name = 20844695
REMARK  8 active torsions:
REMARK  status: ('A' for Active; 'I' for Inactive)
REMARK    1  A    between atoms: N_1  and  C_14
REMARK    2  A    between atoms: N_1  and  O_26
REMARK    3  A    between atoms: C_5  and  O_20
REMARK    4  A    between atoms: C_9  and  O_22
REMARK    5  A    between atoms: C_19  and  O_24
REMARK    6  A    between atoms: O_26  and  C_27
REMARK    7  A    between atoms: C_27  and  C_29
REMARK    8  A    between atoms: C_29  and  O_30
REMARK                            x       y       z     vdW  Elec       q    Type
REMARK                         _______ _______ _______ _____ _____    ______ ____
ROOT
ATOM      1  C   UNL     1     -34.092  27.997   1.777  0.00  0.00    +0.027 C 
ATOM      2  C   UNL     1     -35.146  27.057   1.166  0.00  0.00    +0.005 C 
ATOM      3  C   UNL     1     -35.123  25.661   1.792  0.00  0.00    +0.006 C 
ATOM      4  C   UNL     1     -34.333  29.242   0.905  0.00  0.00    +0.137 C 
ATOM      5  C   UNL     1     -35.412  25.774   3.313  0.00  0.00    +0.022 C 
ATOM      6  C   UNL     1     -34.433  28.179   3.261  0.00  0.00    +0.003 C 
ATOM      7  C   UNL     1     -34.923  27.197  -0.342  0.00  0.00    +0.032 C 
ATOM      8  C   UNL     1     -34.504  28.669  -0.517  0.00  0.00    +0.137 C 
ATOM      9  C   UNL     1     -34.498  26.830   3.997  0.00  0.00    +0.004 C 
ATOM     10  C   UNL     1     -32.628  27.508   1.639  0.00  0.00    +0.002 C 
ATOM     11  C   UNL     1     -36.166  24.747   1.156  0.00  0.00    +0.025 C 
ATOM     12  C   UNL     1     -35.374  24.386   3.949  0.00  0.00    -0.025 C 
ATOM     13  C   UNL     1     -36.154  23.370   1.783  0.00  0.00    +0.125 C 
ATOM     14  C   UNL     1     -35.730  23.236   3.208  0.00  0.00    -0.005 C 
ATOM     15  C   UNL     1     -35.035  24.221   5.305  0.00  0.00    -0.001 C 
ATOM     16  C   UNL     1     -35.697  21.971   3.817  0.00  0.00    +0.033 C 
ATOM     17  C   UNL     1     -35.009  22.960   5.901  0.00  0.00    +0.036 C 
ATOM     18  C   UNL     1     -35.333  21.836   5.155  0.00  0.00    +0.133 C 
ENDROOT
BRANCH   4  19
ATOM     19  O   UNL     1     -33.260  30.166   0.963  0.00  0.00    -0.382 OA
ATOM     20  H   UNL     1     -32.540  29.792   1.495  0.00  0.00    +0.210 HD
ENDBRANCH   4  19
BRANCH   8  21
ATOM     21  O   UNL     1     -35.505  29.397  -1.218  0.00  0.00    -0.382 OA
ATOM     22  H   UNL     1     -35.091  30.123  -1.710  0.00  0.00    +0.210 HD
ENDBRANCH   8  21
BRANCH  18  23
ATOM     23  O   UNL     1     -35.307  20.604   5.733  0.00  0.00    -0.506 OA
ATOM     24  H   UNL     1     -34.754  19.934   5.382  0.00  0.00    +0.292 HD
ENDBRANCH  18  23
BRANCH  13  25
ATOM     25  N   UNL     1     -36.552  22.392   1.033  0.00  0.00    -0.080 NA
BRANCH  25  26
ATOM     26  O   UNL     1     -37.766  22.761   0.443  0.00  0.00    -0.254 OA
BRANCH  26  27
ATOM     27  C   UNL     1     -38.441  21.572   0.055  0.00  0.00    +0.277 C 
BRANCH  27  29
ATOM     28  O   UNL     1     -40.649  21.041   0.916  0.00  0.00    -0.247 OA
ATOM     29  C   UNL     1     -39.451  21.195   1.102  0.00  0.00    +0.347 C 
BRANCH  29  30
ATOM     30  O   UNL     1     -38.845  21.045   2.306  0.00  0.00    -0.478 OA
ATOM     31  H   UNL     1     -39.350  20.808   3.058  0.00  0.00    +0.295 HD
ENDBRANCH  29  30
ENDBRANCH  27  29
ENDBRANCH  26  27
ENDBRANCH  25  26
ENDBRANCH  13  25
TORSDOF 8
ENDMDL
MODEL 6
REMARK VINA RESULT:      -5.7      3.692      7.499
REMARK  Name = 20844695
REMARK  8 active torsions:
REMARK  status: ('A' for Active; 'I' for Inactive)
REMARK    1  A    between atoms: N_1  and  C_14
REMARK    2  A    between atoms: N_1  and  O_26
REMARK    3  A    between atoms: C_5  and  O_20
REMARK    4  A    between atoms: C_9  and  O_22
REMARK    5  A    between atoms: C_19  and  O_24
REMARK    6  A    between atoms: O_26  and  C_27
REMARK    7  A    between atoms: C_27  and  C_29
REMARK    8  A    between atoms: C_29  and  O_30
REMARK                            x       y       z     vdW  Elec       q    Type
REMARK                         _______ _______ _______ _____ _____    ______ ____
ROOT
ATOM      1  C   UNL     1     -36.133  23.492   3.073  0.00  0.00    +0.027 C 
ATOM      2  C   UNL     1     -35.573  23.752   1.663  0.00  0.00    +0.005 C 
ATOM      3  C   UNL     1     -34.402  22.830   1.317  0.00  0.00    +0.006 C 
ATOM      4  C   UNL     1     -37.207  24.594   3.122  0.00  0.00    +0.137 C 
ATOM      5  C   UNL     1     -34.876  21.352   1.375  0.00  0.00    +0.022 C 
ATOM      6  C   UNL     1     -36.683  22.061   3.101  0.00  0.00    +0.003 C 
ATOM      7  C   UNL     1     -35.357  25.267   1.635  0.00  0.00    +0.032 C 
ATOM      8  C   UNL     1     -36.507  25.819   2.499  0.00  0.00    +0.137 C 
ATOM      9  C   UNL     1     -35.607  21.033   2.710  0.00  0.00    +0.004 C 
ATOM     10  C   UNL     1     -35.111  23.675   4.223  0.00  0.00    +0.002 C 
ATOM     11  C   UNL     1     -33.857  23.121  -0.077  0.00  0.00    +0.025 C 
ATOM     12  C   UNL     1     -33.708  20.424   1.048  0.00  0.00    -0.025 C 
ATOM     13  C   UNL     1     -32.708  22.201  -0.428  0.00  0.00    +0.125 C 
ATOM     14  C   UNL     1     -32.670  20.839   0.182  0.00  0.00    -0.005 C 
ATOM     15  C   UNL     1     -33.663  19.113   1.555  0.00  0.00    -0.001 C 
ATOM     16  C   UNL     1     -31.612  19.964  -0.113  0.00  0.00    +0.033 C 
ATOM     17  C   UNL     1     -32.609  18.250   1.252  0.00  0.00    +0.036 C 
ATOM     18  C   UNL     1     -31.581  18.679   0.424  0.00  0.00    +0.133 C 
ENDROOT
BRANCH   4  19
ATOM     19  O   UNL     1     -37.651  24.867   4.439  0.00  0.00    -0.382 OA
ATOM     20  H   UNL     1     -38.056  24.070   4.816  0.00  0.00    +0.210 HD
ENDBRANCH   4  19
BRANCH   8  21
ATOM     21  O   UNL     1     -37.428  26.553   1.701  0.00  0.00    -0.382 OA
ATOM     22  H   UNL     1     -37.003  27.365   1.382  0.00  0.00    +0.210 HD
ENDBRANCH   8  21
BRANCH  18  23
ATOM     23  O   UNL     1     -30.550  17.841   0.129  0.00  0.00    -0.506 OA
ATOM     24  H   UNL     1     -29.728  18.191  -0.153  0.00  0.00    +0.292 HD
ENDBRANCH  18  23
BRANCH  13  25
ATOM     25  N   UNL     1     -31.841  22.659  -1.273  0.00  0.00    -0.080 NA
BRANCH  25  26
ATOM     26  O   UNL     1     -31.220  23.774  -0.701  0.00  0.00    -0.254 OA
BRANCH  26  27
ATOM     27  C   UNL     1     -30.139  24.151  -1.542  0.00  0.00    +0.277 C 
BRANCH  27  29
ATOM     28  O   UNL     1     -29.124  22.584  -3.096  0.00  0.00    -0.247 OA
ATOM     29  C   UNL     1     -29.360  22.932  -1.949  0.00  0.00    +0.347 C 
BRANCH  29  30
ATOM     30  O   UNL     1     -28.944  22.253  -0.849  0.00  0.00    -0.478 OA
ATOM     31  H   UNL     1     -29.553  21.734  -0.363  0.00  0.00    +0.295 HD
ENDBRANCH  29  30
ENDBRANCH  27  29
ENDBRANCH  26  27
ENDBRANCH  25  26
ENDBRANCH  13  25
TORSDOF 8
ENDMDL
MODEL 7
REMARK VINA RESULT:      -5.7      4.053      8.327
REMARK  Name = 20844695
REMARK  8 active torsions:
REMARK  status: ('A' for Active; 'I' for Inactive)
REMARK    1  A    between atoms: N_1  and  C_14
REMARK    2  A    between atoms: N_1  and  O_26
REMARK    3  A    between atoms: C_5  and  O_20
REMARK    4  A    between atoms: C_9  and  O_22
REMARK    5  A    between atoms: C_19  and  O_24
REMARK    6  A    between atoms: O_26  and  C_27
REMARK    7  A    between atoms: C_27  and  C_29
REMARK    8  A    between atoms: C_29  and  O_30
REMARK                            x       y       z     vdW  Elec       q    Type
REMARK                         _______ _______ _______ _____ _____    ______ ____
ROOT
ATOM      1  C   UNL     1     -31.553  29.592   4.595  0.00  0.00    +0.027 C 
ATOM      2  C   UNL     1     -31.928  28.165   5.036  0.00  0.00    +0.005 C 
ATOM      3  C   UNL     1     -33.341  27.769   4.603  0.00  0.00    +0.006 C 
ATOM      4  C   UNL     1     -30.153  29.688   5.229  0.00  0.00    +0.137 C 
ATOM      5  C   UNL     1     -33.442  27.830   3.055  0.00  0.00    +0.022 C 
ATOM      6  C   UNL     1     -31.564  29.624   3.062  0.00  0.00    +0.003 C 
ATOM      7  C   UNL     1     -31.575  28.144   6.525  0.00  0.00    +0.032 C 
ATOM      8  C   UNL     1     -30.335  29.053   6.623  0.00  0.00    +0.137 C 
ATOM      9  C   UNL     1     -32.926  29.186   2.496  0.00  0.00    +0.004 C 
ATOM     10  C   UNL     1     -32.479  30.706   5.143  0.00  0.00    +0.002 C 
ATOM     11  C   UNL     1     -33.691  26.359   5.068  0.00  0.00    +0.025 C 
ATOM     12  C   UNL     1     -34.854  27.452   2.616  0.00  0.00    -0.025 C 
ATOM     13  C   UNL     1     -35.083  25.959   4.629  0.00  0.00    +0.125 C 
ATOM     14  C   UNL     1     -35.637  26.554   3.377  0.00  0.00    -0.005 C 
ATOM     15  C   UNL     1     -35.394  27.945   1.413  0.00  0.00    -0.001 C 
ATOM     16  C   UNL     1     -36.930  26.214   2.948  0.00  0.00    +0.033 C 
ATOM     17  C   UNL     1     -36.678  27.597   0.994  0.00  0.00    +0.036 C 
ATOM     18  C   UNL     1     -37.448  26.737   1.765  0.00  0.00    +0.133 C 
ENDROOT
BRANCH   4  19
ATOM     19  O   UNL     1     -29.689  31.023   5.326  0.00  0.00    -0.382 OA
ATOM     20  H   UNL     1     -30.360  31.626   4.971  0.00  0.00    +0.210 HD
ENDBRANCH   4  19
BRANCH   8  21
ATOM     21  O   UNL     1     -29.182  28.296   6.967  0.00  0.00    -0.382 OA
ATOM     22  H   UNL     1     -28.441  28.560   6.399  0.00  0.00    +0.210 HD
ENDBRANCH   8  21
BRANCH  18  23
ATOM     23  O   UNL     1     -38.702  26.398   1.360  0.00  0.00    -0.506 OA
ATOM     24  H   UNL     1     -38.933  26.455   0.454  0.00  0.00    +0.292 HD
ENDBRANCH  18  23
BRANCH  13  25
ATOM     25  N   UNL     1     -35.692  25.088   5.369  0.00  0.00    -0.080 NA
BRANCH  25  26
ATOM     26  O   UNL     1     -34.792  24.057   5.660  0.00  0.00    -0.254 OA
BRANCH  26  27
ATOM     27  C   UNL     1     -35.545  22.919   6.055  0.00  0.00    +0.277 C 
BRANCH  27  29
ATOM     28  O   UNL     1     -35.479  21.978   3.816  0.00  0.00    -0.247 OA
ATOM     29  C   UNL     1     -35.400  21.832   5.027  0.00  0.00    +0.347 C 
BRANCH  29  30
ATOM     30  O   UNL     1     -35.167  20.641   5.634  0.00  0.00    -0.478 OA
ATOM     31  H   UNL     1     -34.423  20.128   5.387  0.00  0.00    +0.295 HD
ENDBRANCH  29  30
ENDBRANCH  27  29
ENDBRANCH  26  27
ENDBRANCH  25  26
ENDBRANCH  13  25
TORSDOF 8
ENDMDL
MODEL 8
REMARK VINA RESULT:      -5.6      4.369      7.068
REMARK  Name = 20844695
REMARK  8 active torsions:
REMARK  status: ('A' for Active; 'I' for Inactive)
REMARK    1  A    between atoms: N_1  and  C_14
REMARK    2  A    between atoms: N_1  and  O_26
REMARK    3  A    between atoms: C_5  and  O_20
REMARK    4  A    between atoms: C_9  and  O_22
REMARK    5  A    between atoms: C_19  and  O_24
REMARK    6  A    between atoms: O_26  and  C_27
REMARK    7  A    between atoms: C_27  and  C_29
REMARK    8  A    between atoms: C_29  and  O_30
REMARK                            x       y       z     vdW  Elec       q    Type
REMARK                         _______ _______ _______ _____ _____    ______ ____
ROOT
ATOM      1  C   UNL     1     -35.247  28.005   0.509  0.00  0.00    +0.027 C 
ATOM      2  C   UNL     1     -34.275  28.081   1.700  0.00  0.00    +0.005 C 
ATOM      3  C   UNL     1     -34.640  27.103   2.819  0.00  0.00    +0.006 C 
ATOM      4  C   UNL     1     -34.654  29.123  -0.368  0.00  0.00    +0.137 C 
ATOM      5  C   UNL     1     -34.604  25.652   2.266  0.00  0.00    +0.022 C 
ATOM      6  C   UNL     1     -35.143  26.598  -0.092  0.00  0.00    +0.003 C 
ATOM      7  C   UNL     1     -34.207  29.576   2.016  0.00  0.00    +0.032 C 
ATOM      8  C   UNL     1     -34.337  30.250   0.636  0.00  0.00    +0.137 C 
ATOM      9  C   UNL     1     -35.433  25.512   0.958  0.00  0.00    +0.004 C 
ATOM     10  C   UNL     1     -36.726  28.311   0.857  0.00  0.00    +0.002 C 
ATOM     11  C   UNL     1     -33.671  27.211   3.991  0.00  0.00    +0.025 C 
ATOM     12  C   UNL     1     -34.984  24.671   3.373  0.00  0.00    -0.025 C 
ATOM     13  C   UNL     1     -34.021  26.235   5.093  0.00  0.00    +0.125 C 
ATOM     14  C   UNL     1     -34.702  24.958   4.728  0.00  0.00    -0.005 C 
ATOM     15  C   UNL     1     -35.575  23.431   3.068  0.00  0.00    -0.001 C 
ATOM     16  C   UNL     1     -35.052  24.036   5.728  0.00  0.00    +0.033 C 
ATOM     17  C   UNL     1     -35.915  22.520   4.069  0.00  0.00    +0.036 C 
ATOM     18  C   UNL     1     -35.659  22.825   5.398  0.00  0.00    +0.133 C 
ENDROOT
BRANCH   4  19
ATOM     19  O   UNL     1     -35.550  29.564  -1.373  0.00  0.00    -0.382 OA
ATOM     20  H   UNL     1     -35.854  28.803  -1.892  0.00  0.00    +0.210 HD
ENDBRANCH   4  19
BRANCH   8  21
ATOM     21  O   UNL     1     -33.122  30.896   0.275  0.00  0.00    -0.382 OA
ATOM     22  H   UNL     1     -33.083  30.996  -0.689  0.00  0.00    +0.210 HD
ENDBRANCH   8  21
BRANCH  18  23
ATOM     23  O   UNL     1     -35.991  21.940   6.377  0.00  0.00    -0.506 OA
ATOM     24  H   UNL     1     -35.558  21.975   7.206  0.00  0.00    +0.292 HD
ENDBRANCH  18  23
BRANCH  13  25
ATOM     25  N   UNL     1     -33.668  26.571   6.293  0.00  0.00    -0.080 NA
BRANCH  25  26
ATOM     26  O   UNL     1     -32.296  26.843   6.285  0.00  0.00    -0.254 OA
BRANCH  26  27
ATOM     27  C   UNL     1     -32.115  28.182   6.724  0.00  0.00    +0.277 C 
BRANCH  27  29
ATOM     28  O   UNL     1     -30.387  29.733   6.009  0.00  0.00    -0.247 OA
ATOM     29  C   UNL     1     -30.712  28.631   6.426  0.00  0.00    +0.347 C 
BRANCH  29  30
ATOM     30  O   UNL     1     -29.834  27.629   6.685  0.00  0.00    -0.478 OA
ATOM     31  H   UNL     1     -28.924  27.821   6.793  0.00  0.00    +0.295 HD
ENDBRANCH  29  30
ENDBRANCH  27  29
ENDBRANCH  26  27
ENDBRANCH  25  26
ENDBRANCH  13  25
TORSDOF 8
ENDMDL
MODEL 9
REMARK VINA RESULT:      -5.6      3.866      6.990
REMARK  Name = 20844695
REMARK  8 active torsions:
REMARK  status: ('A' for Active; 'I' for Inactive)
REMARK    1  A    between atoms: N_1  and  C_14
REMARK    2  A    between atoms: N_1  and  O_26
REMARK    3  A    between atoms: C_5  and  O_20
REMARK    4  A    between atoms: C_9  and  O_22
REMARK    5  A    between atoms: C_19  and  O_24
REMARK    6  A    between atoms: O_26  and  C_27
REMARK    7  A    between atoms: C_27  and  C_29
REMARK    8  A    between atoms: C_29  and  O_30
REMARK                            x       y       z     vdW  Elec       q    Type
REMARK                         _______ _______ _______ _____ _____    ______ ____
ROOT
ATOM      1  C   UNL     1     -35.863  24.315   3.718  0.00  0.00    +0.027 C 
ATOM      2  C   UNL     1     -35.018  25.035   2.652  0.00  0.00    +0.005 C 
ATOM      3  C   UNL     1     -34.426  26.351   3.162  0.00  0.00    +0.006 C 
ATOM      4  C   UNL     1     -36.346  23.114   2.883  0.00  0.00    +0.137 C 
ATOM      5  C   UNL     1     -33.510  26.064   4.383  0.00  0.00    +0.022 C 
ATOM      6  C   UNL     1     -34.935  23.952   4.884  0.00  0.00    +0.003 C 
ATOM      7  C   UNL     1     -35.931  25.060   1.424  0.00  0.00    +0.032 C 
ATOM      8  C   UNL     1     -36.714  23.736   1.521  0.00  0.00    +0.137 C 
ATOM      9  C   UNL     1     -34.229  25.194   5.452  0.00  0.00    +0.004 C 
ATOM     10  C   UNL     1     -37.069  25.129   4.251  0.00  0.00    +0.002 C 
ATOM     11  C   UNL     1     -33.609  27.051   2.081  0.00  0.00    +0.025 C 
ATOM     12  C   UNL     1     -32.929  27.375   4.908  0.00  0.00    -0.025 C 
ATOM     13  C   UNL     1     -33.011  28.345   2.588  0.00  0.00    +0.125 C 
ATOM     14  C   UNL     1     -32.692  28.466   4.041  0.00  0.00    -0.005 C 
ATOM     15  C   UNL     1     -32.561  27.512   6.260  0.00  0.00    -0.001 C 
ATOM     16  C   UNL     1     -32.148  29.658   4.546  0.00  0.00    +0.033 C 
ATOM     17  C   UNL     1     -32.017  28.700   6.750  0.00  0.00    +0.036 C 
ATOM     18  C   UNL     1     -31.817  29.773   5.895  0.00  0.00    +0.133 C 
ENDROOT
BRANCH   4  19
ATOM     19  O   UNL     1     -37.455  22.454   3.467  0.00  0.00    -0.382 OA
ATOM     20  H   UNL     1     -38.047  23.109   3.870  0.00  0.00    +0.210 HD
ENDBRANCH   4  19
BRANCH   8  21
ATOM     21  O   UNL     1     -36.346  22.855   0.468  0.00  0.00    -0.382 OA
ATOM     22  H   UNL     1     -36.920  22.074   0.484  0.00  0.00    +0.210 HD
ENDBRANCH   8  21
BRANCH  18  23
ATOM     23  O   UNL     1     -31.288  30.933   6.370  0.00  0.00    -0.506 OA
ATOM     24  H   UNL     1     -31.834  31.545   6.824  0.00  0.00    +0.292 HD
ENDBRANCH  18  23
BRANCH  13  25
ATOM     25  N   UNL     1     -32.784  29.260   1.700  0.00  0.00    -0.080 NA
BRANCH  25  26
ATOM     26  O   UNL     1     -34.014  29.685   1.187  0.00  0.00    -0.254 OA
BRANCH  26  27
ATOM     27  C   UNL     1     -34.317  30.946   1.766  0.00  0.00    +0.277 C 
BRANCH  27  29
ATOM     28  O   UNL     1     -36.745  30.983   1.821  0.00  0.00    -0.247 OA
ATOM     29  C   UNL     1     -35.676  30.900   2.407  0.00  0.00    +0.347 C 
BRANCH  29  30
ATOM     30  O   UNL     1     -35.555  30.750   3.750  0.00  0.00    -0.478 OA
ATOM     31  H   UNL     1     -35.636  29.900   4.135  0.00  0.00    +0.295 HD
ENDBRANCH  29  30
ENDBRANCH  27  29
ENDBRANCH  26  27
ENDBRANCH  25  26
ENDBRANCH  13  25
TORSDOF 8
ENDMDL
