MODEL 1
REMARK VINA RESULT:      -7.0      0.000      0.000
REMARK  Name = 56649450
REMARK  4 active torsions:
REMARK  status: ('A' for Active; 'I' for Inactive)
REMARK    1  A    between atoms: C_6  and  C_31
REMARK    2  A    between atoms: C_12  and  C_19
REMARK    3  A    between atoms: C_17  and  C_22
REMARK    4  A    between atoms: C_22  and  C_28
REMARK                            x       y       z     vdW  Elec       q    Type
REMARK                         _______ _______ _______ _____ _____    ______ ____
ROOT
ATOM      1  S   UNL     1     -34.563  25.132   2.630  0.00  0.00    -0.056 S 
ATOM      2  O   UNL     1     -32.228  27.024   6.188  0.00  0.00    -0.252 OA
ATOM      3  N   UNL     1     -31.758  28.674   4.655  0.00  0.00    -0.257 N 
ATOM      4  N   UNL     1     -33.072  26.840   4.021  0.00  0.00    -0.239 N 
ATOM      5  N   UNL     1     -33.916  24.813   5.112  0.00  0.00    -0.388 NA
ATOM      6  C   UNL     1     -30.837  29.393   5.526  0.00  0.00    +0.153 C 
ATOM      7  C   UNL     1     -30.079  30.333   4.597  0.00  0.00    +0.031 C 
ATOM      8  C   UNL     1     -31.085  30.621   3.486  0.00  0.00    +0.024 C 
ATOM      9  C   UNL     1     -31.828  29.303   3.336  0.00  0.00    +0.095 C 
ATOM     10  C   UNL     1     -32.354  27.462   5.042  0.00  0.00    +0.310 C 
ATOM     11  C   UNL     1     -33.783  25.616   4.080  0.00  0.00    +0.214 C 
ATOM     12  C   UNL     1     -35.132  23.727   3.433  0.00  0.00    +0.126 C 
ATOM     13  C   UNL     1     -34.688  23.730   4.739  0.00  0.00    +0.103 C 
ATOM     14  C   UNL     1     -34.962  22.694   5.756  0.00  0.00    +0.063 C 
ATOM     15  H   UNL     1     -33.085  27.307   3.154  0.00  0.00    +0.159 HD
ENDROOT
BRANCH  12  19
ATOM     16  N   UNL     1     -37.523  20.931   1.331  0.00  0.00    -0.248 NA
ATOM     17  C   UNL     1     -36.174  20.924   1.242  0.00  0.00    +0.066 C 
ATOM     18  C   UNL     1     -35.348  21.815   1.908  0.00  0.00    +0.012 C 
ATOM     19  C   UNL     1     -35.945  22.776   2.717  0.00  0.00    -0.003 C 
ATOM     20  C   UNL     1     -37.331  22.815   2.834  0.00  0.00    +0.018 C 
ATOM     21  C   UNL     1     -38.067  21.879   2.127  0.00  0.00    +0.098 C 
BRANCH  17  22
ATOM     22  C   UNL     1     -35.569  19.880   0.366  0.00  0.00    +0.123 C 
ATOM     23  C   UNL     1     -35.201  20.437  -1.048  0.00  0.00    +0.014 C 
ATOM     24  C   UNL     1     -36.490  18.645   0.082  0.00  0.00    +0.014 C 
BRANCH  22  28
ATOM     25  F   UNL     1     -34.241  19.428   2.346  0.00  0.00    -0.170 F 
ATOM     26  F   UNL     1     -34.120  17.991   0.720  0.00  0.00    -0.170 F 
ATOM     27  F   UNL     1     -33.180  19.949   0.517  0.00  0.00    -0.170 F 
ATOM     28  C   UNL     1     -34.268  19.304   0.999  0.00  0.00    +0.402 C 
ENDBRANCH  22  28
ENDBRANCH  17  22
ENDBRANCH  12  19
BRANCH   6  31
ATOM     29  O   UNL     1     -32.301  31.149   6.221  0.00  0.00    -0.274 OA
ATOM     30  N   UNL     1     -31.624  29.611   7.792  0.00  0.00    -0.327 N 
ATOM     31  C   UNL     1     -31.665  30.144   6.525  0.00  0.00    +0.238 C 
ATOM     32  H   UNL     1     -32.136  30.033   8.520  0.00  0.00    +0.145 HD
ATOM     33  H   UNL     1     -31.083  28.808   7.972  0.00  0.00    +0.145 HD
ENDBRANCH   6  31
TORSDOF 4
ENDMDL
MODEL 2
REMARK VINA RESULT:      -7.0      5.096     10.707
REMARK  Name = 56649450
REMARK  4 active torsions:
REMARK  status: ('A' for Active; 'I' for Inactive)
REMARK    1  A    between atoms: C_6  and  C_31
REMARK    2  A    between atoms: C_12  and  C_19
REMARK    3  A    between atoms: C_17  and  C_22
REMARK    4  A    between atoms: C_22  and  C_28
REMARK                            x       y       z     vdW  Elec       q    Type
REMARK                         _______ _______ _______ _____ _____    ______ ____
ROOT
ATOM      1  S   UNL     1     -35.427  20.597   2.335  0.00  0.00    -0.056 S 
ATOM      2  O   UNL     1     -38.633  18.691  -0.454  0.00  0.00    -0.252 OA
ATOM      3  N   UNL     1     -37.088  16.997  -0.631  0.00  0.00    -0.257 N 
ATOM      4  N   UNL     1     -36.616  18.864   0.704  0.00  0.00    -0.239 N 
ATOM      5  N   UNL     1     -37.774  20.940   1.306  0.00  0.00    -0.388 NA
ATOM      6  C   UNL     1     -37.826  16.262  -1.651  0.00  0.00    +0.153 C 
ATOM      7  C   UNL     1     -36.815  15.278  -2.227  0.00  0.00    +0.031 C 
ATOM      8  C   UNL     1     -35.877  15.005  -1.055  0.00  0.00    +0.024 C 
ATOM      9  C   UNL     1     -35.810  16.346  -0.339  0.00  0.00    +0.095 C 
ATOM     10  C   UNL     1     -37.531  18.236  -0.141  0.00  0.00    +0.310 C 
ATOM     11  C   UNL     1     -36.753  20.113   1.359  0.00  0.00    +0.214 C 
ATOM     12  C   UNL     1     -36.273  22.036   2.729  0.00  0.00    +0.126 C 
ATOM     13  C   UNL     1     -37.497  22.043   2.091  0.00  0.00    +0.103 C 
ATOM     14  C   UNL     1     -38.518  23.107   2.172  0.00  0.00    +0.063 C 
ATOM     15  H   UNL     1     -35.773  18.381   0.865  0.00  0.00    +0.159 HD
ENDROOT
BRANCH  12  19
ATOM     16  N   UNL     1     -34.493  24.875   5.321  0.00  0.00    -0.248 NA
ATOM     17  C   UNL     1     -34.499  25.040   3.980  0.00  0.00    +0.066 C 
ATOM     18  C   UNL     1     -35.067  24.143   3.090  0.00  0.00    +0.012 C 
ATOM     19  C   UNL     1     -35.667  23.001   3.610  0.00  0.00    -0.003 C 
ATOM     20  C   UNL     1     -35.680  22.796   4.986  0.00  0.00    +0.018 C 
ATOM     21  C   UNL     1     -35.085  23.753   5.791  0.00  0.00    +0.098 C 
BRANCH  17  22
ATOM     22  C   UNL     1     -33.847  26.276   3.458  0.00  0.00    +0.123 C 
ATOM     23  C   UNL     1     -32.724  25.956   2.419  0.00  0.00    +0.014 C 
ATOM     24  C   UNL     1     -33.146  27.159   4.545  0.00  0.00    +0.014 C 
BRANCH  22  28
ATOM     25  F   UNL     1     -34.906  27.049   1.416  0.00  0.00    -0.170 F 
ATOM     26  F   UNL     1     -36.139  26.966   3.204  0.00  0.00    -0.170 F 
ATOM     27  F   UNL     1     -34.604  28.503   3.009  0.00  0.00    -0.170 F 
ATOM     28  C   UNL     1     -34.885  27.203   2.760  0.00  0.00    +0.402 C 
ENDBRANCH  22  28
ENDBRANCH  17  22
ENDBRANCH  12  19
BRANCH   6  31
ATOM     29  O   UNL     1     -38.776  14.581  -0.243  0.00  0.00    -0.274 OA
ATOM     30  N   UNL     1     -40.191  16.105  -1.226  0.00  0.00    -0.327 N 
ATOM     31  C   UNL     1     -38.956  15.560  -0.961  0.00  0.00    +0.238 C 
ATOM     32  H   UNL     1     -40.999  15.714  -0.819  0.00  0.00    +0.145 HD
ATOM     33  H   UNL     1     -40.268  16.885  -1.822  0.00  0.00    +0.145 HD
ENDBRANCH   6  31
TORSDOF 4
ENDMDL
MODEL 3
REMARK VINA RESULT:      -6.9      8.188     11.193
REMARK  Name = 56649450
REMARK  4 active torsions:
REMARK  status: ('A' for Active; 'I' for Inactive)
REMARK    1  A    between atoms: C_6  and  C_31
REMARK    2  A    between atoms: C_12  and  C_19
REMARK    3  A    between atoms: C_17  and  C_22
REMARK    4  A    between atoms: C_22  and  C_28
REMARK                            x       y       z     vdW  Elec       q    Type
REMARK                         _______ _______ _______ _____ _____    ______ ____
ROOT
ATOM      1  S   UNL     1     -35.985  30.399   1.885  0.00  0.00    -0.056 S 
ATOM      2  O   UNL     1     -36.409  25.778   1.494  0.00  0.00    -0.252 OA
ATOM      3  N   UNL     1     -35.415  25.778   3.568  0.00  0.00    -0.257 N 
ATOM      4  N   UNL     1     -35.833  27.811   2.481  0.00  0.00    -0.239 N 
ATOM      5  N   UNL     1     -36.820  28.499   0.345  0.00  0.00    -0.388 NA
ATOM      6  C   UNL     1     -35.276  24.329   3.639  0.00  0.00    +0.153 C 
ATOM      7  C   UNL     1     -34.281  24.089   4.769  0.00  0.00    +0.031 C 
ATOM      8  C   UNL     1     -34.509  25.277   5.699  0.00  0.00    +0.024 C 
ATOM      9  C   UNL     1     -34.821  26.417   4.743  0.00  0.00    +0.095 C 
ATOM     10  C   UNL     1     -35.928  26.420   2.430  0.00  0.00    +0.310 C 
ATOM     11  C   UNL     1     -36.252  28.748   1.504  0.00  0.00    +0.214 C 
ATOM     12  C   UNL     1     -36.682  30.835   0.380  0.00  0.00    +0.126 C 
ATOM     13  C   UNL     1     -37.066  29.697  -0.299  0.00  0.00    +0.103 C 
ATOM     14  C   UNL     1     -37.703  29.647  -1.631  0.00  0.00    +0.063 C 
ATOM     15  H   UNL     1     -35.424  28.188   3.294  0.00  0.00    +0.159 HD
ENDROOT
BRANCH  12  19
ATOM     16  N   UNL     1     -36.987  34.925  -0.684  0.00  0.00    -0.248 NA
ATOM     17  C   UNL     1     -37.963  34.293   0.006  0.00  0.00    +0.066 C 
ATOM     18  C   UNL     1     -37.912  32.960   0.378  0.00  0.00    +0.012 C 
ATOM     19  C   UNL     1     -36.786  32.226   0.018  0.00  0.00    -0.003 C 
ATOM     20  C   UNL     1     -35.761  32.841  -0.693  0.00  0.00    +0.018 C 
ATOM     21  C   UNL     1     -35.908  34.180  -1.016  0.00  0.00    +0.098 C 
BRANCH  17  22
ATOM     22  C   UNL     1     -39.154  35.111   0.375  0.00  0.00    +0.123 C 
ATOM     23  C   UNL     1     -40.455  34.249   0.466  0.00  0.00    +0.014 C 
ATOM     24  C   UNL     1     -39.504  36.257  -0.634  0.00  0.00    +0.014 C 
BRANCH  22  28
ATOM     25  F   UNL     1     -40.080  36.387   2.220  0.00  0.00    -0.170 F 
ATOM     26  F   UNL     1     -38.542  34.926   2.695  0.00  0.00    -0.170 F 
ATOM     27  F   UNL     1     -38.009  36.773   1.664  0.00  0.00    -0.170 F 
ATOM     28  C   UNL     1     -38.951  35.805   1.754  0.00  0.00    +0.402 C 
ENDBRANCH  22  28
ENDBRANCH  17  22
ENDBRANCH  12  19
BRANCH   6  31
ATOM     29  O   UNL     1     -37.574  24.485   4.274  0.00  0.00    -0.274 OA
ATOM     30  N   UNL     1     -36.693  22.396   3.882  0.00  0.00    -0.327 N 
ATOM     31  C   UNL     1     -36.628  23.768   3.959  0.00  0.00    +0.238 C 
ATOM     32  H   UNL     1     -37.540  21.932   4.075  0.00  0.00    +0.145 HD
ATOM     33  H   UNL     1     -35.892  21.879   3.636  0.00  0.00    +0.145 HD
ENDBRANCH   6  31
TORSDOF 4
ENDMDL
MODEL 4
REMARK VINA RESULT:      -6.8      7.426     11.250
REMARK  Name = 56649450
REMARK  4 active torsions:
REMARK  status: ('A' for Active; 'I' for Inactive)
REMARK    1  A    between atoms: C_6  and  C_31
REMARK    2  A    between atoms: C_12  and  C_19
REMARK    3  A    between atoms: C_17  and  C_22
REMARK    4  A    between atoms: C_22  and  C_28
REMARK                            x       y       z     vdW  Elec       q    Type
REMARK                         _______ _______ _______ _____ _____    ______ ____
ROOT
ATOM      1  S   UNL     1     -35.179  30.380   2.962  0.00  0.00    -0.056 S 
ATOM      2  O   UNL     1     -36.107  26.009   1.649  0.00  0.00    -0.252 OA
ATOM      3  N   UNL     1     -35.532  25.517   3.821  0.00  0.00    -0.257 N 
ATOM      4  N   UNL     1     -35.473  27.739   3.080  0.00  0.00    -0.239 N 
ATOM      5  N   UNL     1     -35.943  28.911   0.977  0.00  0.00    -0.388 NA
ATOM      6  C   UNL     1     -35.594  24.072   3.641  0.00  0.00    +0.153 C 
ATOM      7  C   UNL     1     -34.870  23.498   4.853  0.00  0.00    +0.031 C 
ATOM      8  C   UNL     1     -35.116  24.541   5.939  0.00  0.00    +0.024 C 
ATOM      9  C   UNL     1     -35.094  25.856   5.175  0.00  0.00    +0.095 C 
ATOM     10  C   UNL     1     -35.734  26.408   2.754  0.00  0.00    +0.310 C 
ATOM     11  C   UNL     1     -35.577  28.876   2.240  0.00  0.00    +0.214 C 
ATOM     12  C   UNL     1     -35.518  31.158   1.472  0.00  0.00    +0.126 C 
ATOM     13  C   UNL     1     -35.908  30.220   0.538  0.00  0.00    +0.103 C 
ATOM     14  C   UNL     1     -36.283  30.489  -0.865  0.00  0.00    +0.063 C 
ATOM     15  H   UNL     1     -35.182  27.910   4.005  0.00  0.00    +0.159 HD
ENDROOT
BRANCH  12  19
ATOM     16  N   UNL     1     -35.092  35.362   1.158  0.00  0.00    -0.248 NA
ATOM     17  C   UNL     1     -36.287  34.752   0.988  0.00  0.00    +0.066 C 
ATOM     18  C   UNL     1     -36.479  33.383   1.080  0.00  0.00    +0.012 C 
ATOM     19  C   UNL     1     -35.373  32.588   1.365  0.00  0.00    -0.003 C 
ATOM     20  C   UNL     1     -34.127  33.180   1.545  0.00  0.00    +0.018 C 
ATOM     21  C   UNL     1     -34.041  34.558   1.432  0.00  0.00    +0.098 C 
BRANCH  17  22
ATOM     22  C   UNL     1     -37.450  35.636   0.685  0.00  0.00    +0.123 C 
ATOM     23  C   UNL     1     -38.036  35.371  -0.740  0.00  0.00    +0.014 C 
ATOM     24  C   UNL     1     -37.133  37.170   0.708  0.00  0.00    +0.014 C 
BRANCH  22  28
ATOM     25  F   UNL     1     -39.316  34.300   1.474  0.00  0.00    -0.170 F 
ATOM     26  F   UNL     1     -38.121  35.321   2.975  0.00  0.00    -0.170 F 
ATOM     27  F   UNL     1     -39.461  36.463   1.687  0.00  0.00    -0.170 F 
ATOM     28  C   UNL     1     -38.597  35.421   1.715  0.00  0.00    +0.402 C 
ENDBRANCH  22  28
ENDBRANCH  17  22
ENDBRANCH  12  19
BRANCH   6  31
ATOM     29  O   UNL     1     -37.927  24.461   3.986  0.00  0.00    -0.274 OA
ATOM     30  N   UNL     1     -37.273  22.405   3.188  0.00  0.00    -0.327 N 
ATOM     31  C   UNL     1     -37.043  23.689   3.624  0.00  0.00    +0.238 C 
ATOM     32  H   UNL     1     -38.194  22.058   3.142  0.00  0.00    +0.145 HD
ATOM     33  H   UNL     1     -36.517  21.832   2.924  0.00  0.00    +0.145 HD
ENDBRANCH   6  31
TORSDOF 4
ENDMDL
MODEL 5
REMARK VINA RESULT:      -6.7      8.015     10.371
REMARK  Name = 56649450
REMARK  4 active torsions:
REMARK  status: ('A' for Active; 'I' for Inactive)
REMARK    1  A    between atoms: C_6  and  C_31
REMARK    2  A    between atoms: C_12  and  C_19
REMARK    3  A    between atoms: C_17  and  C_22
REMARK    4  A    between atoms: C_22  and  C_28
REMARK                            x       y       z     vdW  Elec       q    Type
REMARK                         _______ _______ _______ _____ _____    ______ ____
ROOT
ATOM      1  S   UNL     1     -41.038  26.421   3.671  0.00  0.00    -0.056 S 
ATOM      2  O   UNL     1     -37.789  23.400   2.252  0.00  0.00    -0.252 OA
ATOM      3  N   UNL     1     -36.591  24.270   4.012  0.00  0.00    -0.257 N 
ATOM      4  N   UNL     1     -38.748  25.070   3.568  0.00  0.00    -0.239 N 
ATOM      5  N   UNL     1     -40.499  24.600   1.917  0.00  0.00    -0.388 NA
ATOM      6  C   UNL     1     -35.363  23.551   3.693  0.00  0.00    +0.153 C 
ATOM      7  C   UNL     1     -34.280  24.257   4.500  0.00  0.00    +0.031 C 
ATOM      8  C   UNL     1     -35.031  24.782   5.720  0.00  0.00    +0.024 C 
ATOM      9  C   UNL     1     -36.394  25.157   5.158  0.00  0.00    +0.095 C 
ATOM     10  C   UNL     1     -37.732  24.189   3.197  0.00  0.00    +0.310 C 
ATOM     11  C   UNL     1     -40.016  25.240   2.958  0.00  0.00    +0.214 C 
ATOM     12  C   UNL     1     -42.234  26.059   2.496  0.00  0.00    +0.126 C 
ATOM     13  C   UNL     1     -41.770  25.071   1.652  0.00  0.00    +0.103 C 
ATOM     14  C   UNL     1     -42.501  24.485   0.510  0.00  0.00    +0.063 C 
ATOM     15  H   UNL     1     -38.562  25.644   4.346  0.00  0.00    +0.159 HD
ENDROOT
BRANCH  12  19
ATOM     16  N   UNL     1     -45.925  28.138   2.556  0.00  0.00    -0.248 NA
ATOM     17  C   UNL     1     -45.662  27.128   3.416  0.00  0.00    +0.066 C 
ATOM     18  C   UNL     1     -44.473  26.418   3.437  0.00  0.00    +0.012 C 
ATOM     19  C   UNL     1     -43.490  26.766   2.517  0.00  0.00    -0.003 C 
ATOM     20  C   UNL     1     -43.724  27.799   1.615  0.00  0.00    +0.018 C 
ATOM     21  C   UNL     1     -44.947  28.447   1.676  0.00  0.00    +0.098 C 
BRANCH  17  22
ATOM     22  C   UNL     1     -46.738  26.784   4.390  0.00  0.00    +0.123 C 
ATOM     23  C   UNL     1     -46.989  25.243   4.469  0.00  0.00    +0.014 C 
ATOM     24  C   UNL     1     -48.141  27.400   4.065  0.00  0.00    +0.014 C 
BRANCH  22  28
ATOM     25  F   UNL     1     -45.642  26.378   6.516  0.00  0.00    -0.170 F 
ATOM     26  F   UNL     1     -45.663  28.424   5.784  0.00  0.00    -0.170 F 
ATOM     27  F   UNL     1     -47.498  27.517   6.538  0.00  0.00    -0.170 F 
ATOM     28  C   UNL     1     -46.376  27.277   5.821  0.00  0.00    +0.402 C 
ENDBRANCH  22  28
ENDBRANCH  17  22
ENDBRANCH  12  19
BRANCH   6  31
ATOM     29  O   UNL     1     -35.390  21.786   5.304  0.00  0.00    -0.274 OA
ATOM     30  N   UNL     1     -35.903  21.275   3.121  0.00  0.00    -0.327 N 
ATOM     31  C   UNL     1     -35.553  22.132   4.137  0.00  0.00    +0.238 C 
ATOM     32  H   UNL     1     -36.050  20.319   3.311  0.00  0.00    +0.145 HD
ATOM     33  H   UNL     1     -36.005  21.615   2.202  0.00  0.00    +0.145 HD
ENDBRANCH   6  31
TORSDOF 4
ENDMDL
MODEL 6
REMARK VINA RESULT:      -6.7      2.403      3.128
REMARK  Name = 56649450
REMARK  4 active torsions:
REMARK  status: ('A' for Active; 'I' for Inactive)
REMARK    1  A    between atoms: C_6  and  C_31
REMARK    2  A    between atoms: C_12  and  C_19
REMARK    3  A    between atoms: C_17  and  C_22
REMARK    4  A    between atoms: C_22  and  C_28
REMARK                            x       y       z     vdW  Elec       q    Type
REMARK                         _______ _______ _______ _____ _____    ______ ____
ROOT
ATOM      1  S   UNL     1     -34.534  24.932   2.748  0.00  0.00    -0.056 S 
ATOM      2  O   UNL     1     -32.313  26.919   6.327  0.00  0.00    -0.252 OA
ATOM      3  N   UNL     1     -31.712  28.476   4.745  0.00  0.00    -0.257 N 
ATOM      4  N   UNL     1     -33.055  26.657   4.131  0.00  0.00    -0.239 N 
ATOM      5  N   UNL     1     -34.021  24.713   5.272  0.00  0.00    -0.388 NA
ATOM      6  C   UNL     1     -30.810  29.207   5.627  0.00  0.00    +0.153 C 
ATOM      7  C   UNL     1     -29.975  30.076   4.694  0.00  0.00    +0.031 C 
ATOM      8  C   UNL     1     -30.915  30.341   3.521  0.00  0.00    +0.024 C 
ATOM      9  C   UNL     1     -31.695  29.042   3.396  0.00  0.00    +0.095 C 
ATOM     10  C   UNL     1     -32.367  27.305   5.157  0.00  0.00    +0.310 C 
ATOM     11  C   UNL     1     -33.811  25.460   4.211  0.00  0.00    +0.214 C 
ATOM     12  C   UNL     1     -35.190  23.587   3.586  0.00  0.00    +0.126 C 
ATOM     13  C   UNL     1     -34.812  23.639   4.912  0.00  0.00    +0.103 C 
ATOM     14  C   UNL     1     -35.171  22.663   5.961  0.00  0.00    +0.063 C 
ATOM     15  H   UNL     1     -33.010  27.081   3.244  0.00  0.00    +0.159 HD
ENDROOT
BRANCH  12  19
ATOM     16  N   UNL     1     -37.567  20.770   1.497  0.00  0.00    -0.248 NA
ATOM     17  C   UNL     1     -37.928  22.068   1.602  0.00  0.00    +0.066 C 
ATOM     18  C   UNL     1     -37.187  23.027   2.273  0.00  0.00    +0.012 C 
ATOM     19  C   UNL     1     -35.999  22.629   2.876  0.00  0.00    -0.003 C 
ATOM     20  C   UNL     1     -35.594  21.301   2.790  0.00  0.00    +0.018 C 
ATOM     21  C   UNL     1     -36.406  20.419   2.095  0.00  0.00    +0.098 C 
BRANCH  17  22
ATOM     22  C   UNL     1     -39.208  22.460   0.943  0.00  0.00    +0.123 C 
ATOM     23  C   UNL     1     -40.077  23.390   1.851  0.00  0.00    +0.014 C 
ATOM     24  C   UNL     1     -40.151  21.265   0.576  0.00  0.00    +0.014 C 
BRANCH  22  28
ATOM     25  F   UNL     1     -37.780  22.849  -0.979  0.00  0.00    -0.170 F 
ATOM     26  F   UNL     1     -39.925  23.001  -1.289  0.00  0.00    -0.170 F 
ATOM     27  F   UNL     1     -38.873  24.552  -0.173  0.00  0.00    -0.170 F 
ATOM     28  C   UNL     1     -38.941  23.218  -0.390  0.00  0.00    +0.402 C 
ENDBRANCH  22  28
ENDBRANCH  17  22
ENDBRANCH  12  19
BRANCH   6  31
ATOM     29  O   UNL     1     -32.266  31.027   6.157  0.00  0.00    -0.274 OA
ATOM     30  N   UNL     1     -31.676  29.578   7.843  0.00  0.00    -0.327 N 
ATOM     31  C   UNL     1     -31.660  30.032   6.545  0.00  0.00    +0.238 C 
ATOM     32  H   UNL     1     -32.205  30.053   8.525  0.00  0.00    +0.145 HD
ATOM     33  H   UNL     1     -31.156  28.779   8.092  0.00  0.00    +0.145 HD
ENDBRANCH   6  31
TORSDOF 4
ENDMDL
MODEL 7
REMARK VINA RESULT:      -6.7      5.808     11.556
REMARK  Name = 56649450
REMARK  4 active torsions:
REMARK  status: ('A' for Active; 'I' for Inactive)
REMARK    1  A    between atoms: C_6  and  C_31
REMARK    2  A    between atoms: C_12  and  C_19
REMARK    3  A    between atoms: C_17  and  C_22
REMARK    4  A    between atoms: C_22  and  C_28
REMARK                            x       y       z     vdW  Elec       q    Type
REMARK                         _______ _______ _______ _____ _____    ______ ____
ROOT
ATOM      1  S   UNL     1     -37.375  20.385   0.332  0.00  0.00    -0.056 S 
ATOM      2  O   UNL     1     -36.991  15.768  -0.147  0.00  0.00    -0.252 OA
ATOM      3  N   UNL     1     -39.156  15.933  -0.906  0.00  0.00    -0.257 N 
ATOM      4  N   UNL     1     -38.010  17.864  -0.235  0.00  0.00    -0.239 N 
ATOM      5  N   UNL     1     -35.777  18.376   0.640  0.00  0.00    -0.388 NA
ATOM      6  C   UNL     1     -39.364  14.494  -1.000  0.00  0.00    +0.153 C 
ATOM      7  C   UNL     1     -40.875  14.328  -1.118  0.00  0.00    +0.031 C 
ATOM      8  C   UNL     1     -41.319  15.610  -1.815  0.00  0.00    +0.024 C 
ATOM      9  C   UNL     1     -40.377  16.662  -1.250  0.00  0.00    +0.095 C 
ATOM     10  C   UNL     1     -37.964  16.480  -0.404  0.00  0.00    +0.310 C 
ATOM     11  C   UNL     1     -36.985  18.715   0.249  0.00  0.00    +0.214 C 
ATOM     12  C   UNL     1     -35.803  20.696   0.942  0.00  0.00    +0.126 C 
ATOM     13  C   UNL     1     -35.100  19.513   1.037  0.00  0.00    +0.103 C 
ATOM     14  C   UNL     1     -33.712  19.358   1.520  0.00  0.00    +0.063 C 
ATOM     15  H   UNL     1     -38.856  18.303  -0.482  0.00  0.00    +0.159 HD
ENDROOT
BRANCH  12  19
ATOM     16  N   UNL     1     -34.664  24.669   1.877  0.00  0.00    -0.248 NA
ATOM     17  C   UNL     1     -35.074  23.802   2.830  0.00  0.00    +0.066 C 
ATOM     18  C   UNL     1     -35.456  22.495   2.576  0.00  0.00    +0.012 C 
ATOM     19  C   UNL     1     -35.416  22.048   1.260  0.00  0.00    -0.003 C 
ATOM     20  C   UNL     1     -35.001  22.911   0.251  0.00  0.00    +0.018 C 
ATOM     21  C   UNL     1     -34.639  24.200   0.609  0.00  0.00    +0.098 C 
BRANCH  17  22
ATOM     22  C   UNL     1     -35.103  24.315   4.230  0.00  0.00    +0.123 C 
ATOM     23  C   UNL     1     -33.818  25.132   4.585  0.00  0.00    +0.014 C 
ATOM     24  C   UNL     1     -35.190  23.207   5.334  0.00  0.00    +0.014 C 
BRANCH  22  28
ATOM     25  F   UNL     1     -36.283  26.371   3.713  0.00  0.00    -0.170 F 
ATOM     26  F   UNL     1     -37.489  24.619   4.156  0.00  0.00    -0.170 F 
ATOM     27  F   UNL     1     -36.402  25.625   5.756  0.00  0.00    -0.170 F 
ATOM     28  C   UNL     1     -36.331  25.244   4.460  0.00  0.00    +0.402 C 
ENDBRANCH  22  28
ENDBRANCH  17  22
ENDBRANCH  12  19
BRANCH   6  31
ATOM     29  O   UNL     1     -39.055  14.293  -3.361  0.00  0.00    -0.274 OA
ATOM     30  N   UNL     1     -37.541  13.257  -1.973  0.00  0.00    -0.327 N 
ATOM     31  C   UNL     1     -38.654  14.022  -2.233  0.00  0.00    +0.238 C 
ATOM     32  H   UNL     1     -37.006  12.899  -2.718  0.00  0.00    +0.145 HD
ATOM     33  H   UNL     1     -37.281  13.066  -1.043  0.00  0.00    +0.145 HD
ENDBRANCH   6  31
TORSDOF 4
ENDMDL
MODEL 8
REMARK VINA RESULT:      -6.6      7.790      9.700
REMARK  Name = 56649450
REMARK  4 active torsions:
REMARK  status: ('A' for Active; 'I' for Inactive)
REMARK    1  A    between atoms: C_6  and  C_31
REMARK    2  A    between atoms: C_12  and  C_19
REMARK    3  A    between atoms: C_17  and  C_22
REMARK    4  A    between atoms: C_22  and  C_28
REMARK                            x       y       z     vdW  Elec       q    Type
REMARK                         _______ _______ _______ _____ _____    ______ ____
ROOT
ATOM      1  S   UNL     1     -41.222  26.251   3.711  0.00  0.00    -0.056 S 
ATOM      2  O   UNL     1     -43.506  29.509   1.290  0.00  0.00    -0.252 OA
ATOM      3  N   UNL     1     -44.778  29.658   3.200  0.00  0.00    -0.257 N 
ATOM      4  N   UNL     1     -43.000  28.134   3.106  0.00  0.00    -0.239 N 
ATOM      5  N   UNL     1     -41.315  27.491   1.444  0.00  0.00    -0.388 NA
ATOM      6  C   UNL     1     -45.752  30.579   2.628  0.00  0.00    +0.153 C 
ATOM      7  C   UNL     1     -46.936  30.537   3.587  0.00  0.00    +0.031 C 
ATOM      8  C   UNL     1     -46.290  30.224   4.934  0.00  0.00    +0.024 C 
ATOM      9  C   UNL     1     -45.148  29.289   4.566  0.00  0.00    +0.095 C 
ATOM     10  C   UNL     1     -43.728  29.120   2.438  0.00  0.00    +0.310 C 
ATOM     11  C   UNL     1     -41.890  27.398   2.623  0.00  0.00    +0.214 C 
ATOM     12  C   UNL     1     -40.062  25.833   2.520  0.00  0.00    +0.126 C 
ATOM     13  C   UNL     1     -40.267  26.592   1.386  0.00  0.00    +0.103 C 
ATOM     14  C   UNL     1     -39.479  26.529   0.138  0.00  0.00    +0.063 C 
ATOM     15  H   UNL     1     -43.293  27.926   4.022  0.00  0.00    +0.159 HD
ENDROOT
BRANCH  12  19
ATOM     16  N   UNL     1     -37.172  22.851   3.363  0.00  0.00    -0.248 NA
ATOM     17  C   UNL     1     -37.049  24.114   3.828  0.00  0.00    +0.066 C 
ATOM     18  C   UNL     1     -37.964  25.124   3.581  0.00  0.00    +0.012 C 
ATOM     19  C   UNL     1     -39.078  24.819   2.806  0.00  0.00    -0.003 C 
ATOM     20  C   UNL     1     -39.240  23.529   2.310  0.00  0.00    +0.018 C 
ATOM     21  C   UNL     1     -38.267  22.590   2.614  0.00  0.00    +0.098 C 
BRANCH  17  22
ATOM     22  C   UNL     1     -35.842  24.406   4.655  0.00  0.00    +0.123 C 
ATOM     23  C   UNL     1     -35.483  23.221   5.610  0.00  0.00    +0.014 C 
ATOM     24  C   UNL     1     -35.976  25.651   5.596  0.00  0.00    +0.014 C 
BRANCH  22  28
ATOM     25  F   UNL     1     -33.439  24.671   4.450  0.00  0.00    -0.170 F 
ATOM     26  F   UNL     1     -34.484  23.759   2.776  0.00  0.00    -0.170 F 
ATOM     27  F   UNL     1     -34.703  25.894   3.165  0.00  0.00    -0.170 F 
ATOM     28  C   UNL     1     -34.601  24.681   3.757  0.00  0.00    +0.402 C 
ENDBRANCH  22  28
ENDBRANCH  17  22
ENDBRANCH  12  19
BRANCH   6  31
ATOM     29  O   UNL     1     -44.167  32.230   3.318  0.00  0.00    -0.274 OA
ATOM     30  N   UNL     1     -45.693  32.798   1.693  0.00  0.00    -0.327 N 
ATOM     31  C   UNL     1     -45.113  31.935   2.592  0.00  0.00    +0.238 C 
ATOM     32  H   UNL     1     -45.345  33.714   1.595  0.00  0.00    +0.145 HD
ATOM     33  H   UNL     1     -46.459  32.502   1.149  0.00  0.00    +0.145 HD
ENDBRANCH   6  31
TORSDOF 4
ENDMDL
MODEL 9
REMARK VINA RESULT:      -6.6      5.785     11.439
REMARK  Name = 56649450
REMARK  4 active torsions:
REMARK  status: ('A' for Active; 'I' for Inactive)
REMARK    1  A    between atoms: C_6  and  C_31
REMARK    2  A    between atoms: C_12  and  C_19
REMARK    3  A    between atoms: C_17  and  C_22
REMARK    4  A    between atoms: C_22  and  C_28
REMARK                            x       y       z     vdW  Elec       q    Type
REMARK                         _______ _______ _______ _____ _____    ______ ____
ROOT
ATOM      1  S   UNL     1     -35.880  19.993   0.335  0.00  0.00    -0.056 S 
ATOM      2  O   UNL     1     -39.751  17.755  -0.970  0.00  0.00    -0.252 OA
ATOM      3  N   UNL     1     -38.285  16.047  -1.441  0.00  0.00    -0.257 N 
ATOM      4  N   UNL     1     -37.472  18.069  -0.580  0.00  0.00    -0.239 N 
ATOM      5  N   UNL     1     -38.447  20.210   0.112  0.00  0.00    -0.388 NA
ATOM      6  C   UNL     1     -39.289  15.189  -2.058  0.00  0.00    +0.153 C 
ATOM      7  C   UNL     1     -38.488  14.135  -2.812  0.00  0.00    +0.031 C 
ATOM      8  C   UNL     1     -37.205  14.012  -1.995  0.00  0.00    +0.024 C 
ATOM      9  C   UNL     1     -36.959  15.434  -1.514  0.00  0.00    +0.095 C 
ATOM     10  C   UNL     1     -38.590  17.340  -0.988  0.00  0.00    +0.310 C 
ATOM     11  C   UNL     1     -37.434  19.393  -0.076  0.00  0.00    +0.214 C 
ATOM     12  C   UNL     1     -36.604  21.474   0.808  0.00  0.00    +0.126 C 
ATOM     13  C   UNL     1     -37.969  21.404   0.618  0.00  0.00    +0.103 C 
ATOM     14  C   UNL     1     -38.947  22.474   0.903  0.00  0.00    +0.063 C 
ATOM     15  H   UNL     1     -36.605  17.608  -0.650  0.00  0.00    +0.159 HD
ENDROOT
BRANCH  12  19
ATOM     16  N   UNL     1     -34.177  24.616   2.287  0.00  0.00    -0.248 NA
ATOM     17  C   UNL     1     -35.078  23.983   3.071  0.00  0.00    +0.066 C 
ATOM     18  C   UNL     1     -35.894  22.952   2.636  0.00  0.00    +0.012 C 
ATOM     19  C   UNL     1     -35.779  22.543   1.311  0.00  0.00    -0.003 C 
ATOM     20  C   UNL     1     -34.863  23.172   0.474  0.00  0.00    +0.018 C 
ATOM     21  C   UNL     1     -34.092  24.193   1.006  0.00  0.00    +0.098 C 
BRANCH  17  22
ATOM     22  C   UNL     1     -35.175  24.446   4.485  0.00  0.00    +0.123 C 
ATOM     23  C   UNL     1     -33.872  25.171   4.957  0.00  0.00    +0.014 C 
ATOM     24  C   UNL     1     -35.401  23.306   5.536  0.00  0.00    +0.014 C 
BRANCH  22  28
ATOM     25  F   UNL     1     -37.567  24.846   4.519  0.00  0.00    -0.170 F 
ATOM     26  F   UNL     1     -36.347  26.003   5.897  0.00  0.00    -0.170 F 
ATOM     27  F   UNL     1     -36.288  26.438   3.760  0.00  0.00    -0.170 F 
ATOM     28  C   UNL     1     -36.360  25.438   4.670  0.00  0.00    +0.402 C 
ENDBRANCH  22  28
ENDBRANCH  17  22
ENDBRANCH  12  19
BRANCH   6  31
ATOM     29  O   UNL     1     -39.660  13.694  -0.231  0.00  0.00    -0.274 OA
ATOM     30  N   UNL     1     -41.365  15.115  -0.838  0.00  0.00    -0.327 N 
ATOM     31  C   UNL     1     -40.100  14.587  -0.951  0.00  0.00    +0.238 C 
ATOM     32  H   UNL     1     -41.976  14.784  -0.140  0.00  0.00    +0.145 HD
ATOM     33  H   UNL     1     -41.660  15.822  -1.457  0.00  0.00    +0.145 HD
ENDBRANCH   6  31
TORSDOF 4
ENDMDL
