MODEL 1
REMARK VINA RESULT:      -6.5      0.000      0.000
REMARK  Name = 21252278
REMARK  9 active torsions:
REMARK  status: ('A' for Active; 'I' for Inactive)
REMARK    1  A    between atoms: C_6  and  C_26
REMARK    2  A    between atoms: C_7  and  O_20
REMARK    3  A    between atoms: C_11  and  O_22
REMARK    4  A    between atoms: C_19  and  O_24
REMARK    5  A    between atoms: C_26  and  C_28
REMARK    6  A    between atoms: C_29  and  C_30
REMARK    7  A    between atoms: C_30  and  O_31
REMARK    8  A    between atoms: C_30  and  C_33
REMARK    9  A    between atoms: C_33  and  O_35
REMARK                            x       y       z     vdW  Elec       q    Type
REMARK                         _______ _______ _______ _____ _____    ______ ____
ROOT
ATOM      1  C   UNL     1     -36.187  22.110   2.290  0.00  0.00    +0.025 C 
ATOM      2  C   UNL     1     -37.599  22.364   1.713  0.00  0.00    +0.005 C 
ATOM      3  C   UNL     1     -37.700  22.060   0.210  0.00  0.00    +0.027 C 
ATOM      4  C   UNL     1     -37.330  20.556  -0.029  0.00  0.00    +0.005 C 
ATOM      5  C   UNL     1     -37.411  20.173  -1.558  0.00  0.00    +0.000 C 
ATOM      6  C   UNL     1     -36.435  22.584   3.746  0.00  0.00    +0.006 C 
ATOM      7  C   UNL     1     -35.837  20.618   2.114  0.00  0.00    +0.110 C 
ATOM      8  C   UNL     1     -35.978  20.173   0.642  0.00  0.00    +0.029 C 
ATOM      9  C   UNL     1     -38.840  20.509  -2.100  0.00  0.00    +0.005 C 
ATOM     10  C   UNL     1     -37.937  23.775   2.194  0.00  0.00    +0.000 C 
ATOM     11  C   UNL     1     -39.086  22.410  -0.364  0.00  0.00    +0.110 C 
ATOM     12  C   UNL     1     -37.269  23.874   3.577  0.00  0.00    +0.000 C 
ATOM     13  C   UNL     1     -39.245  21.970  -1.822  0.00  0.00    +0.029 C 
ATOM     14  C   UNL     1     -37.121  18.664  -1.813  0.00  0.00    +0.002 C 
ATOM     15  C   UNL     1     -35.079  22.964   1.614  0.00  0.00    +0.002 C 
ATOM     16  C   UNL     1     -39.919  19.526  -1.597  0.00  0.00    +0.029 C 
ATOM     17  C   UNL     1     -36.354  20.950  -2.389  0.00  0.00    +0.000 C 
ATOM     18  C   UNL     1     -38.195  17.726  -1.278  0.00  0.00    +0.029 C 
ATOM     19  C   UNL     1     -39.555  18.070  -1.872  0.00  0.00    +0.111 C 
ENDROOT
BRANCH   7  20
ATOM     20  O   UNL     1     -36.640  19.776   2.940  0.00  0.00    -0.384 OA
ATOM     21  H   UNL     1     -37.317  20.309   3.384  0.00  0.00    +0.210 HD
ENDBRANCH   7  20
BRANCH  11  22
ATOM     22  O   UNL     1     -40.114  21.837   0.437  0.00  0.00    -0.384 OA
ATOM     23  H   UNL     1     -40.369  22.463   1.133  0.00  0.00    +0.210 HD
ENDBRANCH  11  22
BRANCH  19  24
ATOM     24  O   UNL     1     -40.533  17.213  -1.291  0.00  0.00    -0.384 OA
ATOM     25  H   UNL     1     -40.160  16.325  -1.180  0.00  0.00    +0.210 HD
ENDBRANCH  19  24
BRANCH   6  26
ATOM     26  C   UNL     1     -35.199  22.786   4.613  0.00  0.00    +0.022 C 
ATOM     27  C   UNL     1     -35.221  21.809   5.795  0.00  0.00    +0.005 C 
BRANCH  26  28
ATOM     28  C   UNL     1     -35.077  24.230   5.142  0.00  0.00    -0.029 C 
ATOM     29  C   UNL     1     -34.031  25.104   4.441  0.00  0.00    +0.000 C 
BRANCH  29  30
ATOM     30  C   UNL     1     -33.964  26.567   4.904  0.00  0.00    +0.159 C 
BRANCH  30  31
ATOM     31  O   UNL     1     -32.893  26.676   5.847  0.00  0.00    -0.378 OA
ATOM     32  H   UNL     1     -33.208  26.415   6.726  0.00  0.00    +0.211 HD
ENDBRANCH  30  31
BRANCH  30  33
ATOM     33  C   UNL     1     -33.728  27.577   3.770  0.00  0.00    +0.141 C 
ATOM     34  C   UNL     1     -33.472  26.906   2.425  0.00  0.00    +0.035 C 
BRANCH  33  35
ATOM     35  O   UNL     1     -34.854  28.441   3.634  0.00  0.00    -0.382 OA
ATOM     36  H   UNL     1     -35.662  27.960   3.872  0.00  0.00    +0.210 HD
ENDBRANCH  33  35
ENDBRANCH  30  33
ENDBRANCH  29  30
ENDBRANCH  26  28
ENDBRANCH   6  26
TORSDOF 9
ENDMDL
MODEL 2
REMARK VINA RESULT:      -6.2      4.441      7.257
REMARK  Name = 21252278
REMARK  9 active torsions:
REMARK  status: ('A' for Active; 'I' for Inactive)
REMARK    1  A    between atoms: C_6  and  C_26
REMARK    2  A    between atoms: C_7  and  O_20
REMARK    3  A    between atoms: C_11  and  O_22
REMARK    4  A    between atoms: C_19  and  O_24
REMARK    5  A    between atoms: C_26  and  C_28
REMARK    6  A    between atoms: C_29  and  C_30
REMARK    7  A    between atoms: C_30  and  O_31
REMARK    8  A    between atoms: C_30  and  C_33
REMARK    9  A    between atoms: C_33  and  O_35
REMARK                            x       y       z     vdW  Elec       q    Type
REMARK                         _______ _______ _______ _____ _____    ______ ____
ROOT
ATOM      1  C   UNL     1     -39.829  25.193   1.726  0.00  0.00    +0.025 C 
ATOM      2  C   UNL     1     -39.379  23.743   1.428  0.00  0.00    +0.005 C 
ATOM      3  C   UNL     1     -37.852  23.573   1.429  0.00  0.00    +0.027 C 
ATOM      4  C   UNL     1     -37.296  23.986   2.835  0.00  0.00    +0.005 C 
ATOM      5  C   UNL     1     -35.727  23.838   2.907  0.00  0.00    +0.000 C 
ATOM      6  C   UNL     1     -41.360  25.005   1.567  0.00  0.00    +0.006 C 
ATOM      7  C   UNL     1     -39.338  25.588   3.134  0.00  0.00    +0.110 C 
ATOM      8  C   UNL     1     -37.814  25.386   3.281  0.00  0.00    +0.029 C 
ATOM      9  C   UNL     1     -35.328  22.371   2.537  0.00  0.00    +0.005 C 
ATOM     10  C   UNL     1     -40.151  23.378   0.160  0.00  0.00    +0.000 C 
ATOM     11  C   UNL     1     -37.423  22.146   1.037  0.00  0.00    +0.110 C 
ATOM     12  C   UNL     1     -41.493  24.115   0.309  0.00  0.00    +0.000 C 
ATOM     13  C   UNL     1     -35.915  21.926   1.182  0.00  0.00    +0.029 C 
ATOM     14  C   UNL     1     -35.158  24.170   4.319  0.00  0.00    +0.002 C 
ATOM     15  C   UNL     1     -39.291  26.229   0.702  0.00  0.00    +0.002 C 
ATOM     16  C   UNL     1     -35.669  21.358   3.652  0.00  0.00    +0.029 C 
ATOM     17  C   UNL     1     -35.024  24.819   1.929  0.00  0.00    +0.000 C 
ATOM     18  C   UNL     1     -35.539  23.162   5.394  0.00  0.00    +0.029 C 
ATOM     19  C   UNL     1     -35.088  21.760   5.004  0.00  0.00    +0.111 C 
ENDROOT
BRANCH   7  20
ATOM     20  O   UNL     1     -40.011  24.862   4.162  0.00  0.00    -0.384 OA
ATOM     21  H   UNL     1     -39.360  24.517   4.793  0.00  0.00    +0.210 HD
ENDBRANCH   7  20
BRANCH  11  22
ATOM     22  O   UNL     1     -38.136  21.185   1.807  0.00  0.00    -0.384 OA
ATOM     23  H   UNL     1     -37.878  20.291   1.529  0.00  0.00    +0.210 HD
ENDBRANCH  11  22
BRANCH  19  24
ATOM     24  O   UNL     1     -35.526  20.848   6.005  0.00  0.00    -0.384 OA
ATOM     25  H   UNL     1     -35.924  20.070   5.582  0.00  0.00    +0.210 HD
ENDBRANCH  19  24
BRANCH   6  26
ATOM     26  C   UNL     1     -42.194  26.276   1.483  0.00  0.00    +0.022 C 
ATOM     27  C   UNL     1     -41.757  27.111   0.273  0.00  0.00    +0.005 C 
BRANCH  26  28
ATOM     28  C   UNL     1     -42.095  27.134   2.761  0.00  0.00    -0.029 C 
ATOM     29  C   UNL     1     -43.411  27.751   3.246  0.00  0.00    +0.000 C 
BRANCH  29  30
ATOM     30  C   UNL     1     -43.337  28.535   4.565  0.00  0.00    +0.159 C 
BRANCH  30  31
ATOM     31  O   UNL     1     -41.969  28.898   4.778  0.00  0.00    -0.378 OA
ATOM     32  H   UNL     1     -41.726  29.613   4.170  0.00  0.00    +0.211 HD
ENDBRANCH  30  31
BRANCH  30  33
ATOM     33  C   UNL     1     -44.196  29.810   4.590  0.00  0.00    +0.141 C 
ATOM     34  C   UNL     1     -43.923  30.681   5.811  0.00  0.00    +0.035 C 
BRANCH  33  35
ATOM     35  O   UNL     1     -43.960  30.589   3.419  0.00  0.00    -0.382 OA
ATOM     36  H   UNL     1     -44.694  30.469   2.798  0.00  0.00    +0.210 HD
ENDBRANCH  33  35
ENDBRANCH  30  33
ENDBRANCH  29  30
ENDBRANCH  26  28
ENDBRANCH   6  26
TORSDOF 9
ENDMDL
MODEL 3
REMARK VINA RESULT:      -6.1      4.228      8.064
REMARK  Name = 21252278
REMARK  9 active torsions:
REMARK  status: ('A' for Active; 'I' for Inactive)
REMARK    1  A    between atoms: C_6  and  C_26
REMARK    2  A    between atoms: C_7  and  O_20
REMARK    3  A    between atoms: C_11  and  O_22
REMARK    4  A    between atoms: C_19  and  O_24
REMARK    5  A    between atoms: C_26  and  C_28
REMARK    6  A    between atoms: C_29  and  C_30
REMARK    7  A    between atoms: C_30  and  O_31
REMARK    8  A    between atoms: C_30  and  C_33
REMARK    9  A    between atoms: C_33  and  O_35
REMARK                            x       y       z     vdW  Elec       q    Type
REMARK                         _______ _______ _______ _____ _____    ______ ____
ROOT
ATOM      1  C   UNL     1     -39.684  25.028   1.662  0.00  0.00    +0.025 C 
ATOM      2  C   UNL     1     -39.304  23.544   1.451  0.00  0.00    +0.005 C 
ATOM      3  C   UNL     1     -37.787  23.309   1.415  0.00  0.00    +0.027 C 
ATOM      4  C   UNL     1     -37.166  23.792   2.771  0.00  0.00    +0.005 C 
ATOM      5  C   UNL     1     -35.603  23.581   2.804  0.00  0.00    +0.000 C 
ATOM      6  C   UNL     1     -41.227  24.897   1.564  0.00  0.00    +0.006 C 
ATOM      7  C   UNL     1     -39.130  25.497   3.023  0.00  0.00    +0.110 C 
ATOM      8  C   UNL     1     -37.612  25.239   3.135  0.00  0.00    +0.029 C 
ATOM      9  C   UNL     1     -35.278  22.077   2.524  0.00  0.00    +0.005 C 
ATOM     10  C   UNL     1     -40.134  23.128   0.236  0.00  0.00    +0.000 C 
ATOM     11  C   UNL     1     -37.430  21.842   1.110  0.00  0.00    +0.110 C 
ATOM     12  C   UNL     1     -41.439  23.930   0.376  0.00  0.00    +0.000 C 
ATOM     13  C   UNL     1     -35.928  21.567   1.222  0.00  0.00    +0.029 C 
ATOM     14  C   UNL     1     -34.973  23.983   4.171  0.00  0.00    +0.002 C 
ATOM     15  C   UNL     1     -39.140  25.970   0.552  0.00  0.00    +0.002 C 
ATOM     16  C   UNL     1     -35.621  21.157   3.716  0.00  0.00    +0.029 C 
ATOM     17  C   UNL     1     -34.895  24.462   1.740  0.00  0.00    +0.000 C 
ATOM     18  C   UNL     1     -35.358  23.068   5.325  0.00  0.00    +0.029 C 
ATOM     19  C   UNL     1     -34.978  21.625   5.018  0.00  0.00    +0.111 C 
ENDROOT
BRANCH   7  20
ATOM     20  O   UNL     1     -39.796  24.872   4.119  0.00  0.00    -0.384 OA
ATOM     21  H   UNL     1     -39.273  24.994   4.927  0.00  0.00    +0.210 HD
ENDBRANCH   7  20
BRANCH  11  22
ATOM     22  O   UNL     1     -38.155  20.966   1.967  0.00  0.00    -0.384 OA
ATOM     23  H   UNL     1     -38.505  21.467   2.720  0.00  0.00    +0.210 HD
ENDBRANCH  11  22
BRANCH  19  24
ATOM     24  O   UNL     1     -35.419  20.802   6.094  0.00  0.00    -0.384 OA
ATOM     25  H   UNL     1     -35.794  21.358   6.794  0.00  0.00    +0.210 HD
ENDBRANCH  19  24
BRANCH   6  26
ATOM     26  C   UNL     1     -42.010  26.194   1.419  0.00  0.00    +0.022 C 
ATOM     27  C   UNL     1     -42.175  26.863   2.790  0.00  0.00    +0.005 C 
BRANCH  26  28
ATOM     28  C   UNL     1     -43.398  25.981   0.782  0.00  0.00    -0.029 C 
ATOM     29  C   UNL     1     -44.480  25.439   1.722  0.00  0.00    +0.000 C 
BRANCH  29  30
ATOM     30  C   UNL     1     -45.886  25.306   1.116  0.00  0.00    +0.159 C 
BRANCH  30  31
ATOM     31  O   UNL     1     -45.858  24.218   0.188  0.00  0.00    -0.378 OA
ATOM     32  H   UNL     1     -45.742  24.562  -0.711  0.00  0.00    +0.211 HD
ENDBRANCH  30  31
BRANCH  30  33
ATOM     33  C   UNL     1     -46.995  25.046   2.149  0.00  0.00    +0.141 C 
ATOM     34  C   UNL     1     -46.448  24.668   3.521  0.00  0.00    +0.035 C 
BRANCH  33  35
ATOM     35  O   UNL     1     -47.816  26.203   2.294  0.00  0.00    -0.382 OA
ATOM     36  H   UNL     1     -48.337  26.129   3.109  0.00  0.00    +0.210 HD
ENDBRANCH  33  35
ENDBRANCH  30  33
ENDBRANCH  29  30
ENDBRANCH  26  28
ENDBRANCH   6  26
TORSDOF 9
ENDMDL
MODEL 4
REMARK VINA RESULT:      -5.9      3.667      7.592
REMARK  Name = 21252278
REMARK  9 active torsions:
REMARK  status: ('A' for Active; 'I' for Inactive)
REMARK    1  A    between atoms: C_6  and  C_26
REMARK    2  A    between atoms: C_7  and  O_20
REMARK    3  A    between atoms: C_11  and  O_22
REMARK    4  A    between atoms: C_19  and  O_24
REMARK    5  A    between atoms: C_26  and  C_28
REMARK    6  A    between atoms: C_29  and  C_30
REMARK    7  A    between atoms: C_30  and  O_31
REMARK    8  A    between atoms: C_30  and  C_33
REMARK    9  A    between atoms: C_33  and  O_35
REMARK                            x       y       z     vdW  Elec       q    Type
REMARK                         _______ _______ _______ _____ _____    ______ ____
ROOT
ATOM      1  C   UNL     1     -39.690  25.098   1.661  0.00  0.00    +0.025 C 
ATOM      2  C   UNL     1     -39.326  23.609   1.451  0.00  0.00    +0.005 C 
ATOM      3  C   UNL     1     -37.811  23.358   1.415  0.00  0.00    +0.027 C 
ATOM      4  C   UNL     1     -37.185  23.834   2.770  0.00  0.00    +0.005 C 
ATOM      5  C   UNL     1     -35.625  23.607   2.803  0.00  0.00    +0.000 C 
ATOM      6  C   UNL     1     -41.234  24.983   1.564  0.00  0.00    +0.006 C 
ATOM      7  C   UNL     1     -39.130  25.561   3.022  0.00  0.00    +0.110 C 
ATOM      8  C   UNL     1     -37.615  25.287   3.134  0.00  0.00    +0.029 C 
ATOM      9  C   UNL     1     -35.316  22.098   2.523  0.00  0.00    +0.005 C 
ATOM     10  C   UNL     1     -40.161  23.202   0.236  0.00  0.00    +0.000 C 
ATOM     11  C   UNL     1     -37.471  21.887   1.109  0.00  0.00    +0.110 C 
ATOM     12  C   UNL     1     -41.457  24.018   0.376  0.00  0.00    +0.000 C 
ATOM     13  C   UNL     1     -35.972  21.596   1.222  0.00  0.00    +0.029 C 
ATOM     14  C   UNL     1     -34.990  24.002   4.169  0.00  0.00    +0.002 C 
ATOM     15  C   UNL     1     -39.136  26.033   0.551  0.00  0.00    +0.002 C 
ATOM     16  C   UNL     1     -35.669  21.183   3.716  0.00  0.00    +0.029 C 
ATOM     17  C   UNL     1     -34.907  24.480   1.738  0.00  0.00    +0.000 C 
ATOM     18  C   UNL     1     -35.384  23.092   5.324  0.00  0.00    +0.029 C 
ATOM     19  C   UNL     1     -35.021  21.645   5.018  0.00  0.00    +0.111 C 
ENDROOT
BRANCH   7  20
ATOM     20  O   UNL     1     -39.803  24.944   4.119  0.00  0.00    -0.384 OA
ATOM     21  H   UNL     1     -39.676  23.983   4.076  0.00  0.00    +0.210 HD
ENDBRANCH   7  20
BRANCH  11  22
ATOM     22  O   UNL     1     -38.205  21.019   1.967  0.00  0.00    -0.384 OA
ATOM     23  H   UNL     1     -37.591  20.432   2.436  0.00  0.00    +0.210 HD
ENDBRANCH  11  22
BRANCH  19  24
ATOM     24  O   UNL     1     -35.470  20.827   6.093  0.00  0.00    -0.384 OA
ATOM     25  H   UNL     1     -36.213  20.279   5.795  0.00  0.00    +0.210 HD
ENDBRANCH  19  24
BRANCH   6  26
ATOM     26  C   UNL     1     -42.003  26.289   1.419  0.00  0.00    +0.022 C 
ATOM     27  C   UNL     1     -42.912  26.500   2.636  0.00  0.00    +0.005 C 
BRANCH  26  28
ATOM     28  C   UNL     1     -42.850  26.339   0.131  0.00  0.00    -0.029 C 
ATOM     29  C   UNL     1     -42.337  27.285  -0.960  0.00  0.00    +0.000 C 
BRANCH  29  30
ATOM     30  C   UNL     1     -43.126  27.275  -2.279  0.00  0.00    +0.159 C 
BRANCH  30  31
ATOM     31  O   UNL     1     -42.962  28.557  -2.893  0.00  0.00    -0.378 OA
ATOM     32  H   UNL     1     -42.558  29.169  -2.260  0.00  0.00    +0.211 HD
ENDBRANCH  30  31
BRANCH  30  33
ATOM     33  C   UNL     1     -42.681  26.190  -3.272  0.00  0.00    +0.141 C 
ATOM     34  C   UNL     1     -41.230  25.767  -3.072  0.00  0.00    +0.035 C 
BRANCH  33  35
ATOM     35  O   UNL     1     -43.508  25.035  -3.147  0.00  0.00    -0.382 OA
ATOM     36  H   UNL     1     -43.376  24.458  -3.915  0.00  0.00    +0.210 HD
ENDBRANCH  33  35
ENDBRANCH  30  33
ENDBRANCH  29  30
ENDBRANCH  26  28
ENDBRANCH   6  26
TORSDOF 9
ENDMDL
MODEL 5
REMARK VINA RESULT:      -5.9      3.187     10.213
REMARK  Name = 21252278
REMARK  9 active torsions:
REMARK  status: ('A' for Active; 'I' for Inactive)
REMARK    1  A    between atoms: C_6  and  C_26
REMARK    2  A    between atoms: C_7  and  O_20
REMARK    3  A    between atoms: C_11  and  O_22
REMARK    4  A    between atoms: C_19  and  O_24
REMARK    5  A    between atoms: C_26  and  C_28
REMARK    6  A    between atoms: C_29  and  C_30
REMARK    7  A    between atoms: C_30  and  O_31
REMARK    8  A    between atoms: C_30  and  C_33
REMARK    9  A    between atoms: C_33  and  O_35
REMARK                            x       y       z     vdW  Elec       q    Type
REMARK                         _______ _______ _______ _____ _____    ______ ____
ROOT
ATOM      1  C   UNL     1     -33.800  26.572   3.313  0.00  0.00    +0.025 C 
ATOM      2  C   UNL     1     -32.405  26.242   2.729  0.00  0.00    +0.005 C 
ATOM      3  C   UNL     1     -31.487  27.470   2.633  0.00  0.00    +0.027 C 
ATOM      4  C   UNL     1     -31.294  28.073   4.067  0.00  0.00    +0.005 C 
ATOM      5  C   UNL     1     -30.359  29.343   4.044  0.00  0.00    +0.000 C 
ATOM      6  C   UNL     1     -34.450  25.169   3.185  0.00  0.00    +0.006 C 
ATOM      7  C   UNL     1     -33.626  27.110   4.747  0.00  0.00    +0.110 C 
ATOM      8  C   UNL     1     -32.654  28.309   4.789  0.00  0.00    +0.029 C 
ATOM      9  C   UNL     1     -28.989  28.964   3.389  0.00  0.00    +0.005 C 
ATOM     10  C   UNL     1     -32.723  25.469   1.449  0.00  0.00    +0.000 C 
ATOM     11  C   UNL     1     -30.139  27.139   1.963  0.00  0.00    +0.110 C 
ATOM     12  C   UNL     1     -33.998  24.679   1.790  0.00  0.00    +0.000 C 
ATOM     13  C   UNL     1     -29.161  28.316   2.001  0.00  0.00    +0.029 C 
ATOM     14  C   UNL     1     -30.091  29.916   5.468  0.00  0.00    +0.002 C 
ATOM     15  C   UNL     1     -34.586  27.621   2.479  0.00  0.00    +0.002 C 
ATOM     16  C   UNL     1     -28.106  28.092   4.307  0.00  0.00    +0.029 C 
ATOM     17  C   UNL     1     -31.005  30.503   3.239  0.00  0.00    +0.000 C 
ATOM     18  C   UNL     1     -29.240  29.013   6.350  0.00  0.00    +0.029 C 
ATOM     19  C   UNL     1     -27.903  28.714   5.685  0.00  0.00    +0.111 C 
ENDROOT
BRANCH   7  20
ATOM     20  O   UNL     1     -33.169  26.102   5.648  0.00  0.00    -0.384 OA
ATOM     21  H   UNL     1     -32.729  26.520   6.405  0.00  0.00    +0.210 HD
ENDBRANCH   7  20
BRANCH  11  22
ATOM     22  O   UNL     1     -29.552  25.992   2.569  0.00  0.00    -0.384 OA
ATOM     23  H   UNL     1     -28.604  26.149   2.708  0.00  0.00    +0.210 HD
ENDBRANCH  11  22
BRANCH  19  24
ATOM     24  O   UNL     1     -27.174  27.815   6.515  0.00  0.00    -0.384 OA
ATOM     25  H   UNL     1     -26.445  28.289   6.944  0.00  0.00    +0.210 HD
ENDBRANCH  19  24
BRANCH   6  26
ATOM     26  C   UNL     1     -35.959  25.101   3.377  0.00  0.00    +0.022 C 
ATOM     27  C   UNL     1     -36.286  24.650   4.806  0.00  0.00    +0.005 C 
BRANCH  26  28
ATOM     28  C   UNL     1     -36.642  24.154   2.371  0.00  0.00    -0.029 C 
ATOM     29  C   UNL     1     -37.276  22.896   2.974  0.00  0.00    +0.000 C 
BRANCH  29  30
ATOM     30  C   UNL     1     -38.034  21.991   1.990  0.00  0.00    +0.159 C 
BRANCH  30  31
ATOM     31  O   UNL     1     -37.771  20.634   2.358  0.00  0.00    -0.378 OA
ATOM     32  H   UNL     1     -37.414  20.155   1.594  0.00  0.00    +0.211 HD
ENDBRANCH  30  31
BRANCH  30  33
ATOM     33  C   UNL     1     -39.555  22.213   1.972  0.00  0.00    +0.141 C 
ATOM     34  C   UNL     1     -40.061  22.722   0.627  0.00  0.00    +0.035 C 
BRANCH  33  35
ATOM     35  O   UNL     1     -40.235  20.998   2.279  0.00  0.00    -0.382 OA
ATOM     36  H   UNL     1     -41.187  21.169   2.348  0.00  0.00    +0.210 HD
ENDBRANCH  33  35
ENDBRANCH  30  33
ENDBRANCH  29  30
ENDBRANCH  26  28
ENDBRANCH   6  26
TORSDOF 9
ENDMDL
MODEL 6
REMARK VINA RESULT:      -5.8      1.405      1.699
REMARK  Name = 21252278
REMARK  9 active torsions:
REMARK  status: ('A' for Active; 'I' for Inactive)
REMARK    1  A    between atoms: C_6  and  C_26
REMARK    2  A    between atoms: C_7  and  O_20
REMARK    3  A    between atoms: C_11  and  O_22
REMARK    4  A    between atoms: C_19  and  O_24
REMARK    5  A    between atoms: C_26  and  C_28
REMARK    6  A    between atoms: C_29  and  C_30
REMARK    7  A    between atoms: C_30  and  O_31
REMARK    8  A    between atoms: C_30  and  C_33
REMARK    9  A    between atoms: C_33  and  O_35
REMARK                            x       y       z     vdW  Elec       q    Type
REMARK                         _______ _______ _______ _____ _____    ______ ____
ROOT
ATOM      1  C   UNL     1     -35.910  22.149   2.094  0.00  0.00    +0.025 C 
ATOM      2  C   UNL     1     -37.315  21.824   1.533  0.00  0.00    +0.005 C 
ATOM      3  C   UNL     1     -37.272  21.149   0.153  0.00  0.00    +0.027 C 
ATOM      4  C   UNL     1     -36.461  19.813   0.267  0.00  0.00    +0.005 C 
ATOM      5  C   UNL     1     -36.374  19.064  -1.119  0.00  0.00    +0.000 C 
ATOM      6  C   UNL     1     -36.336  22.866   3.402  0.00  0.00    +0.006 C 
ATOM      7  C   UNL     1     -35.125  20.834   2.267  0.00  0.00    +0.110 C 
ATOM      8  C   UNL     1     -35.079  20.024   0.953  0.00  0.00    +0.029 C 
ATOM      9  C   UNL     1     -37.820  18.817  -1.665  0.00  0.00    +0.005 C 
ATOM     10  C   UNL     1     -38.075  23.143   1.675  0.00  0.00    +0.000 C 
ATOM     11  C   UNL     1     -38.680  20.920  -0.429  0.00  0.00    +0.110 C 
ATOM     12  C   UNL     1     -37.512  23.768   2.963  0.00  0.00    +0.000 C 
ATOM     13  C   UNL     1     -38.653  20.113  -1.730  0.00  0.00    +0.029 C 
ATOM     14  C   UNL     1     -35.639  17.695  -1.016  0.00  0.00    +0.002 C 
ATOM     15  C   UNL     1     -35.088  23.104   1.185  0.00  0.00    +0.002 C 
ATOM     16  C   UNL     1     -38.571  17.710  -0.895  0.00  0.00    +0.029 C 
ATOM     17  C   UNL     1     -35.573  19.895  -2.157  0.00  0.00    +0.000 C 
ATOM     18  C   UNL     1     -36.399  16.639  -0.226  0.00  0.00    +0.029 C 
ATOM     19  C   UNL     1     -37.780  16.407  -0.826  0.00  0.00    +0.111 C 
ENDROOT
BRANCH   7  20
ATOM     20  O   UNL     1     -35.665  20.017   3.304  0.00  0.00    -0.384 OA
ATOM     21  H   UNL     1     -34.944  19.678   3.858  0.00  0.00    +0.210 HD
ENDBRANCH   7  20
BRANCH  11  22
ATOM     22  O   UNL     1     -39.515  20.279   0.530  0.00  0.00    -0.384 OA
ATOM     23  H   UNL     1     -39.650  20.869   1.288  0.00  0.00    +0.210 HD
ENDBRANCH  11  22
BRANCH  19  24
ATOM     24  O   UNL     1     -38.475  15.466  -0.015  0.00  0.00    -0.384 OA
ATOM     25  H   UNL     1     -38.982  14.863  -0.581  0.00  0.00    +0.210 HD
ENDBRANCH  19  24
BRANCH   6  26
ATOM     26  C   UNL     1     -35.246  23.631   4.141  0.00  0.00    +0.022 C 
ATOM     27  C   UNL     1     -35.101  23.090   5.569  0.00  0.00    +0.005 C 
BRANCH  26  28
ATOM     28  C   UNL     1     -35.518  25.148   4.191  0.00  0.00    -0.029 C 
ATOM     29  C   UNL     1     -34.423  26.036   3.590  0.00  0.00    +0.000 C 
BRANCH  29  30
ATOM     30  C   UNL     1     -34.725  27.542   3.559  0.00  0.00    +0.159 C 
BRANCH  30  31
ATOM     31  O   UNL     1     -33.546  28.230   3.988  0.00  0.00    -0.378 OA
ATOM     32  H   UNL     1     -33.297  28.890   3.323  0.00  0.00    +0.211 HD
ENDBRANCH  30  31
BRANCH  30  33
ATOM     33  C   UNL     1     -35.132  28.075   2.175  0.00  0.00    +0.141 C 
ATOM     34  C   UNL     1     -36.505  27.580   1.733  0.00  0.00    +0.035 C 
BRANCH  33  35
ATOM     35  O   UNL     1     -35.147  29.501   2.179  0.00  0.00    -0.382 OA
ATOM     36  H   UNL     1     -34.253  29.834   2.006  0.00  0.00    +0.210 HD
ENDBRANCH  33  35
ENDBRANCH  30  33
ENDBRANCH  29  30
ENDBRANCH  26  28
ENDBRANCH   6  26
TORSDOF 9
ENDMDL
MODEL 7
REMARK VINA RESULT:      -5.8      4.274     10.218
REMARK  Name = 21252278
REMARK  9 active torsions:
REMARK  status: ('A' for Active; 'I' for Inactive)
REMARK    1  A    between atoms: C_6  and  C_26
REMARK    2  A    between atoms: C_7  and  O_20
REMARK    3  A    between atoms: C_11  and  O_22
REMARK    4  A    between atoms: C_19  and  O_24
REMARK    5  A    between atoms: C_26  and  C_28
REMARK    6  A    between atoms: C_29  and  C_30
REMARK    7  A    between atoms: C_30  and  O_31
REMARK    8  A    between atoms: C_30  and  C_33
REMARK    9  A    between atoms: C_33  and  O_35
REMARK                            x       y       z     vdW  Elec       q    Type
REMARK                         _______ _______ _______ _____ _____    ______ ____
ROOT
ATOM      1  C   UNL     1     -34.060  26.878   3.205  0.00  0.00    +0.025 C 
ATOM      2  C   UNL     1     -33.469  27.573   4.454  0.00  0.00    +0.005 C 
ATOM      3  C   UNL     1     -32.012  28.020   4.263  0.00  0.00    +0.027 C 
ATOM      4  C   UNL     1     -31.942  29.021   3.060  0.00  0.00    +0.005 C 
ATOM      5  C   UNL     1     -30.468  29.523   2.804  0.00  0.00    +0.000 C 
ATOM      6  C   UNL     1     -35.454  26.508   3.774  0.00  0.00    +0.006 C 
ATOM      7  C   UNL     1     -34.051  27.875   2.028  0.00  0.00    +0.110 C 
ATOM      8  C   UNL     1     -32.641  28.456   1.788  0.00  0.00    +0.029 C 
ATOM      9  C   UNL     1     -29.904  30.160   4.118  0.00  0.00    +0.005 C 
ATOM     10  C   UNL     1     -33.790  26.603   5.592  0.00  0.00    +0.000 C 
ATOM     11  C   UNL     1     -31.413  28.623   5.549  0.00  0.00    +0.110 C 
ATOM     12  C   UNL     1     -35.146  25.993   5.199  0.00  0.00    +0.000 C 
ATOM     13  C   UNL     1     -30.017  29.210   5.327  0.00  0.00    +0.029 C 
ATOM     14  C   UNL     1     -30.384  30.578   1.661  0.00  0.00    +0.002 C 
ATOM     15  C   UNL     1     -33.281  25.602   2.781  0.00  0.00    +0.002 C 
ATOM     16  C   UNL     1     -30.524  31.538   4.431  0.00  0.00    +0.029 C 
ATOM     17  C   UNL     1     -29.545  28.354   2.367  0.00  0.00    +0.000 C 
ATOM     18  C   UNL     1     -31.031  31.914   2.000  0.00  0.00    +0.029 C 
ATOM     19  C   UNL     1     -30.414  32.508   3.259  0.00  0.00    +0.111 C 
ENDROOT
BRANCH   7  20
ATOM     20  O   UNL     1     -34.975  28.946   2.224  0.00  0.00    -0.384 OA
ATOM     21  H   UNL     1     -34.507  29.793   2.154  0.00  0.00    +0.210 HD
ENDBRANCH   7  20
BRANCH  11  22
ATOM     22  O   UNL     1     -32.283  29.616   6.083  0.00  0.00    -0.384 OA
ATOM     23  H   UNL     1     -31.822  30.469   6.112  0.00  0.00    +0.210 HD
ENDBRANCH  11  22
BRANCH  19  24
ATOM     24  O   UNL     1     -31.097  33.718   3.572  0.00  0.00    -0.384 OA
ATOM     25  H   UNL     1     -30.571  34.474   3.269  0.00  0.00    +0.210 HD
ENDBRANCH  19  24
BRANCH   6  26
ATOM     26  C   UNL     1     -36.281  25.526   2.955  0.00  0.00    +0.022 C 
ATOM     27  C   UNL     1     -37.591  26.187   2.508  0.00  0.00    +0.005 C 
BRANCH  26  28
ATOM     28  C   UNL     1     -36.599  24.229   3.728  0.00  0.00    -0.029 C 
ATOM     29  C   UNL     1     -35.811  22.990   3.290  0.00  0.00    +0.000 C 
BRANCH  29  30
ATOM     30  C   UNL     1     -36.058  21.716   4.112  0.00  0.00    +0.159 C 
BRANCH  30  31
ATOM     31  O   UNL     1     -35.646  20.599   3.318  0.00  0.00    -0.378 OA
ATOM     32  H   UNL     1     -35.605  19.805   3.872  0.00  0.00    +0.211 HD
ENDBRANCH  30  31
BRANCH  30  33
ATOM     33  C   UNL     1     -35.306  21.673   5.452  0.00  0.00    +0.141 C 
ATOM     34  C   UNL     1     -34.226  22.745   5.557  0.00  0.00    +0.035 C 
BRANCH  33  35
ATOM     35  O   UNL     1     -36.216  21.844   6.536  0.00  0.00    -0.382 OA
ATOM     36  H   UNL     1     -36.343  20.995   6.989  0.00  0.00    +0.210 HD
ENDBRANCH  33  35
ENDBRANCH  30  33
ENDBRANCH  29  30
ENDBRANCH  26  28
ENDBRANCH   6  26
TORSDOF 9
ENDMDL
MODEL 8
REMARK VINA RESULT:      -5.7      3.121      7.833
REMARK  Name = 21252278
REMARK  9 active torsions:
REMARK  status: ('A' for Active; 'I' for Inactive)
REMARK    1  A    between atoms: C_6  and  C_26
REMARK    2  A    between atoms: C_7  and  O_20
REMARK    3  A    between atoms: C_11  and  O_22
REMARK    4  A    between atoms: C_19  and  O_24
REMARK    5  A    between atoms: C_26  and  C_28
REMARK    6  A    between atoms: C_29  and  C_30
REMARK    7  A    between atoms: C_30  and  O_31
REMARK    8  A    between atoms: C_30  and  C_33
REMARK    9  A    between atoms: C_33  and  O_35
REMARK                            x       y       z     vdW  Elec       q    Type
REMARK                         _______ _______ _______ _____ _____    ______ ____
ROOT
ATOM      1  C   UNL     1     -35.730  25.461   3.385  0.00  0.00    +0.025 C 
ATOM      2  C   UNL     1     -35.213  26.897   3.634  0.00  0.00    +0.005 C 
ATOM      3  C   UNL     1     -34.946  27.675   2.336  0.00  0.00    +0.027 C 
ATOM      4  C   UNL     1     -36.277  27.763   1.513  0.00  0.00    +0.005 C 
ATOM      5  C   UNL     1     -36.075  28.551   0.161  0.00  0.00    +0.000 C 
ATOM      6  C   UNL     1     -35.805  24.975   4.856  0.00  0.00    +0.006 C 
ATOM      7  C   UNL     1     -37.071  25.537   2.627  0.00  0.00    +0.110 C 
ATOM      8  C   UNL     1     -36.945  26.367   1.332  0.00  0.00    +0.029 C 
ATOM      9  C   UNL     1     -35.494  29.970   0.472  0.00  0.00    +0.005 C 
ATOM     10  C   UNL     1     -34.058  26.700   4.616  0.00  0.00    +0.000 C 
ATOM     11  C   UNL     1     -34.343  29.068   2.604  0.00  0.00    +0.110 C 
ATOM     12  C   UNL     1     -34.501  25.514   5.489  0.00  0.00    +0.000 C 
ATOM     13  C   UNL     1     -34.215  29.907   1.330  0.00  0.00    +0.029 C 
ATOM     14  C   UNL     1     -37.401  28.717  -0.639  0.00  0.00    +0.002 C 
ATOM     15  C   UNL     1     -34.745  24.583   2.565  0.00  0.00    +0.002 C 
ATOM     16  C   UNL     1     -36.538  30.922   1.095  0.00  0.00    +0.029 C 
ATOM     17  C   UNL     1     -35.102  27.799  -0.787  0.00  0.00    +0.000 C 
ATOM     18  C   UNL     1     -38.414  29.641   0.023  0.00  0.00    +0.029 C 
ATOM     19  C   UNL     1     -37.811  31.020   0.260  0.00  0.00    +0.111 C 
ENDROOT
BRANCH   7  20
ATOM     20  O   UNL     1     -38.115  26.081   3.435  0.00  0.00    -0.384 OA
ATOM     21  H   UNL     1     -38.659  26.680   2.900  0.00  0.00    +0.210 HD
ENDBRANCH   7  20
BRANCH  11  22
ATOM     22  O   UNL     1     -35.116  29.764   3.576  0.00  0.00    -0.384 OA
ATOM     23  H   UNL     1     -35.320  30.655   3.250  0.00  0.00    +0.210 HD
ENDBRANCH  11  22
BRANCH  19  24
ATOM     24  O   UNL     1     -38.770  31.823   0.940  0.00  0.00    -0.384 OA
ATOM     25  H   UNL     1     -38.450  32.023   1.833  0.00  0.00    +0.210 HD
ENDBRANCH  19  24
BRANCH   6  26
ATOM     26  C   UNL     1     -35.992  23.479   5.067  0.00  0.00    +0.022 C 
ATOM     27  C   UNL     1     -34.838  22.919   5.907  0.00  0.00    +0.005 C 
BRANCH  26  28
ATOM     28  C   UNL     1     -36.085  22.700   3.739  0.00  0.00    -0.029 C 
ATOM     29  C   UNL     1     -35.452  21.305   3.746  0.00  0.00    +0.000 C 
BRANCH  29  30
ATOM     30  C   UNL     1     -35.616  20.490   2.454  0.00  0.00    +0.159 C 
BRANCH  30  31
ATOM     31  O   UNL     1     -36.828  19.738   2.566  0.00  0.00    -0.378 OA
ATOM     32  H   UNL     1     -37.428  19.984   1.845  0.00  0.00    +0.211 HD
ENDBRANCH  30  31
BRANCH  30  33
ATOM     33  C   UNL     1     -35.677  21.340   1.175  0.00  0.00    +0.141 C 
ATOM     34  C   UNL     1     -34.317  21.492   0.502  0.00  0.00    +0.035 C 
BRANCH  33  35
ATOM     35  O   UNL     1     -36.582  20.760   0.238  0.00  0.00    -0.382 OA
ATOM     36  H   UNL     1     -36.142  20.031  -0.227  0.00  0.00    +0.210 HD
ENDBRANCH  33  35
ENDBRANCH  30  33
ENDBRANCH  29  30
ENDBRANCH  26  28
ENDBRANCH   6  26
TORSDOF 9
ENDMDL
MODEL 9
REMARK VINA RESULT:      -5.6      4.271      6.631
REMARK  Name = 21252278
REMARK  9 active torsions:
REMARK  status: ('A' for Active; 'I' for Inactive)
REMARK    1  A    between atoms: C_6  and  C_26
REMARK    2  A    between atoms: C_7  and  O_20
REMARK    3  A    between atoms: C_11  and  O_22
REMARK    4  A    between atoms: C_19  and  O_24
REMARK    5  A    between atoms: C_26  and  C_28
REMARK    6  A    between atoms: C_29  and  C_30
REMARK    7  A    between atoms: C_30  and  O_31
REMARK    8  A    between atoms: C_30  and  C_33
REMARK    9  A    between atoms: C_33  and  O_35
REMARK                            x       y       z     vdW  Elec       q    Type
REMARK                         _______ _______ _______ _____ _____    ______ ____
ROOT
ATOM      1  C   UNL     1     -39.735  24.446   1.917  0.00  0.00    +0.025 C 
ATOM      2  C   UNL     1     -38.455  24.913   1.184  0.00  0.00    +0.005 C 
ATOM      3  C   UNL     1     -37.168  24.327   1.785  0.00  0.00    +0.027 C 
ATOM      4  C   UNL     1     -37.240  22.763   1.711  0.00  0.00    +0.005 C 
ATOM      5  C   UNL     1     -35.946  22.091   2.314  0.00  0.00    +0.000 C 
ATOM      6  C   UNL     1     -40.781  25.270   1.121  0.00  0.00    +0.006 C 
ATOM      7  C   UNL     1     -39.847  22.913   1.798  0.00  0.00    +0.110 C 
ATOM      8  C   UNL     1     -38.569  22.210   2.305  0.00  0.00    +0.029 C 
ATOM      9  C   UNL     1     -34.683  22.647   1.577  0.00  0.00    +0.005 C 
ATOM     10  C   UNL     1     -38.605  26.433   1.128  0.00  0.00    +0.000 C 
ATOM     11  C   UNL     1     -35.902  24.878   1.102  0.00  0.00    +0.110 C 
ATOM     12  C   UNL     1     -40.119  26.659   0.971  0.00  0.00    +0.000 C 
ATOM     13  C   UNL     1     -34.625  24.187   1.589  0.00  0.00    +0.029 C 
ATOM     14  C   UNL     1     -35.961  20.539   2.183  0.00  0.00    +0.002 C 
ATOM     15  C   UNL     1     -39.761  24.832   3.422  0.00  0.00    +0.002 C 
ATOM     16  C   UNL     1     -34.535  22.094   0.142  0.00  0.00    +0.029 C 
ATOM     17  C   UNL     1     -35.819  22.383   3.834  0.00  0.00    +0.000 C 
ATOM     18  C   UNL     1     -35.840  20.036   0.751  0.00  0.00    +0.029 C 
ATOM     19  C   UNL     1     -34.572  20.570   0.097  0.00  0.00    +0.111 C 
ENDROOT
BRANCH   7  20
ATOM     20  O   UNL     1     -40.115  22.495   0.460  0.00  0.00    -0.384 OA
ATOM     21  H   UNL     1     -40.885  22.977   0.119  0.00  0.00    +0.210 HD
ENDBRANCH   7  20
BRANCH  11  22
ATOM     22  O   UNL     1     -36.012  24.765  -0.313  0.00  0.00    -0.384 OA
ATOM     23  H   UNL     1     -35.294  24.205  -0.650  0.00  0.00    +0.210 HD
ENDBRANCH  11  22
BRANCH  19  24
ATOM     24  O   UNL     1     -34.540  20.130  -1.257  0.00  0.00    -0.384 OA
ATOM     25  H   UNL     1     -35.445  19.969  -1.566  0.00  0.00    +0.210 HD
ENDBRANCH  19  24
BRANCH   6  26
ATOM     26  C   UNL     1     -42.181  25.341   1.713  0.00  0.00    +0.022 C 
ATOM     27  C   UNL     1     -43.214  24.879   0.677  0.00  0.00    +0.005 C 
BRANCH  26  28
ATOM     28  C   UNL     1     -42.545  26.757   2.205  0.00  0.00    -0.029 C 
ATOM     29  C   UNL     1     -42.971  26.857   3.674  0.00  0.00    +0.000 C 
BRANCH  29  30
ATOM     30  C   UNL     1     -43.251  28.275   4.194  0.00  0.00    +0.159 C 
BRANCH  30  31
ATOM     31  O   UNL     1     -42.000  28.851   4.581  0.00  0.00    -0.378 OA
ATOM     32  H   UNL     1     -42.089  29.260   5.456  0.00  0.00    +0.211 HD
ENDBRANCH  30  31
BRANCH  30  33
ATOM     33  C   UNL     1     -43.925  29.201   3.168  0.00  0.00    +0.141 C 
ATOM     34  C   UNL     1     -45.406  28.893   2.979  0.00  0.00    +0.035 C 
BRANCH  33  35
ATOM     35  O   UNL     1     -43.796  30.563   3.572  0.00  0.00    -0.382 OA
ATOM     36  H   UNL     1     -43.087  30.985   3.063  0.00  0.00    +0.210 HD
ENDBRANCH  33  35
ENDBRANCH  30  33
ENDBRANCH  29  30
ENDBRANCH  26  28
ENDBRANCH   6  26
TORSDOF 9
ENDMDL
