MODEL 1
REMARK VINA RESULT:      -6.3      0.000      0.000
REMARK  Name = 5460209
REMARK  6 active torsions:
REMARK  status: ('A' for Active; 'I' for Inactive)
REMARK    1  A    between atoms: C_3  and  C_21
REMARK    2  A    between atoms: C_5  and  C_23
REMARK    3  A    between atoms: C_7  and  O_18
REMARK    4  A    between atoms: C_10  and  C_27
REMARK    5  A    between atoms: C_23  and  O_24
REMARK    6  A    between atoms: C_27  and  O_28
REMARK                            x       y       z     vdW  Elec       q    Type
REMARK                         _______ _______ _______ _____ _____    ______ ____
ROOT
ATOM      1  C   UNL     1     -35.034  22.690   1.078  0.00  0.00    +0.017 C 
ATOM      2  C   UNL     1     -34.084  23.949   1.110  0.00  0.00    +0.008 C 
ATOM      3  C   UNL     1     -34.534  24.755   2.353  0.00  0.00    +0.059 C 
ATOM      4  C   UNL     1     -34.951  23.621   3.321  0.00  0.00    +0.028 C 
ATOM      5  C   UNL     1     -35.807  22.702   2.430  0.00  0.00    +0.100 C 
ATOM      6  C   UNL     1     -35.929  22.726  -0.169  0.00  0.00    +0.032 C 
ATOM      7  C   UNL     1     -34.879  22.566  -1.279  0.00  0.00    +0.103 C 
ATOM      8  C   UNL     1     -34.199  21.413   0.788  0.00  0.00    +0.025 C 
ATOM      9  C   UNL     1     -34.023  24.739  -0.213  0.00  0.00    +0.003 C 
ATOM     10  C   UNL     1     -35.465  24.130   4.691  0.00  0.00    +0.090 C 
ATOM     11  C   UNL     1     -33.427  25.600   2.995  0.00  0.00    +0.007 C 
ATOM     12  C   UNL     1     -34.059  23.856  -1.466  0.00  0.00    +0.031 C 
ATOM     13  C   UNL     1     -34.003  21.473  -0.703  0.00  0.00    -0.020 C 
ATOM     14  C   UNL     1     -34.386  25.062   5.305  0.00  0.00    +0.011 C 
ATOM     15  C   UNL     1     -33.868  26.151   4.357  0.00  0.00    +0.001 C 
ATOM     16  C   UNL     1     -35.724  22.981   5.679  0.00  0.00    +0.011 C 
ATOM     17  C   UNL     1     -33.199  20.652  -1.390  0.00  0.00    -0.007 C 
ENDROOT
BRANCH   7  18
ATOM     18  O   UNL     1     -35.476  22.165  -2.498  0.00  0.00    -0.383 OA
ATOM     19  H   UNL     1     -35.775  22.948  -2.986  0.00  0.00    +0.211 HD
ENDBRANCH   7  18
BRANCH   3  21
ATOM     20  O   UNL     1     -35.625  26.897   2.069  0.00  0.00    -0.288 OA
ATOM     21  C   UNL     1     -35.683  25.675   1.984  0.00  0.00    +0.207 C 
ENDBRANCH   3  21
BRANCH   5  23
ATOM     22  O   UNL     1     -35.158  20.748   3.694  0.00  0.00    -0.250 OA
ATOM     23  C   UNL     1     -35.987  21.336   3.016  0.00  0.00    +0.313 C 
BRANCH  23  24
ATOM     24  O   UNL     1     -37.203  20.833   2.692  0.00  0.00    -0.480 OA
ATOM     25  H   UNL     1     -37.416  19.946   2.906  0.00  0.00    +0.295 HD
ENDBRANCH  23  24
ENDBRANCH   5  23
BRANCH  10  27
ATOM     26  O   UNL     1     -37.807  24.406   4.122  0.00  0.00    -0.250 OA
ATOM     27  C   UNL     1     -36.776  24.869   4.586  0.00  0.00    +0.313 C 
BRANCH  27  28
ATOM     28  O   UNL     1     -36.656  26.128   5.074  0.00  0.00    -0.480 OA
ATOM     29  H   UNL     1     -36.193  26.778   4.583  0.00  0.00    +0.295 HD
ENDBRANCH  27  28
ENDBRANCH  10  27
TORSDOF 6
ENDMDL
MODEL 2
REMARK VINA RESULT:      -6.1      2.281      3.313
REMARK  Name = 5460209
REMARK  6 active torsions:
REMARK  status: ('A' for Active; 'I' for Inactive)
REMARK    1  A    between atoms: C_3  and  C_21
REMARK    2  A    between atoms: C_5  and  C_23
REMARK    3  A    between atoms: C_7  and  O_18
REMARK    4  A    between atoms: C_10  and  C_27
REMARK    5  A    between atoms: C_23  and  O_24
REMARK    6  A    between atoms: C_27  and  O_28
REMARK                            x       y       z     vdW  Elec       q    Type
REMARK                         _______ _______ _______ _____ _____    ______ ____
ROOT
ATOM      1  C   UNL     1     -36.159  22.030   1.962  0.00  0.00    +0.017 C 
ATOM      2  C   UNL     1     -36.195  22.742   0.554  0.00  0.00    +0.008 C 
ATOM      3  C   UNL     1     -36.813  24.135   0.831  0.00  0.00    +0.059 C 
ATOM      4  C   UNL     1     -36.264  24.441   2.245  0.00  0.00    +0.028 C 
ATOM      5  C   UNL     1     -36.518  23.127   3.007  0.00  0.00    +0.100 C 
ATOM      6  C   UNL     1     -37.091  20.811   1.969  0.00  0.00    +0.032 C 
ATOM      7  C   UNL     1     -36.385  19.904   0.950  0.00  0.00    +0.103 C 
ATOM      8  C   UNL     1     -34.785  21.333   2.158  0.00  0.00    +0.025 C 
ATOM      9  C   UNL     1     -36.870  21.921  -0.562  0.00  0.00    +0.003 C 
ATOM     10  C   UNL     1     -36.728  25.808   2.810  0.00  0.00    +0.090 C 
ATOM     11  C   UNL     1     -36.366  25.231  -0.144  0.00  0.00    +0.007 C 
ATOM     12  C   UNL     1     -36.580  20.417  -0.488  0.00  0.00    +0.031 C 
ATOM     13  C   UNL     1     -34.937  20.062   1.366  0.00  0.00    -0.020 C 
ATOM     14  C   UNL     1     -36.360  26.913   1.784  0.00  0.00    +0.011 C 
ATOM     15  C   UNL     1     -36.800  26.619   0.344  0.00  0.00    +0.001 C 
ATOM     16  C   UNL     1     -36.044  26.146   4.145  0.00  0.00    +0.011 C 
ATOM     17  C   UNL     1     -33.938  19.208   1.115  0.00  0.00    -0.007 C 
ENDROOT
BRANCH   7  18
ATOM     18  O   UNL     1     -36.816  18.561   1.071  0.00  0.00    -0.383 OA
ATOM     19  H   UNL     1     -36.460  18.179   1.889  0.00  0.00    +0.211 HD
ENDBRANCH   7  18
BRANCH   3  21
ATOM     20  O   UNL     1     -38.999  24.416  -0.172  0.00  0.00    -0.288 OA
ATOM     21  C   UNL     1     -38.328  24.046   0.786  0.00  0.00    +0.207 C 
ENDBRANCH   3  21
BRANCH   5  23
ATOM     22  O   UNL     1     -34.602  23.506   4.429  0.00  0.00    -0.250 OA
ATOM     23  C   UNL     1     -35.714  23.026   4.266  0.00  0.00    +0.313 C 
BRANCH  23  24
ATOM     24  O   UNL     1     -36.387  22.323   5.209  0.00  0.00    -0.480 OA
ATOM     25  H   UNL     1     -35.922  21.758   5.794  0.00  0.00    +0.295 HD
ENDBRANCH  23  24
ENDBRANCH   5  23
BRANCH  10  27
ATOM     26  O   UNL     1     -39.015  26.559   2.514  0.00  0.00    -0.250 OA
ATOM     27  C   UNL     1     -38.208  25.851   3.097  0.00  0.00    +0.313 C 
BRANCH  27  28
ATOM     28  O   UNL     1     -38.526  24.995   4.099  0.00  0.00    -0.480 OA
ATOM     29  H   UNL     1     -38.613  24.079   3.923  0.00  0.00    +0.295 HD
ENDBRANCH  27  28
ENDBRANCH  10  27
TORSDOF 6
ENDMDL
MODEL 3
REMARK VINA RESULT:      -6.0      2.449      5.495
REMARK  Name = 5460209
REMARK  6 active torsions:
REMARK  status: ('A' for Active; 'I' for Inactive)
REMARK    1  A    between atoms: C_3  and  C_21
REMARK    2  A    between atoms: C_5  and  C_23
REMARK    3  A    between atoms: C_7  and  O_18
REMARK    4  A    between atoms: C_10  and  C_27
REMARK    5  A    between atoms: C_23  and  O_24
REMARK    6  A    between atoms: C_27  and  O_28
REMARK                            x       y       z     vdW  Elec       q    Type
REMARK                         _______ _______ _______ _____ _____    ______ ____
ROOT
ATOM      1  C   UNL     1     -36.159  22.721   3.175  0.00  0.00    +0.017 C 
ATOM      2  C   UNL     1     -37.455  23.598   3.375  0.00  0.00    +0.008 C 
ATOM      3  C   UNL     1     -38.215  23.495   2.030  0.00  0.00    +0.059 C 
ATOM      4  C   UNL     1     -37.878  22.048   1.596  0.00  0.00    +0.028 C 
ATOM      5  C   UNL     1     -36.360  21.960   1.832  0.00  0.00    +0.100 C 
ATOM      6  C   UNL     1     -34.902  23.601   3.229  0.00  0.00    +0.032 C 
ATOM      7  C   UNL     1     -34.945  24.072   4.691  0.00  0.00    +0.103 C 
ATOM      8  C   UNL     1     -35.932  21.832   4.428  0.00  0.00    +0.025 C 
ATOM      9  C   UNL     1     -37.187  25.029   3.884  0.00  0.00    +0.003 C 
ATOM     10  C   UNL     1     -38.514  21.641   0.243  0.00  0.00    +0.090 C 
ATOM     11  C   UNL     1     -39.735  23.658   2.148  0.00  0.00    +0.007 C 
ATOM     12  C   UNL     1     -36.051  25.120   4.910  0.00  0.00    +0.031 C 
ATOM     13  C   UNL     1     -35.301  22.786   5.407  0.00  0.00    -0.020 C 
ATOM     14  C   UNL     1     -40.044  21.891   0.324  0.00  0.00    +0.011 C 
ATOM     15  C   UNL     1     -40.437  23.282   0.837  0.00  0.00    +0.001 C 
ATOM     16  C   UNL     1     -38.288  20.155  -0.082  0.00  0.00    +0.011 C 
ATOM     17  C   UNL     1     -35.071  22.500   6.694  0.00  0.00    -0.007 C 
ENDROOT
BRANCH   7  18
ATOM     18  O   UNL     1     -33.688  24.568   5.109  0.00  0.00    -0.383 OA
ATOM     19  H   UNL     1     -32.991  23.946   4.848  0.00  0.00    +0.211 HD
ENDBRANCH   7  18
BRANCH   3  21
ATOM     20  O   UNL     1     -38.277  25.600   0.836  0.00  0.00    -0.288 OA
ATOM     21  C   UNL     1     -37.697  24.543   1.062  0.00  0.00    +0.207 C 
ENDBRANCH   3  21
BRANCH   5  23
ATOM     22  O   UNL     1     -34.858  20.139   1.315  0.00  0.00    -0.250 OA
ATOM     23  C   UNL     1     -35.864  20.548   1.876  0.00  0.00    +0.313 C 
BRANCH  23  24
ATOM     24  O   UNL     1     -36.687  19.775   2.625  0.00  0.00    -0.480 OA
ATOM     25  H   UNL     1     -37.418  20.160   3.069  0.00  0.00    +0.295 HD
ENDBRANCH  23  24
ENDBRANCH   5  23
BRANCH  10  27
ATOM     26  O   UNL     1     -38.543  23.214  -1.603  0.00  0.00    -0.250 OA
ATOM     27  C   UNL     1     -37.936  22.398  -0.927  0.00  0.00    +0.313 C 
BRANCH  27  28
ATOM     28  O   UNL     1     -36.643  22.046  -1.132  0.00  0.00    -0.480 OA
ATOM     29  H   UNL     1     -35.982  22.317  -0.526  0.00  0.00    +0.295 HD
ENDBRANCH  27  28
ENDBRANCH  10  27
TORSDOF 6
ENDMDL
MODEL 4
REMARK VINA RESULT:      -6.0      1.949      2.513
REMARK  Name = 5460209
REMARK  6 active torsions:
REMARK  status: ('A' for Active; 'I' for Inactive)
REMARK    1  A    between atoms: C_3  and  C_21
REMARK    2  A    between atoms: C_5  and  C_23
REMARK    3  A    between atoms: C_7  and  O_18
REMARK    4  A    between atoms: C_10  and  C_27
REMARK    5  A    between atoms: C_23  and  O_24
REMARK    6  A    between atoms: C_27  and  O_28
REMARK                            x       y       z     vdW  Elec       q    Type
REMARK                         _______ _______ _______ _____ _____    ______ ____
ROOT
ATOM      1  C   UNL     1     -36.360  21.882   2.178  0.00  0.00    +0.017 C 
ATOM      2  C   UNL     1     -35.819  22.849   1.055  0.00  0.00    +0.008 C 
ATOM      3  C   UNL     1     -35.544  24.188   1.783  0.00  0.00    +0.059 C 
ATOM      4  C   UNL     1     -35.082  23.692   3.175  0.00  0.00    +0.028 C 
ATOM      5  C   UNL     1     -36.133  22.623   3.528  0.00  0.00    +0.100 C 
ATOM      6  C   UNL     1     -37.820  21.498   1.897  0.00  0.00    +0.032 C 
ATOM      7  C   UNL     1     -37.660  20.691   0.601  0.00  0.00    +0.103 C 
ATOM      8  C   UNL     1     -35.676  20.494   2.045  0.00  0.00    +0.025 C 
ATOM      9  C   UNL     1     -36.714  22.940  -0.197  0.00  0.00    +0.003 C 
ATOM     10  C   UNL     1     -34.729  24.837   4.157  0.00  0.00    +0.090 C 
ATOM     11  C   UNL     1     -34.439  25.039   1.146  0.00  0.00    +0.007 C 
ATOM     12  C   UNL     1     -37.359  21.608  -0.598  0.00  0.00    +0.031 C 
ATOM     13  C   UNL     1     -36.445  19.846   0.925  0.00  0.00    -0.020 C 
ATOM     14  C   UNL     1     -33.677  25.757   3.481  0.00  0.00    +0.011 C 
ATOM     15  C   UNL     1     -34.041  26.205   2.060  0.00  0.00    +0.001 C 
ATOM     16  C   UNL     1     -34.131  24.311   5.472  0.00  0.00    +0.011 C 
ATOM     17  C   UNL     1     -36.104  18.686   0.350  0.00  0.00    -0.007 C 
ENDROOT
BRANCH   7  18
ATOM     18  O   UNL     1     -38.798  19.888   0.350  0.00  0.00    -0.383 OA
ATOM     19  H   UNL     1     -38.865  19.709  -0.601  0.00  0.00    +0.211 HD
ENDBRANCH   7  18
BRANCH   3  21
ATOM     20  O   UNL     1     -37.010  26.000   1.130  0.00  0.00    -0.288 OA
ATOM     21  C   UNL     1     -36.814  25.016   1.837  0.00  0.00    +0.207 C 
ENDBRANCH   3  21
BRANCH   5  23
ATOM     22  O   UNL     1     -34.926  20.765   4.491  0.00  0.00    -0.250 OA
ATOM     23  C   UNL     1     -35.683  21.714   4.629  0.00  0.00    +0.313 C 
BRANCH  23  24
ATOM     24  O   UNL     1     -36.233  22.086   5.811  0.00  0.00    -0.480 OA
ATOM     25  H   UNL     1     -36.371  22.994   5.999  0.00  0.00    +0.295 HD
ENDBRANCH  23  24
ENDBRANCH   5  23
BRANCH  10  27
ATOM     26  O   UNL     1     -37.000  25.188   4.933  0.00  0.00    -0.250 OA
ATOM     27  C   UNL     1     -35.932  25.651   4.563  0.00  0.00    +0.313 C 
BRANCH  27  28
ATOM     28  O   UNL     1     -35.670  26.977   4.458  0.00  0.00    -0.480 OA
ATOM     29  H   UNL     1     -36.339  27.565   4.166  0.00  0.00    +0.295 HD
ENDBRANCH  27  28
ENDBRANCH  10  27
TORSDOF 6
ENDMDL
MODEL 5
REMARK VINA RESULT:      -5.9      2.506      3.299
REMARK  Name = 5460209
REMARK  6 active torsions:
REMARK  status: ('A' for Active; 'I' for Inactive)
REMARK    1  A    between atoms: C_3  and  C_21
REMARK    2  A    between atoms: C_5  and  C_23
REMARK    3  A    between atoms: C_7  and  O_18
REMARK    4  A    between atoms: C_10  and  C_27
REMARK    5  A    between atoms: C_23  and  O_24
REMARK    6  A    between atoms: C_27  and  O_28
REMARK                            x       y       z     vdW  Elec       q    Type
REMARK                         _______ _______ _______ _____ _____    ______ ____
ROOT
ATOM      1  C   UNL     1     -37.434  22.698   2.068  0.00  0.00    +0.017 C 
ATOM      2  C   UNL     1     -37.254  23.785   0.939  0.00  0.00    +0.008 C 
ATOM      3  C   UNL     1     -36.598  24.993   1.651  0.00  0.00    +0.059 C 
ATOM      4  C   UNL     1     -35.707  24.285   2.700  0.00  0.00    +0.028 C 
ATOM      5  C   UNL     1     -36.652  23.231   3.305  0.00  0.00    +0.100 C 
ATOM      6  C   UNL     1     -38.924  22.431   2.322  0.00  0.00    +0.032 C 
ATOM      7  C   UNL     1     -39.335  21.805   0.980  0.00  0.00    +0.103 C 
ATOM      8  C   UNL     1     -36.987  21.310   1.533  0.00  0.00    +0.025 C 
ATOM      9  C   UNL     1     -38.534  24.094   0.138  0.00  0.00    +0.003 C 
ATOM     10  C   UNL     1     -34.904  25.263   3.596  0.00  0.00    +0.090 C 
ATOM     11  C   UNL     1     -35.729  25.869   0.742  0.00  0.00    +0.007 C 
ATOM     12  C   UNL     1     -39.409  22.865  -0.134  0.00  0.00    +0.031 C 
ATOM     13  C   UNL     1     -38.176  20.864   0.724  0.00  0.00    -0.020 C 
ATOM     14  C   UNL     1     -34.092  26.215   2.677  0.00  0.00    +0.011 C 
ATOM     15  C   UNL     1     -34.908  26.875   1.559  0.00  0.00    +0.001 C 
ATOM     16  C   UNL     1     -33.918  24.530   4.519  0.00  0.00    +0.011 C 
ATOM     17  C   UNL     1     -38.187  19.781  -0.061  0.00  0.00    -0.007 C 
ENDROOT
BRANCH   7  18
ATOM     18  O   UNL     1     -40.559  21.102   1.093  0.00  0.00    -0.383 OA
ATOM     19  H   UNL     1     -40.622  20.702   1.974  0.00  0.00    +0.211 HD
ENDBRANCH   7  18
BRANCH   3  21
ATOM     20  O   UNL     1     -37.980  26.972   1.838  0.00  0.00    -0.288 OA
ATOM     21  C   UNL     1     -37.670  25.868   2.275  0.00  0.00    +0.207 C 
ENDBRANCH   3  21
BRANCH   5  23
ATOM     22  O   UNL     1     -35.143  21.359   3.540  0.00  0.00    -0.250 OA
ATOM     23  C   UNL     1     -35.919  22.157   4.045  0.00  0.00    +0.313 C 
BRANCH  23  24
ATOM     24  O   UNL     1     -36.234  22.184   5.363  0.00  0.00    -0.480 OA
ATOM     25  H   UNL     1     -35.874  21.542   5.945  0.00  0.00    +0.295 HD
ENDBRANCH  23  24
ENDBRANCH   5  23
BRANCH  10  27
ATOM     26  O   UNL     1     -36.620  25.605   5.276  0.00  0.00    -0.250 OA
ATOM     27  C   UNL     1     -35.785  26.072   4.515  0.00  0.00    +0.313 C 
BRANCH  27  28
ATOM     28  O   UNL     1     -35.531  27.396   4.380  0.00  0.00    -0.480 OA
ATOM     29  H   UNL     1     -35.055  27.708   3.635  0.00  0.00    +0.295 HD
ENDBRANCH  27  28
ENDBRANCH  10  27
TORSDOF 6
ENDMDL
MODEL 6
REMARK VINA RESULT:      -5.8      2.195      4.206
REMARK  Name = 5460209
REMARK  6 active torsions:
REMARK  status: ('A' for Active; 'I' for Inactive)
REMARK    1  A    between atoms: C_3  and  C_21
REMARK    2  A    between atoms: C_5  and  C_23
REMARK    3  A    between atoms: C_7  and  O_18
REMARK    4  A    between atoms: C_10  and  C_27
REMARK    5  A    between atoms: C_23  and  O_24
REMARK    6  A    between atoms: C_27  and  O_28
REMARK                            x       y       z     vdW  Elec       q    Type
REMARK                         _______ _______ _______ _____ _____    ______ ____
ROOT
ATOM      1  C   UNL     1     -35.389  22.133   1.572  0.00  0.00    +0.017 C 
ATOM      2  C   UNL     1     -36.600  21.810   0.615  0.00  0.00    +0.008 C 
ATOM      3  C   UNL     1     -37.743  22.739   1.093  0.00  0.00    +0.059 C 
ATOM      4  C   UNL     1     -36.953  23.991   1.544  0.00  0.00    +0.028 C 
ATOM      5  C   UNL     1     -35.806  23.396   2.381  0.00  0.00    +0.100 C 
ATOM      6  C   UNL     1     -35.044  20.909   2.432  0.00  0.00    +0.032 C 
ATOM      7  C   UNL     1     -34.559  19.928   1.354  0.00  0.00    +0.103 C 
ATOM      8  C   UNL     1     -34.085  22.264   0.738  0.00  0.00    +0.025 C 
ATOM      9  C   UNL     1     -36.953  20.312   0.512  0.00  0.00    +0.003 C 
ATOM     10  C   UNL     1     -37.851  25.129   2.092  0.00  0.00    +0.090 C 
ATOM     11  C   UNL     1     -38.744  23.126  -0.001  0.00  0.00    +0.007 C 
ATOM     12  C   UNL     1     -35.733  19.384   0.520  0.00  0.00    +0.031 C 
ATOM     13  C   UNL     1     -33.692  20.831   0.500  0.00  0.00    -0.020 C 
ATOM     14  C   UNL     1     -38.927  25.463   1.024  0.00  0.00    +0.011 C 
ATOM     15  C   UNL     1     -39.679  24.246   0.473  0.00  0.00    +0.001 C 
ATOM     16  C   UNL     1     -37.052  26.410   2.385  0.00  0.00    +0.011 C 
ATOM     17  C   UNL     1     -32.704  20.447  -0.317  0.00  0.00    -0.007 C 
ENDROOT
BRANCH   7  18
ATOM     18  O   UNL     1     -33.807  18.871   1.919  0.00  0.00    -0.383 OA
ATOM     19  H   UNL     1     -33.179  19.230   2.565  0.00  0.00    +0.211 HD
ENDBRANCH   7  18
BRANCH   3  21
ATOM     20  O   UNL     1     -39.571  21.490   2.070  0.00  0.00    -0.288 OA
ATOM     21  C   UNL     1     -38.506  22.077   2.226  0.00  0.00    +0.207 C 
ENDBRANCH   3  21
BRANCH   5  23
ATOM     22  O   UNL     1     -34.091  24.953   1.694  0.00  0.00    -0.250 OA
ATOM     23  C   UNL     1     -34.681  24.362   2.586  0.00  0.00    +0.313 C 
BRANCH  23  24
ATOM     24  O   UNL     1     -34.399  24.494   3.905  0.00  0.00    -0.480 OA
ATOM     25  H   UNL     1     -33.511  24.444   4.203  0.00  0.00    +0.295 HD
ENDBRANCH  23  24
ENDBRANCH   5  23
BRANCH  10  27
ATOM     26  O   UNL     1     -39.712  24.534   3.529  0.00  0.00    -0.250 OA
ATOM     27  C   UNL     1     -38.521  24.769   3.394  0.00  0.00    +0.313 C 
BRANCH  27  28
ATOM     28  O   UNL     1     -37.619  24.746   4.406  0.00  0.00    -0.480 OA
ATOM     29  H   UNL     1     -37.881  24.464   5.260  0.00  0.00    +0.295 HD
ENDBRANCH  27  28
ENDBRANCH  10  27
TORSDOF 6
ENDMDL
MODEL 7
REMARK VINA RESULT:      -5.8      2.756      5.532
REMARK  Name = 5460209
REMARK  6 active torsions:
REMARK  status: ('A' for Active; 'I' for Inactive)
REMARK    1  A    between atoms: C_3  and  C_21
REMARK    2  A    between atoms: C_5  and  C_23
REMARK    3  A    between atoms: C_7  and  O_18
REMARK    4  A    between atoms: C_10  and  C_27
REMARK    5  A    between atoms: C_23  and  O_24
REMARK    6  A    between atoms: C_27  and  O_28
REMARK                            x       y       z     vdW  Elec       q    Type
REMARK                         _______ _______ _______ _____ _____    ______ ____
ROOT
ATOM      1  C   UNL     1     -38.480  23.758   1.588  0.00  0.00    +0.017 C 
ATOM      2  C   UNL     1     -37.101  24.341   1.092  0.00  0.00    +0.008 C 
ATOM      3  C   UNL     1     -36.133  23.132   1.096  0.00  0.00    +0.059 C 
ATOM      4  C   UNL     1     -37.085  21.975   0.706  0.00  0.00    +0.028 C 
ATOM      5  C   UNL     1     -38.307  22.211   1.612  0.00  0.00    +0.100 C 
ATOM      6  C   UNL     1     -38.869  24.378   2.938  0.00  0.00    +0.032 C 
ATOM      7  C   UNL     1     -39.084  25.842   2.529  0.00  0.00    +0.103 C 
ATOM      8  C   UNL     1     -39.628  24.297   0.691  0.00  0.00    +0.025 C 
ATOM      9  C   UNL     1     -36.618  25.587   1.862  0.00  0.00    +0.003 C 
ATOM     10  C   UNL     1     -36.386  20.594   0.630  0.00  0.00    +0.090 C 
ATOM     11  C   UNL     1     -34.993  23.229   0.077  0.00  0.00    +0.007 C 
ATOM     12  C   UNL     1     -37.745  26.550   2.253  0.00  0.00    +0.031 C 
ATOM     13  C   UNL     1     -39.860  25.679   1.238  0.00  0.00    -0.020 C 
ATOM     14  C   UNL     1     -35.173  20.710  -0.332  0.00  0.00    +0.011 C 
ATOM     15  C   UNL     1     -34.244  21.897  -0.047  0.00  0.00    +0.001 C 
ATOM     16  C   UNL     1     -37.321  19.498   0.093  0.00  0.00    +0.011 C 
ATOM     17  C   UNL     1     -40.661  26.589   0.669  0.00  0.00    -0.007 C 
ENDROOT
BRANCH   7  18
ATOM     18  O   UNL     1     -39.836  26.544   3.501  0.00  0.00    -0.383 OA
ATOM     19  H   UNL     1     -40.779  26.494   3.279  0.00  0.00    +0.211 HD
ENDBRANCH   7  18
BRANCH   3  21
ATOM     20  O   UNL     1     -34.532  23.574   2.858  0.00  0.00    -0.288 OA
ATOM     21  C   UNL     1     -35.526  22.963   2.477  0.00  0.00    +0.207 C 
ENDBRANCH   3  21
BRANCH   5  23
ATOM     22  O   UNL     1     -39.844  21.326  -0.029  0.00  0.00    -0.250 OA
ATOM     23  C   UNL     1     -39.523  21.476   1.141  0.00  0.00    +0.313 C 
BRANCH  23  24
ATOM     24  O   UNL     1     -40.230  20.995   2.193  0.00  0.00    -0.480 OA
ATOM     25  H   UNL     1     -41.089  20.645   2.060  0.00  0.00    +0.295 HD
ENDBRANCH  23  24
ENDBRANCH   5  23
BRANCH  10  27
ATOM     26  O   UNL     1     -34.758  20.047   2.343  0.00  0.00    -0.250 OA
ATOM     27  C   UNL     1     -35.922  20.098   1.977  0.00  0.00    +0.313 C 
BRANCH  27  28
ATOM     28  O   UNL     1     -36.978  19.709   2.733  0.00  0.00    -0.480 OA
ATOM     29  H   UNL     1     -37.438  20.337   3.253  0.00  0.00    +0.295 HD
ENDBRANCH  27  28
ENDBRANCH  10  27
TORSDOF 6
ENDMDL
MODEL 8
REMARK VINA RESULT:      -5.6      1.439      5.877
REMARK  Name = 5460209
REMARK  6 active torsions:
REMARK  status: ('A' for Active; 'I' for Inactive)
REMARK    1  A    between atoms: C_3  and  C_21
REMARK    2  A    between atoms: C_5  and  C_23
REMARK    3  A    between atoms: C_7  and  O_18
REMARK    4  A    between atoms: C_10  and  C_27
REMARK    5  A    between atoms: C_23  and  O_24
REMARK    6  A    between atoms: C_27  and  O_28
REMARK                            x       y       z     vdW  Elec       q    Type
REMARK                         _______ _______ _______ _____ _____    ______ ____
ROOT
ATOM      1  C   UNL     1     -34.907  24.514   2.775  0.00  0.00    +0.017 C 
ATOM      2  C   UNL     1     -35.107  23.098   3.440  0.00  0.00    +0.008 C 
ATOM      3  C   UNL     1     -35.336  22.131   2.252  0.00  0.00    +0.059 C 
ATOM      4  C   UNL     1     -34.431  22.759   1.165  0.00  0.00    +0.028 C 
ATOM      5  C   UNL     1     -34.781  24.256   1.245  0.00  0.00    +0.100 C 
ATOM      6  C   UNL     1     -36.052  25.458   3.170  0.00  0.00    +0.032 C 
ATOM      7  C   UNL     1     -35.803  25.594   4.680  0.00  0.00    +0.103 C 
ATOM      8  C   UNL     1     -33.706  25.239   3.440  0.00  0.00    +0.025 C 
ATOM      9  C   UNL     1     -36.174  23.057   4.551  0.00  0.00    +0.003 C 
ATOM     10  C   UNL     1     -34.453  21.992  -0.182  0.00  0.00    +0.090 C 
ATOM     11  C   UNL     1     -34.897  20.686   2.518  0.00  0.00    +0.007 C 
ATOM     12  C   UNL     1     -36.202  24.311   5.432  0.00  0.00    +0.031 C 
ATOM     13  C   UNL     1     -34.299  25.770   4.717  0.00  0.00    -0.020 C 
ATOM     14  C   UNL     1     -34.099  20.506   0.094  0.00  0.00    +0.011 C 
ATOM     15  C   UNL     1     -34.904  19.857   1.228  0.00  0.00    +0.001 C 
ATOM     16  C   UNL     1     -33.431  22.550  -1.186  0.00  0.00    +0.011 C 
ATOM     17  C   UNL     1     -33.587  26.336   5.699  0.00  0.00    -0.007 C 
ENDROOT
BRANCH   7  18
ATOM     18  O   UNL     1     -36.471  26.722   5.213  0.00  0.00    -0.383 OA
ATOM     19  H   UNL     1     -36.765  26.527   6.116  0.00  0.00    +0.211 HD
ENDBRANCH   7  18
BRANCH   3  21
ATOM     20  O   UNL     1     -37.569  21.202   2.149  0.00  0.00    -0.288 OA
ATOM     21  C   UNL     1     -36.805  22.121   1.871  0.00  0.00    +0.207 C 
ENDBRANCH   3  21
BRANCH   5  23
ATOM     22  O   UNL     1     -32.558  25.109   0.834  0.00  0.00    -0.250 OA
ATOM     23  C   UNL     1     -33.754  25.123   0.585  0.00  0.00    +0.313 C 
BRANCH  23  24
ATOM     24  O   UNL     1     -34.333  25.936  -0.333  0.00  0.00    -0.480 OA
ATOM     25  H   UNL     1     -34.358  26.862  -0.191  0.00  0.00    +0.295 HD
ENDBRANCH  23  24
ENDBRANCH   5  23
BRANCH  10  27
ATOM     26  O   UNL     1     -36.539  21.133  -1.074  0.00  0.00    -0.250 OA
ATOM     27  C   UNL     1     -35.787  22.076  -0.881  0.00  0.00    +0.313 C 
BRANCH  27  28
ATOM     28  O   UNL     1     -36.041  23.348  -1.275  0.00  0.00    -0.480 OA
ATOM     29  H   UNL     1     -36.871  23.565  -1.652  0.00  0.00    +0.295 HD
ENDBRANCH  27  28
ENDBRANCH  10  27
TORSDOF 6
ENDMDL
MODEL 9
REMARK VINA RESULT:      -5.6      1.976      5.163
REMARK  Name = 5460209
REMARK  6 active torsions:
REMARK  status: ('A' for Active; 'I' for Inactive)
REMARK    1  A    between atoms: C_3  and  C_21
REMARK    2  A    between atoms: C_5  and  C_23
REMARK    3  A    between atoms: C_7  and  O_18
REMARK    4  A    between atoms: C_10  and  C_27
REMARK    5  A    between atoms: C_23  and  O_24
REMARK    6  A    between atoms: C_27  and  O_28
REMARK                            x       y       z     vdW  Elec       q    Type
REMARK                         _______ _______ _______ _____ _____    ______ ____
ROOT
ATOM      1  C   UNL     1     -33.558  25.982   2.693  0.00  0.00    +0.017 C 
ATOM      2  C   UNL     1     -33.605  25.426   4.169  0.00  0.00    +0.008 C 
ATOM      3  C   UNL     1     -34.744  24.377   4.162  0.00  0.00    +0.059 C 
ATOM      4  C   UNL     1     -34.620  23.798   2.732  0.00  0.00    +0.028 C 
ATOM      5  C   UNL     1     -34.490  25.057   1.857  0.00  0.00    +0.100 C 
ATOM      6  C   UNL     1     -33.942  27.468   2.668  0.00  0.00    +0.032 C 
ATOM      7  C   UNL     1     -32.772  28.080   3.452  0.00  0.00    +0.103 C 
ATOM      8  C   UNL     1     -32.083  26.066   2.214  0.00  0.00    +0.025 C 
ATOM      9  C   UNL     1     -33.701  26.512   5.259  0.00  0.00    +0.003 C 
ATOM     10  C   UNL     1     -35.662  22.694   2.416  0.00  0.00    +0.090 C 
ATOM     11  C   UNL     1     -34.577  23.254   5.191  0.00  0.00    +0.007 C 
ATOM     12  C   UNL     1     -32.881  27.771   4.956  0.00  0.00    +0.031 C 
ATOM     13  C   UNL     1     -31.594  27.338   2.854  0.00  0.00    -0.020 C 
ATOM     14  C   UNL     1     -35.561  21.596   3.508  0.00  0.00    +0.011 C 
ATOM     15  C   UNL     1     -35.586  22.124   4.948  0.00  0.00    +0.001 C 
ATOM     16  C   UNL     1     -35.414  22.035   1.049  0.00  0.00    +0.011 C 
ATOM     17  C   UNL     1     -30.318  27.741   2.849  0.00  0.00    -0.007 C 
ENDROOT
BRANCH   7  18
ATOM     18  O   UNL     1     -32.674  29.474   3.227  0.00  0.00    -0.383 OA
ATOM     19  H   UNL     1     -32.413  29.636   2.307  0.00  0.00    +0.211 HD
ENDBRANCH   7  18
BRANCH   3  21
ATOM     20  O   UNL     1     -36.683  24.988   5.477  0.00  0.00    -0.288 OA
ATOM     21  C   UNL     1     -36.076  25.061   4.413  0.00  0.00    +0.207 C 
ENDBRANCH   3  21
BRANCH   5  23
ATOM     22  O   UNL     1     -33.020  24.002   0.255  0.00  0.00    -0.250 OA
ATOM     23  C   UNL     1     -33.951  24.758   0.492  0.00  0.00    +0.313 C 
BRANCH  23  24
ATOM     24  O   UNL     1     -34.638  25.443  -0.454  0.00  0.00    -0.480 OA
ATOM     25  H   UNL     1     -35.431  25.889  -0.228  0.00  0.00    +0.295 HD
ENDBRANCH  23  24
ENDBRANCH   5  23
BRANCH  10  27
ATOM     26  O   UNL     1     -37.436  24.177   1.681  0.00  0.00    -0.250 OA
ATOM     27  C   UNL     1     -37.073  23.223   2.354  0.00  0.00    +0.313 C 
BRANCH  27  28
ATOM     28  O   UNL     1     -37.892  22.497   3.154  0.00  0.00    -0.480 OA
ATOM     29  H   UNL     1     -38.329  21.741   2.814  0.00  0.00    +0.295 HD
ENDBRANCH  27  28
ENDBRANCH  10  27
TORSDOF 6
ENDMDL
