MODEL 1
REMARK VINA RESULT:      -7.0      0.000      0.000
REMARK  Name = 51055169
REMARK  6 active torsions:
REMARK  status: ('A' for Active; 'I' for Inactive)
REMARK    1  A    between atoms: C_5  and  C_27
REMARK    2  A    between atoms: C_10  and  O_34
REMARK    3  A    between atoms: C_16  and  O_36
REMARK    4  A    between atoms: C_20  and  O_38
REMARK    5  A    between atoms: C_28  and  C_31
REMARK    6  A    between atoms: C_31  and  O_32
REMARK                            x       y       z     vdW  Elec       q    Type
REMARK                         _______ _______ _______ _____ _____    ______ ____
ROOT
ATOM      1  O   UNL     1     -35.669  21.984   4.653  0.00  0.00    -0.296 OA
ATOM      2  O   UNL     1     -41.261  21.499  -0.163  0.00  0.00    -0.346 OA
ATOM      3  O   UNL     1     -36.310  20.298   1.890  0.00  0.00    -0.284 OA
ATOM      4  O   UNL     1     -40.769  23.469  -2.789  0.00  0.00    -0.293 OA
ATOM      5  C   UNL     1     -35.037  24.328   3.587  0.00  0.00    +0.055 C 
ATOM      6  C   UNL     1     -36.471  24.585   2.952  0.00  0.00    +0.019 C 
ATOM      7  C   UNL     1     -36.240  23.145   2.341  0.00  0.00    +0.098 C 
ATOM      8  C   UNL     1     -35.657  22.846   3.818  0.00  0.00    +0.155 C 
ATOM      9  C   UNL     1     -34.128  24.200   2.350  0.00  0.00    +0.037 C 
ATOM     10  C   UNL     1     -35.006  23.293   1.443  0.00  0.00    +0.121 C 
ATOM     11  C   UNL     1     -37.746  24.677   3.775  0.00  0.00    +0.006 C 
ATOM     12  C   UNL     1     -37.423  22.359   1.943  0.00  0.00    +0.022 C 
ATOM     13  C   UNL     1     -36.472  25.777   1.993  0.00  0.00    +0.001 C 
ATOM     14  C   UNL     1     -38.902  24.178   2.908  0.00  0.00    +0.024 C 
ATOM     15  C   UNL     1     -38.656  22.849   2.200  0.00  0.00    -0.016 C 
ATOM     16  C   UNL     1     -39.920  22.155   1.763  0.00  0.00    +0.157 C 
ATOM     17  C   UNL     1     -37.174  21.006   1.365  0.00  0.00    +0.225 C 
ATOM     18  C   UNL     1     -39.953  21.980   0.251  0.00  0.00    +0.146 C 
ATOM     19  C   UNL     1     -39.026  20.943  -0.366  0.00  0.00    +0.022 C 
ATOM     20  C   UNL     1     -37.849  20.508   0.124  0.00  0.00    +0.171 C 
ATOM     21  C   UNL     1     -39.784  20.424  -1.608  0.00  0.00    +0.052 C 
ATOM     22  C   UNL     1     -40.997  21.371  -1.588  0.00  0.00    +0.176 C 
ATOM     23  C   UNL     1     -39.892  23.302  -0.539  0.00  0.00    +0.101 C 
ATOM     24  C   UNL     1     -40.587  22.812  -1.776  0.00  0.00    +0.181 C 
ATOM     25  C   UNL     1     -40.287  18.983  -1.405  0.00  0.00    +0.007 C 
ATOM     26  C   UNL     1     -39.026  20.547  -2.938  0.00  0.00    +0.007 C 
ENDROOT
BRANCH   5  27
ATOM     27  C   UNL     1     -34.554  25.022   4.797  0.00  0.00    +0.018 C 
ATOM     28  C   UNL     1     -34.313  26.503   4.837  0.00  0.00    +0.099 C 
ATOM     29  C   UNL     1     -35.439  25.904   5.628  0.00  0.00    +0.012 C 
BRANCH  28  31
ATOM     30  O   UNL     1     -33.075  27.084   6.766  0.00  0.00    -0.250 OA
ATOM     31  C   UNL     1     -33.132  27.018   5.548  0.00  0.00    +0.313 C 
BRANCH  31  32
ATOM     32  O   UNL     1     -32.146  27.397   4.701  0.00  0.00    -0.480 OA
ATOM     33  H   UNL     1     -31.610  26.750   4.286  0.00  0.00    +0.295 HD
ENDBRANCH  31  32
ENDBRANCH  28  31
ENDBRANCH   5  27
BRANCH  10  34
ATOM     34  O   UNL     1     -35.335  23.909   0.210  0.00  0.00    -0.384 OA
ATOM     35  H   UNL     1     -36.287  23.811   0.043  0.00  0.00    +0.210 HD
ENDBRANCH  10  34
BRANCH  16  36
ATOM     36  O   UNL     1     -40.048  20.905   2.441  0.00  0.00    -0.378 OA
ATOM     37  H   UNL     1     -40.025  21.054   3.399  0.00  0.00    +0.211 HD
ENDBRANCH  16  36
BRANCH  20  38
ATOM     38  O   UNL     1     -37.131  19.487  -0.479  0.00  0.00    -0.469 OA
ATOM     39  C   UNL     1     -36.045  20.014  -1.211  0.00  0.00    +0.253 C 
ENDBRANCH  20  38
TORSDOF 6
ENDMDL
MODEL 2
REMARK VINA RESULT:      -6.9      2.694      8.102
REMARK  Name = 51055169
REMARK  6 active torsions:
REMARK  status: ('A' for Active; 'I' for Inactive)
REMARK    1  A    between atoms: C_5  and  C_27
REMARK    2  A    between atoms: C_10  and  O_34
REMARK    3  A    between atoms: C_16  and  O_36
REMARK    4  A    between atoms: C_20  and  O_38
REMARK    5  A    between atoms: C_28  and  C_31
REMARK    6  A    between atoms: C_31  and  O_32
REMARK                            x       y       z     vdW  Elec       q    Type
REMARK                         _______ _______ _______ _____ _____    ______ ____
ROOT
ATOM      1  O   UNL     1     -38.717  23.510   2.579  0.00  0.00    -0.296 OA
ATOM      2  O   UNL     1     -33.636  28.671   4.079  0.00  0.00    -0.346 OA
ATOM      3  O   UNL     1     -38.183  26.658   1.745  0.00  0.00    -0.284 OA
ATOM      4  O   UNL     1     -31.309  28.800   1.713  0.00  0.00    -0.293 OA
ATOM      5  C   UNL     1     -36.962  22.338   0.973  0.00  0.00    +0.055 C 
ATOM      6  C   UNL     1     -35.687  23.011   1.643  0.00  0.00    +0.019 C 
ATOM      7  C   UNL     1     -36.502  24.342   1.388  0.00  0.00    +0.098 C 
ATOM      8  C   UNL     1     -37.736  23.430   1.891  0.00  0.00    +0.155 C 
ATOM      9  C   UNL     1     -36.960  22.931  -0.448  0.00  0.00    +0.037 C 
ATOM     10  C   UNL     1     -36.655  24.423  -0.136  0.00  0.00    +0.121 C 
ATOM     11  C   UNL     1     -35.313  22.823   3.104  0.00  0.00    +0.006 C 
ATOM     12  C   UNL     1     -36.190  25.521   2.218  0.00  0.00    +0.022 C 
ATOM     13  C   UNL     1     -34.416  22.782   0.823  0.00  0.00    +0.001 C 
ATOM     14  C   UNL     1     -34.595  24.089   3.573  0.00  0.00    +0.024 C 
ATOM     15  C   UNL     1     -35.296  25.399   3.224  0.00  0.00    -0.016 C 
ATOM     16  C   UNL     1     -34.857  26.562   4.075  0.00  0.00    +0.157 C 
ATOM     17  C   UNL     1     -36.970  26.764   1.951  0.00  0.00    +0.225 C 
ATOM     18  C   UNL     1     -34.232  27.659   3.223  0.00  0.00    +0.146 C 
ATOM     19  C   UNL     1     -35.156  28.490   2.346  0.00  0.00    +0.022 C 
ATOM     20  C   UNL     1     -36.340  28.116   1.823  0.00  0.00    +0.171 C 
ATOM     21  C   UNL     1     -34.493  29.885   2.284  0.00  0.00    +0.052 C 
ATOM     22  C   UNL     1     -33.186  29.585   3.040  0.00  0.00    +0.176 C 
ATOM     23  C   UNL     1     -32.989  27.210   2.431  0.00  0.00    +0.101 C 
ATOM     24  C   UNL     1     -32.343  28.561   2.319  0.00  0.00    +0.181 C 
ATOM     25  C   UNL     1     -35.291  30.929   3.086  0.00  0.00    +0.007 C 
ATOM     26  C   UNL     1     -34.192  30.407   0.872  0.00  0.00    +0.007 C 
ENDROOT
BRANCH   5  27
ATOM     27  C   UNL     1     -37.339  20.928   1.192  0.00  0.00    +0.018 C 
ATOM     28  C   UNL     1     -36.859  19.817   0.303  0.00  0.00    +0.099 C 
ATOM     29  C   UNL     1     -36.373  19.908   1.720  0.00  0.00    +0.012 C 
BRANCH  28  31
ATOM     30  O   UNL     1     -38.809  18.946  -0.712  0.00  0.00    -0.250 OA
ATOM     31  C   UNL     1     -37.792  18.742  -0.067  0.00  0.00    +0.313 C 
BRANCH  31  32
ATOM     32  O   UNL     1     -37.387  17.531   0.385  0.00  0.00    -0.480 OA
ATOM     33  H   UNL     1     -37.208  16.840  -0.221  0.00  0.00    +0.295 HD
ENDBRANCH  31  32
ENDBRANCH  28  31
ENDBRANCH   5  27
BRANCH  10  34
ATOM     34  O   UNL     1     -35.462  24.877  -0.752  0.00  0.00    -0.384 OA
ATOM     35  H   UNL     1     -34.723  24.790  -0.128  0.00  0.00    +0.210 HD
ENDBRANCH  10  34
BRANCH  16  36
ATOM     36  O   UNL     1     -35.961  27.052   4.836  0.00  0.00    -0.378 OA
ATOM     37  H   UNL     1     -35.763  26.970   5.782  0.00  0.00    +0.211 HD
ENDBRANCH  16  36
BRANCH  20  38
ATOM     38  O   UNL     1     -37.143  28.994   1.111  0.00  0.00    -0.469 OA
ATOM     39  C   UNL     1     -37.035  28.749  -0.275  0.00  0.00    +0.253 C 
ENDBRANCH  20  38
TORSDOF 6
ENDMDL
MODEL 3
REMARK VINA RESULT:      -6.8      3.825      9.712
REMARK  Name = 51055169
REMARK  6 active torsions:
REMARK  status: ('A' for Active; 'I' for Inactive)
REMARK    1  A    between atoms: C_5  and  C_27
REMARK    2  A    between atoms: C_10  and  O_34
REMARK    3  A    between atoms: C_16  and  O_36
REMARK    4  A    between atoms: C_20  and  O_38
REMARK    5  A    between atoms: C_28  and  C_31
REMARK    6  A    between atoms: C_31  and  O_32
REMARK                            x       y       z     vdW  Elec       q    Type
REMARK                         _______ _______ _______ _____ _____    ______ ____
ROOT
ATOM      1  O   UNL     1     -33.490  24.488   4.998  0.00  0.00    -0.296 OA
ATOM      2  O   UNL     1     -29.542  30.021   2.081  0.00  0.00    -0.346 OA
ATOM      3  O   UNL     1     -32.938  27.665   5.699  0.00  0.00    -0.284 OA
ATOM      4  O   UNL     1     -31.407  31.923   0.099  0.00  0.00    -0.293 OA
ATOM      5  C   UNL     1     -35.241  24.783   3.029  0.00  0.00    +0.055 C 
ATOM      6  C   UNL     1     -34.232  25.528   2.053  0.00  0.00    +0.019 C 
ATOM      7  C   UNL     1     -34.015  26.462   3.311  0.00  0.00    +0.098 C 
ATOM      8  C   UNL     1     -34.048  25.051   4.096  0.00  0.00    +0.155 C 
ATOM      9  C   UNL     1     -36.299  25.863   3.323  0.00  0.00    +0.037 C 
ATOM     10  C   UNL     1     -35.387  27.098   3.568  0.00  0.00    +0.121 C 
ATOM     11  C   UNL     1     -32.938  24.906   1.555  0.00  0.00    +0.006 C 
ATOM     12  C   UNL     1     -32.757  27.225   3.405  0.00  0.00    +0.022 C 
ATOM     13  C   UNL     1     -34.939  26.123   0.834  0.00  0.00    +0.001 C 
ATOM     14  C   UNL     1     -31.931  26.035   1.324  0.00  0.00    +0.024 C 
ATOM     15  C   UNL     1     -31.797  27.029   2.474  0.00  0.00    -0.016 C 
ATOM     16  C   UNL     1     -30.512  27.815   2.445  0.00  0.00    +0.157 C 
ATOM     17  C   UNL     1     -32.584  28.102   4.600  0.00  0.00    +0.225 C 
ATOM     18  C   UNL     1     -30.787  29.307   2.313  0.00  0.00    +0.146 C 
ATOM     19  C   UNL     1     -31.348  30.037   3.524  0.00  0.00    +0.022 C 
ATOM     20  C   UNL     1     -32.096  29.515   4.516  0.00  0.00    +0.171 C 
ATOM     21  C   UNL     1     -30.779  31.470   3.422  0.00  0.00    +0.052 C 
ATOM     22  C   UNL     1     -30.077  31.374   2.055  0.00  0.00    +0.176 C 
ATOM     23  C   UNL     1     -31.560  29.696   1.038  0.00  0.00    +0.101 C 
ATOM     24  C   UNL     1     -31.057  31.108   0.938  0.00  0.00    +0.181 C 
ATOM     25  C   UNL     1     -29.713  31.736   4.500  0.00  0.00    +0.007 C 
ATOM     26  C   UNL     1     -31.826  32.592   3.411  0.00  0.00    +0.007 C 
ENDROOT
BRANCH   5  27
ATOM     27  C   UNL     1     -35.644  23.375   2.851  0.00  0.00    +0.018 C 
ATOM     28  C   UNL     1     -36.017  22.490   4.005  0.00  0.00    +0.099 C 
ATOM     29  C   UNL     1     -37.063  22.915   3.017  0.00  0.00    +0.012 C 
BRANCH  28  31
ATOM     30  O   UNL     1     -35.536  20.403   3.000  0.00  0.00    -0.250 OA
ATOM     31  C   UNL     1     -35.562  21.090   4.010  0.00  0.00    +0.313 C 
BRANCH  31  32
ATOM     32  O   UNL     1     -35.188  20.675   5.243  0.00  0.00    -0.480 OA
ATOM     33  H   UNL     1     -35.568  19.904   5.614  0.00  0.00    +0.295 HD
ENDBRANCH  31  32
ENDBRANCH  28  31
ENDBRANCH   5  27
BRANCH  10  34
ATOM     34  O   UNL     1     -35.645  28.156   2.660  0.00  0.00    -0.384 OA
ATOM     35  H   UNL     1     -35.056  28.902   2.857  0.00  0.00    +0.210 HD
ENDBRANCH  10  34
BRANCH  16  36
ATOM     36  O   UNL     1     -29.736  27.523   3.606  0.00  0.00    -0.378 OA
ATOM     37  H   UNL     1     -30.061  28.051   4.353  0.00  0.00    +0.211 HD
ENDBRANCH  16  36
BRANCH  20  38
ATOM     38  O   UNL     1     -32.475  30.258   5.623  0.00  0.00    -0.469 OA
ATOM     39  C   UNL     1     -31.612  30.000   6.710  0.00  0.00    +0.253 C 
ENDBRANCH  20  38
TORSDOF 6
ENDMDL
MODEL 4
REMARK VINA RESULT:      -6.7      2.011      3.986
REMARK  Name = 51055169
REMARK  6 active torsions:
REMARK  status: ('A' for Active; 'I' for Inactive)
REMARK    1  A    between atoms: C_5  and  C_27
REMARK    2  A    between atoms: C_10  and  O_34
REMARK    3  A    between atoms: C_16  and  O_36
REMARK    4  A    between atoms: C_20  and  O_38
REMARK    5  A    between atoms: C_28  and  C_31
REMARK    6  A    between atoms: C_31  and  O_32
REMARK                            x       y       z     vdW  Elec       q    Type
REMARK                         _______ _______ _______ _____ _____    ______ ____
ROOT
ATOM      1  O   UNL     1     -31.834  25.553   2.564  0.00  0.00    -0.296 OA
ATOM      2  O   UNL     1     -37.488  20.939   1.362  0.00  0.00    -0.346 OA
ATOM      3  O   UNL     1     -33.990  24.991   0.130  0.00  0.00    -0.284 OA
ATOM      4  O   UNL     1     -40.391  22.363   2.117  0.00  0.00    -0.293 OA
ATOM      5  C   UNL     1     -33.392  26.935   4.206  0.00  0.00    +0.055 C 
ATOM      6  C   UNL     1     -34.414  25.745   4.465  0.00  0.00    +0.019 C 
ATOM      7  C   UNL     1     -34.460  25.704   2.885  0.00  0.00    +0.098 C 
ATOM      8  C   UNL     1     -32.868  25.928   3.046  0.00  0.00    +0.155 C 
ATOM      9  C   UNL     1     -34.256  27.980   3.476  0.00  0.00    +0.037 C 
ATOM     10  C   UNL     1     -35.019  27.071   2.472  0.00  0.00    +0.121 C 
ATOM     11  C   UNL     1     -34.009  24.414   5.076  0.00  0.00    +0.006 C 
ATOM     12  C   UNL     1     -34.871  24.447   2.231  0.00  0.00    +0.022 C 
ATOM     13  C   UNL     1     -35.669  26.212   5.204  0.00  0.00    +0.001 C 
ATOM     14  C   UNL     1     -34.935  23.336   4.509  0.00  0.00    +0.024 C 
ATOM     15  C   UNL     1     -35.101  23.354   2.992  0.00  0.00    -0.016 C 
ATOM     16  C   UNL     1     -35.597  22.050   2.424  0.00  0.00    +0.157 C 
ATOM     17  C   UNL     1     -34.910  24.440   0.740  0.00  0.00    +0.225 C 
ATOM     18  C   UNL     1     -36.934  22.235   1.719  0.00  0.00    +0.146 C 
ATOM     19  C   UNL     1     -36.938  22.960   0.382  0.00  0.00    +0.022 C 
ATOM     20  C   UNL     1     -36.057  23.885  -0.047  0.00  0.00    +0.171 C 
ATOM     21  C   UNL     1     -38.100  22.321  -0.412  0.00  0.00    +0.052 C 
ATOM     22  C   UNL     1     -38.685  21.404   0.678  0.00  0.00    +0.176 C 
ATOM     23  C   UNL     1     -38.059  22.766   2.628  0.00  0.00    +0.101 C 
ATOM     24  C   UNL     1     -39.211  22.193   1.853  0.00  0.00    +0.181 C 
ATOM     25  C   UNL     1     -37.585  21.441  -1.564  0.00  0.00    +0.007 C 
ATOM     26  C   UNL     1     -39.166  23.303  -0.919  0.00  0.00    +0.007 C 
ENDROOT
BRANCH   5  27
ATOM     27  C   UNL     1     -32.383  27.362   5.195  0.00  0.00    +0.018 C 
ATOM     28  C   UNL     1     -32.513  28.633   5.983  0.00  0.00    +0.099 C 
ATOM     29  C   UNL     1     -32.631  27.306   6.674  0.00  0.00    +0.012 C 
BRANCH  28  31
ATOM     30  O   UNL     1     -30.884  30.238   5.379  0.00  0.00    -0.250 OA
ATOM     31  C   UNL     1     -31.317  29.458   6.214  0.00  0.00    +0.313 C 
BRANCH  31  32
ATOM     32  O   UNL     1     -30.775  29.248   7.437  0.00  0.00    -0.480 OA
ATOM     33  H   UNL     1     -31.293  28.871   8.121  0.00  0.00    +0.295 HD
ENDBRANCH  31  32
ENDBRANCH  28  31
ENDBRANCH   5  27
BRANCH  10  34
ATOM     34  O   UNL     1     -36.425  27.127   2.644  0.00  0.00    -0.384 OA
ATOM     35  H   UNL     1     -36.775  26.227   2.744  0.00  0.00    +0.210 HD
ENDBRANCH  10  34
BRANCH  16  36
ATOM     36  O   UNL     1     -34.614  21.493   1.552  0.00  0.00    -0.378 OA
ATOM     37  H   UNL     1     -33.912  21.082   2.079  0.00  0.00    +0.211 HD
ENDBRANCH  16  36
BRANCH  20  38
ATOM     38  O   UNL     1     -36.106  24.413  -1.328  0.00  0.00    -0.469 OA
ATOM     39  C   UNL     1     -36.685  25.700  -1.310  0.00  0.00    +0.253 C 
ENDBRANCH  20  38
TORSDOF 6
ENDMDL
MODEL 5
REMARK VINA RESULT:      -6.5      2.510      4.045
REMARK  Name = 51055169
REMARK  6 active torsions:
REMARK  status: ('A' for Active; 'I' for Inactive)
REMARK    1  A    between atoms: C_5  and  C_27
REMARK    2  A    between atoms: C_10  and  O_34
REMARK    3  A    between atoms: C_16  and  O_36
REMARK    4  A    between atoms: C_20  and  O_38
REMARK    5  A    between atoms: C_28  and  C_31
REMARK    6  A    between atoms: C_31  and  O_32
REMARK                            x       y       z     vdW  Elec       q    Type
REMARK                         _______ _______ _______ _____ _____    ______ ____
ROOT
ATOM      1  O   UNL     1     -35.387  20.689   3.807  0.00  0.00    -0.296 OA
ATOM      2  O   UNL     1     -37.460  17.226  -2.391  0.00  0.00    -0.346 OA
ATOM      3  O   UNL     1     -33.893  19.026   1.379  0.00  0.00    -0.284 OA
ATOM      4  O   UNL     1     -37.145  19.200  -5.042  0.00  0.00    -0.293 OA
ATOM      5  C   UNL     1     -35.769  23.002   2.568  0.00  0.00    +0.055 C 
ATOM      6  C   UNL     1     -36.738  22.408   1.457  0.00  0.00    +0.019 C 
ATOM      7  C   UNL     1     -35.553  21.381   1.255  0.00  0.00    +0.098 C 
ATOM      8  C   UNL     1     -35.522  21.427   2.869  0.00  0.00    +0.155 C 
ATOM      9  C   UNL     1     -34.544  23.457   1.752  0.00  0.00    +0.037 C 
ATOM     10  C   UNL     1     -34.362  22.238   0.805  0.00  0.00    +0.121 C 
ATOM     11  C   UNL     1     -38.058  21.726   1.776  0.00  0.00    +0.006 C 
ATOM     12  C   UNL     1     -35.860  20.070   0.652  0.00  0.00    +0.022 C 
ATOM     13  C   UNL     1     -37.013  23.411   0.334  0.00  0.00    +0.001 C 
ATOM     14  C   UNL     1     -38.321  20.680   0.692  0.00  0.00    +0.024 C 
ATOM     15  C   UNL     1     -37.147  19.755   0.383  0.00  0.00    -0.016 C 
ATOM     16  C   UNL     1     -37.551  18.475  -0.300  0.00  0.00    +0.157 C 
ATOM     17  C   UNL     1     -34.721  19.125   0.469  0.00  0.00    +0.225 C 
ATOM     18  C   UNL     1     -36.900  18.358  -1.672  0.00  0.00    +0.146 C 
ATOM     19  C   UNL     1     -35.409  18.061  -1.728  0.00  0.00    +0.022 C 
ATOM     20  C   UNL     1     -34.481  18.367  -0.800  0.00  0.00    +0.171 C 
ATOM     21  C   UNL     1     -35.217  17.239  -3.022  0.00  0.00    +0.052 C 
ATOM     22  C   UNL     1     -36.645  17.316  -3.593  0.00  0.00    +0.176 C 
ATOM     23  C   UNL     1     -37.264  19.499  -2.642  0.00  0.00    +0.101 C 
ATOM     24  C   UNL     1     -37.044  18.736  -3.917  0.00  0.00    +0.181 C 
ATOM     25  C   UNL     1     -34.894  15.765  -2.716  0.00  0.00    +0.007 C 
ATOM     26  C   UNL     1     -34.206  17.815  -4.023  0.00  0.00    +0.007 C 
ENDROOT
BRANCH   5  27
ATOM     27  C   UNL     1     -36.247  23.811   3.707  0.00  0.00    +0.018 C 
ATOM     28  C   UNL     1     -36.001  25.288   3.807  0.00  0.00    +0.099 C 
ATOM     29  C   UNL     1     -37.393  24.772   3.588  0.00  0.00    +0.012 C 
BRANCH  28  31
ATOM     30  O   UNL     1     -34.573  25.668   5.654  0.00  0.00    -0.250 OA
ATOM     31  C   UNL     1     -35.650  25.868   5.113  0.00  0.00    +0.313 C 
BRANCH  31  32
ATOM     32  O   UNL     1     -36.645  26.633   5.621  0.00  0.00    -0.480 OA
ATOM     33  H   UNL     1     -36.475  27.207   6.342  0.00  0.00    +0.295 HD
ENDBRANCH  31  32
ENDBRANCH  28  31
ENDBRANCH   5  27
BRANCH  10  34
ATOM     34  O   UNL     1     -34.468  22.590  -0.564  0.00  0.00    -0.384 OA
ATOM     35  H   UNL     1     -34.293  23.539  -0.668  0.00  0.00    +0.210 HD
ENDBRANCH  10  34
BRANCH  16  36
ATOM     36  O   UNL     1     -37.232  17.359   0.531  0.00  0.00    -0.378 OA
ATOM     37  H   UNL     1     -36.877  17.676   1.376  0.00  0.00    +0.211 HD
ENDBRANCH  16  36
BRANCH  20  38
ATOM     38  O   UNL     1     -33.160  17.962  -0.917  0.00  0.00    -0.469 OA
ATOM     39  C   UNL     1     -32.352  19.035  -1.352  0.00  0.00    +0.253 C 
ENDBRANCH  20  38
TORSDOF 6
ENDMDL
MODEL 6
REMARK VINA RESULT:      -6.4      4.204      6.744
REMARK  Name = 51055169
REMARK  6 active torsions:
REMARK  status: ('A' for Active; 'I' for Inactive)
REMARK    1  A    between atoms: C_5  and  C_27
REMARK    2  A    between atoms: C_10  and  O_34
REMARK    3  A    between atoms: C_16  and  O_36
REMARK    4  A    between atoms: C_20  and  O_38
REMARK    5  A    between atoms: C_28  and  C_31
REMARK    6  A    between atoms: C_31  and  O_32
REMARK                            x       y       z     vdW  Elec       q    Type
REMARK                         _______ _______ _______ _____ _____    ______ ____
ROOT
ATOM      1  O   UNL     1     -34.744  19.808   2.988  0.00  0.00    -0.296 OA
ATOM      2  O   UNL     1     -34.916  14.462  -2.119  0.00  0.00    -0.346 OA
ATOM      3  O   UNL     1     -32.560  17.783   1.568  0.00  0.00    -0.284 OA
ATOM      4  O   UNL     1     -34.124  15.634  -5.123  0.00  0.00    -0.293 OA
ATOM      5  C   UNL     1     -35.004  21.590   1.042  0.00  0.00    +0.055 C 
ATOM      6  C   UNL     1     -35.614  20.564  -0.008  0.00  0.00    +0.019 C 
ATOM      7  C   UNL     1     -34.332  19.719   0.373  0.00  0.00    +0.098 C 
ATOM      8  C   UNL     1     -34.706  20.221   1.862  0.00  0.00    +0.155 C 
ATOM      9  C   UNL     1     -33.659  21.982   0.402  0.00  0.00    +0.037 C 
ATOM     10  C   UNL     1     -33.145  20.589  -0.060  0.00  0.00    +0.121 C 
ATOM     11  C   UNL     1     -36.908  19.801   0.222  0.00  0.00    +0.006 C 
ATOM     12  C   UNL     1     -34.368  18.260   0.156  0.00  0.00    +0.022 C 
ATOM     13  C   UNL     1     -35.688  21.154  -1.417  0.00  0.00    +0.001 C 
ATOM     14  C   UNL     1     -36.804  18.465  -0.514  0.00  0.00    +0.024 C 
ATOM     15  C   UNL     1     -35.516  17.686  -0.266  0.00  0.00    -0.016 C 
ATOM     16  C   UNL     1     -35.627  16.218  -0.587  0.00  0.00    +0.157 C 
ATOM     17  C   UNL     1     -33.142  17.491   0.519  0.00  0.00    +0.225 C 
ATOM     18  C   UNL     1     -34.649  15.823  -1.686  0.00  0.00    +0.146 C 
ATOM     19  C   UNL     1     -33.171  15.759  -1.333  0.00  0.00    +0.022 C 
ATOM     20  C   UNL     1     -32.531  16.454  -0.372  0.00  0.00    +0.171 C 
ATOM     21  C   UNL     1     -32.596  14.646  -2.237  0.00  0.00    +0.052 C 
ATOM     22  C   UNL     1     -33.839  14.336  -3.090  0.00  0.00    +0.176 C 
ATOM     23  C   UNL     1     -34.858  16.574  -3.016  0.00  0.00    +0.101 C 
ATOM     24  C   UNL     1     -34.266  15.527  -3.915  0.00  0.00    +0.181 C 
ATOM     25  C   UNL     1     -32.234  13.388  -1.428  0.00  0.00    +0.007 C 
ATOM     26  C   UNL     1     -31.421  15.068  -3.131  0.00  0.00    +0.007 C 
ENDROOT
BRANCH   5  27
ATOM     27  C   UNL     1     -35.817  22.601   1.746  0.00  0.00    +0.018 C 
ATOM     28  C   UNL     1     -35.377  23.235   3.034  0.00  0.00    +0.099 C 
ATOM     29  C   UNL     1     -35.445  24.054   1.779  0.00  0.00    +0.012 C 
BRANCH  28  31
ATOM     30  O   UNL     1     -37.108  24.439   4.105  0.00  0.00    -0.250 OA
ATOM     31  C   UNL     1     -36.371  23.465   4.095  0.00  0.00    +0.313 C 
BRANCH  31  32
ATOM     32  O   UNL     1     -36.363  22.486   5.030  0.00  0.00    -0.480 OA
ATOM     33  H   UNL     1     -36.129  21.611   4.791  0.00  0.00    +0.295 HD
ENDBRANCH  31  32
ENDBRANCH  28  31
ENDBRANCH   5  27
BRANCH  10  34
ATOM     34  O   UNL     1     -32.938  20.521  -1.460  0.00  0.00    -0.384 OA
ATOM     35  H   UNL     1     -32.244  19.871  -1.653  0.00  0.00    +0.210 HD
ENDBRANCH  10  34
BRANCH  16  36
ATOM     36  O   UNL     1     -35.430  15.445   0.596  0.00  0.00    -0.378 OA
ATOM     37  H   UNL     1     -35.190  14.537   0.352  0.00  0.00    +0.211 HD
ENDBRANCH  16  36
BRANCH  20  38
ATOM     38  O   UNL     1     -31.193  16.244  -0.077  0.00  0.00    -0.469 OA
ATOM     39  C   UNL     1     -30.397  17.265  -0.642  0.00  0.00    +0.253 C 
ENDBRANCH  20  38
TORSDOF 6
ENDMDL
MODEL 7
REMARK VINA RESULT:      -6.4      3.237      6.441
REMARK  Name = 51055169
REMARK  6 active torsions:
REMARK  status: ('A' for Active; 'I' for Inactive)
REMARK    1  A    between atoms: C_5  and  C_27
REMARK    2  A    between atoms: C_10  and  O_34
REMARK    3  A    between atoms: C_16  and  O_36
REMARK    4  A    between atoms: C_20  and  O_38
REMARK    5  A    between atoms: C_28  and  C_31
REMARK    6  A    between atoms: C_31  and  O_32
REMARK                            x       y       z     vdW  Elec       q    Type
REMARK                         _______ _______ _______ _____ _____    ______ ____
ROOT
ATOM      1  O   UNL     1     -37.919  23.016  -0.963  0.00  0.00    -0.296 OA
ATOM      2  O   UNL     1     -31.683  19.055  -1.320  0.00  0.00    -0.346 OA
ATOM      3  O   UNL     1     -37.110  19.871  -1.553  0.00  0.00    -0.284 OA
ATOM      4  O   UNL     1     -31.056  17.525   1.559  0.00  0.00    -0.293 OA
ATOM      5  C   UNL     1     -37.685  23.030   1.678  0.00  0.00    +0.055 C 
ATOM      6  C   UNL     1     -36.126  22.718   1.683  0.00  0.00    +0.019 C 
ATOM      7  C   UNL     1     -36.565  21.517   0.752  0.00  0.00    +0.098 C 
ATOM      8  C   UNL     1     -37.524  22.647   0.109  0.00  0.00    +0.155 C 
ATOM      9  C   UNL     1     -38.290  21.778   2.342  0.00  0.00    +0.037 C 
ATOM     10  C   UNL     1     -37.485  20.657   1.627  0.00  0.00    +0.121 C 
ATOM     11  C   UNL     1     -35.091  23.619   1.031  0.00  0.00    +0.006 C 
ATOM     12  C   UNL     1     -35.558  20.933  -0.155  0.00  0.00    +0.022 C 
ATOM     13  C   UNL     1     -35.608  22.383   3.083  0.00  0.00    +0.001 C 
ATOM     14  C   UNL     1     -33.930  22.739   0.563  0.00  0.00    +0.024 C 
ATOM     15  C   UNL     1     -34.334  21.499  -0.230  0.00  0.00    -0.016 C 
ATOM     16  C   UNL     1     -33.218  20.930  -1.068  0.00  0.00    +0.157 C 
ATOM     17  C   UNL     1     -36.000  19.799  -1.017  0.00  0.00    +0.225 C 
ATOM     18  C   UNL     1     -32.887  19.506  -0.643  0.00  0.00    +0.146 C 
ATOM     19  C   UNL     1     -33.879  18.409  -0.999  0.00  0.00    +0.022 C 
ATOM     20  C   UNL     1     -35.208  18.539  -1.184  0.00  0.00    +0.171 C 
ATOM     21  C   UNL     1     -33.014  17.146  -1.210  0.00  0.00    +0.052 C 
ATOM     22  C   UNL     1     -31.639  17.700  -0.793  0.00  0.00    +0.176 C 
ATOM     23  C   UNL     1     -32.435  19.375   0.824  0.00  0.00    +0.101 C 
ATOM     24  C   UNL     1     -31.621  18.123   0.657  0.00  0.00    +0.181 C 
ATOM     25  C   UNL     1     -32.948  16.746  -2.694  0.00  0.00    +0.007 C 
ATOM     26  C   UNL     1     -33.394  15.938  -0.343  0.00  0.00    +0.007 C 
ENDROOT
BRANCH   5  27
ATOM     27  C   UNL     1     -38.241  24.367   1.963  0.00  0.00    +0.018 C 
ATOM     28  C   UNL     1     -39.261  24.604   3.039  0.00  0.00    +0.099 C 
ATOM     29  C   UNL     1     -37.871  25.149   3.190  0.00  0.00    +0.012 C 
BRANCH  28  31
ATOM     30  O   UNL     1     -41.263  25.289   1.982  0.00  0.00    -0.250 OA
ATOM     31  C   UNL     1     -40.371  25.535   2.780  0.00  0.00    +0.313 C 
BRANCH  31  32
ATOM     32  O   UNL     1     -40.278  26.665   3.520  0.00  0.00    -0.480 OA
ATOM     33  H   UNL     1     -39.581  27.271   3.366  0.00  0.00    +0.295 HD
ENDBRANCH  31  32
ENDBRANCH  28  31
ENDBRANCH   5  27
BRANCH  10  34
ATOM     34  O   UNL     1     -36.741  19.859   2.530  0.00  0.00    -0.384 OA
ATOM     35  H   UNL     1     -36.888  18.920   2.331  0.00  0.00    +0.210 HD
ENDBRANCH  10  34
BRANCH  16  36
ATOM     36  O   UNL     1     -33.565  21.000  -2.451  0.00  0.00    -0.378 OA
ATOM     37  H   UNL     1     -34.495  21.262  -2.538  0.00  0.00    +0.211 HD
ENDBRANCH  16  36
BRANCH  20  38
ATOM     38  O   UNL     1     -36.002  17.481  -1.599  0.00  0.00    -0.469 OA
ATOM     39  C   UNL     1     -36.725  16.951  -0.509  0.00  0.00    +0.253 C 
ENDBRANCH  20  38
TORSDOF 6
ENDMDL
MODEL 8
REMARK VINA RESULT:      -6.3      2.878      5.566
REMARK  Name = 51055169
REMARK  6 active torsions:
REMARK  status: ('A' for Active; 'I' for Inactive)
REMARK    1  A    between atoms: C_5  and  C_27
REMARK    2  A    between atoms: C_10  and  O_34
REMARK    3  A    between atoms: C_16  and  O_36
REMARK    4  A    between atoms: C_20  and  O_38
REMARK    5  A    between atoms: C_28  and  C_31
REMARK    6  A    between atoms: C_31  and  O_32
REMARK                            x       y       z     vdW  Elec       q    Type
REMARK                         _______ _______ _______ _____ _____    ______ ____
ROOT
ATOM      1  O   UNL     1     -36.687  20.034   2.601  0.00  0.00    -0.296 OA
ATOM      2  O   UNL     1     -39.876  26.695   2.194  0.00  0.00    -0.346 OA
ATOM      3  O   UNL     1     -39.520  21.266   1.440  0.00  0.00    -0.284 OA
ATOM      4  O   UNL     1     -39.327  28.120  -0.754  0.00  0.00    -0.293 OA
ATOM      5  C   UNL     1     -35.067  20.759   0.631  0.00  0.00    +0.055 C 
ATOM      6  C   UNL     1     -35.268  22.320   0.850  0.00  0.00    +0.019 C 
ATOM      7  C   UNL     1     -36.799  21.935   0.758  0.00  0.00    +0.098 C 
ATOM      8  C   UNL     1     -36.319  20.685   1.661  0.00  0.00    +0.155 C 
ATOM      9  C   UNL     1     -35.675  20.524  -0.765  0.00  0.00    +0.037 C 
ATOM     10  C   UNL     1     -36.977  21.366  -0.655  0.00  0.00    +0.121 C 
ATOM     11  C   UNL     1     -34.920  23.035   2.145  0.00  0.00    +0.006 C 
ATOM     12  C   UNL     1     -37.785  22.839   1.380  0.00  0.00    +0.022 C 
ATOM     13  C   UNL     1     -34.670  23.146  -0.290  0.00  0.00    +0.001 C 
ATOM     14  C   UNL     1     -35.870  24.224   2.297  0.00  0.00    +0.024 C 
ATOM     15  C   UNL     1     -37.347  23.906   2.084  0.00  0.00    -0.016 C 
ATOM     16  C   UNL     1     -38.277  24.925   2.690  0.00  0.00    +0.157 C 
ATOM     17  C   UNL     1     -39.222  22.452   1.272  0.00  0.00    +0.225 C 
ATOM     18  C   UNL     1     -39.141  25.580   1.621  0.00  0.00    +0.146 C 
ATOM     19  C   UNL     1     -40.256  24.751   1.001  0.00  0.00    +0.022 C 
ATOM     20  C   UNL     1     -40.302  23.410   0.875  0.00  0.00    +0.171 C 
ATOM     21  C   UNL     1     -41.363  25.772   0.655  0.00  0.00    +0.052 C 
ATOM     22  C   UNL     1     -40.631  27.080   1.011  0.00  0.00    +0.176 C 
ATOM     23  C   UNL     1     -38.342  26.319   0.529  0.00  0.00    +0.101 C 
ATOM     24  C   UNL     1     -39.415  27.296   0.143  0.00  0.00    +0.181 C 
ATOM     25  C   UNL     1     -42.580  25.627   1.586  0.00  0.00    +0.007 C 
ATOM     26  C   UNL     1     -41.807  25.787  -0.814  0.00  0.00    +0.007 C 
ENDROOT
BRANCH   5  27
ATOM     27  C   UNL     1     -33.847  20.037   1.043  0.00  0.00    +0.018 C 
ATOM     28  C   UNL     1     -33.239  18.942   0.216  0.00  0.00    +0.099 C 
ATOM     29  C   UNL     1     -32.520  20.250   0.375  0.00  0.00    +0.012 C 
BRANCH  28  31
ATOM     30  O   UNL     1     -31.651  17.750   1.500  0.00  0.00    -0.250 OA
ATOM     31  C   UNL     1     -32.709  17.746   0.889  0.00  0.00    +0.313 C 
BRANCH  31  32
ATOM     32  O   UNL     1     -33.523  16.673   0.750  0.00  0.00    -0.480 OA
ATOM     33  H   UNL     1     -33.166  15.843   0.502  0.00  0.00    +0.295 HD
ENDBRANCH  31  32
ENDBRANCH  28  31
ENDBRANCH   5  27
BRANCH  10  34
ATOM     34  O   UNL     1     -37.042  22.399  -1.623  0.00  0.00    -0.384 OA
ATOM     35  H   UNL     1     -36.975  23.261  -1.182  0.00  0.00    +0.210 HD
ENDBRANCH  10  34
BRANCH  16  36
ATOM     36  O   UNL     1     -39.070  24.316   3.708  0.00  0.00    -0.378 OA
ATOM     37  H   UNL     1     -38.698  24.528   4.578  0.00  0.00    +0.211 HD
ENDBRANCH  16  36
BRANCH  20  38
ATOM     38  O   UNL     1     -41.416  22.754   0.375  0.00  0.00    -0.469 OA
ATOM     39  C   UNL     1     -41.197  22.361  -0.963  0.00  0.00    +0.253 C 
ENDBRANCH  20  38
TORSDOF 6
ENDMDL
MODEL 9
REMARK VINA RESULT:      -6.3     10.583     12.555
REMARK  Name = 51055169
REMARK  6 active torsions:
REMARK  status: ('A' for Active; 'I' for Inactive)
REMARK    1  A    between atoms: C_5  and  C_27
REMARK    2  A    between atoms: C_10  and  O_34
REMARK    3  A    between atoms: C_16  and  O_36
REMARK    4  A    between atoms: C_20  and  O_38
REMARK    5  A    between atoms: C_28  and  C_31
REMARK    6  A    between atoms: C_31  and  O_32
REMARK                            x       y       z     vdW  Elec       q    Type
REMARK                         _______ _______ _______ _____ _____    ______ ____
ROOT
ATOM      1  O   UNL     1     -44.316  33.858   4.867  0.00  0.00    -0.296 OA
ATOM      2  O   UNL     1     -43.276  26.607   3.840  0.00  0.00    -0.346 OA
ATOM      3  O   UNL     1     -43.826  31.850   2.294  0.00  0.00    -0.284 OA
ATOM      4  O   UNL     1     -46.122  25.073   3.087  0.00  0.00    -0.293 OA
ATOM      5  C   UNL     1     -46.883  33.363   5.312  0.00  0.00    +0.055 C 
ATOM      6  C   UNL     1     -46.670  31.831   5.678  0.00  0.00    +0.019 C 
ATOM      7  C   UNL     1     -45.901  31.812   4.296  0.00  0.00    +0.098 C 
ATOM      8  C   UNL     1     -45.338  33.228   4.834  0.00  0.00    +0.155 C 
ATOM      9  C   UNL     1     -47.716  33.297   4.018  0.00  0.00    +0.037 C 
ATOM     10  C   UNL     1     -46.964  32.173   3.250  0.00  0.00    +0.121 C 
ATOM     11  C   UNL     1     -45.806  31.360   6.836  0.00  0.00    +0.006 C 
ATOM     12  C   UNL     1     -44.893  30.760   4.073  0.00  0.00    +0.022 C 
ATOM     13  C   UNL     1     -47.993  31.069   5.769  0.00  0.00    +0.001 C 
ATOM     14  C   UNL     1     -45.226  29.994   6.466  0.00  0.00    +0.024 C 
ATOM     15  C   UNL     1     -44.592  29.912   5.081  0.00  0.00    -0.016 C 
ATOM     16  C   UNL     1     -43.633  28.760   4.924  0.00  0.00    +0.157 C 
ATOM     17  C   UNL     1     -44.188  30.764   2.758  0.00  0.00    +0.225 C 
ATOM     18  C   UNL     1     -44.098  27.806   3.833  0.00  0.00    +0.146 C 
ATOM     19  C   UNL     1     -43.975  28.265   2.388  0.00  0.00    +0.022 C 
ATOM     20  C   UNL     1     -43.987  29.532   1.930  0.00  0.00    +0.171 C 
ATOM     21  C   UNL     1     -43.720  26.971   1.582  0.00  0.00    +0.052 C 
ATOM     22  C   UNL     1     -43.882  25.930   2.704  0.00  0.00    +0.176 C 
ATOM     23  C   UNL     1     -45.484  27.183   4.089  0.00  0.00    +0.101 C 
ATOM     24  C   UNL     1     -45.279  25.935   3.277  0.00  0.00    +0.181 C 
ATOM     25  C   UNL     1     -42.274  26.903   1.060  0.00  0.00    +0.007 C 
ATOM     26  C   UNL     1     -44.716  26.698   0.446  0.00  0.00    +0.007 C 
ENDROOT
BRANCH   5  27
ATOM     27  C   UNL     1     -47.158  34.403   6.322  0.00  0.00    +0.018 C 
ATOM     28  C   UNL     1     -48.439  35.185   6.347  0.00  0.00    +0.099 C 
ATOM     29  C   UNL     1     -48.139  34.201   7.440  0.00  0.00    +0.012 C 
BRANCH  28  31
ATOM     30  O   UNL     1     -48.711  37.081   7.735  0.00  0.00    -0.250 OA
ATOM     31  C   UNL     1     -48.394  36.625   6.647  0.00  0.00    +0.313 C 
BRANCH  31  32
ATOM     32  O   UNL     1     -47.966  37.357   5.591  0.00  0.00    -0.480 OA
ATOM     33  H   UNL     1     -47.646  36.929   4.822  0.00  0.00    +0.295 HD
ENDBRANCH  31  32
ENDBRANCH  28  31
ENDBRANCH   5  27
BRANCH  10  34
ATOM     34  O   UNL     1     -47.795  31.064   2.955  0.00  0.00    -0.384 OA
ATOM     35  H   UNL     1     -48.450  30.953   3.662  0.00  0.00    +0.210 HD
ENDBRANCH  10  34
BRANCH  16  36
ATOM     36  O   UNL     1     -42.318  29.253   4.668  0.00  0.00    -0.378 OA
ATOM     37  H   UNL     1     -41.680  28.770   5.215  0.00  0.00    +0.211 HD
ENDBRANCH  16  36
BRANCH  20  38
ATOM     38  O   UNL     1     -43.773  29.837   0.595  0.00  0.00    -0.469 OA
ATOM     39  C   UNL     1     -44.995  30.135  -0.046  0.00  0.00    +0.253 C 
ENDBRANCH  20  38
TORSDOF 6
ENDMDL
