MODEL 1
REMARK VINA RESULT:      -6.9      0.000      0.000
REMARK  Name = 5464635
REMARK  5 active torsions:
REMARK  status: ('A' for Active; 'I' for Inactive)
REMARK    1  A    between atoms: C_4  and  C_19
REMARK    2  A    between atoms: C_9  and  O_24
REMARK    3  A    between atoms: C_11  and  O_26
REMARK    4  A    between atoms: C_15  and  O_28
REMARK    5  A    between atoms: C_19  and  O_22
REMARK                            x       y       z     vdW  Elec       q    Type
REMARK                         _______ _______ _______ _____ _____    ______ ____
ROOT
ATOM      1  O   UNL     1     -35.824  24.419   2.679  0.00  0.00    -0.473 OA
ATOM      2  O   UNL     1     -32.757  27.176   4.853  0.00  0.00    -0.450 OA
ATOM      3  O   UNL     1     -33.822  30.439   2.623  0.00  0.00    -0.286 OA
ATOM      4  C   UNL     1     -34.887  23.634   3.462  0.00  0.00    +0.195 C 
ATOM      5  C   UNL     1     -34.130  24.573   4.412  0.00  0.00    +0.079 C 
ATOM      6  C   UNL     1     -34.322  25.852   3.690  0.00  0.00    +0.053 A 
ATOM      7  C   UNL     1     -35.318  25.692   2.737  0.00  0.00    +0.174 A 
ATOM      8  C   UNL     1     -33.721  27.083   3.886  0.00  0.00    +0.151 A 
ATOM      9  C   UNL     1     -35.755  26.740   1.948  0.00  0.00    +0.206 A 
ATOM     10  C   UNL     1     -34.140  28.151   3.089  0.00  0.00    +0.110 A 
ATOM     11  C   UNL     1     -35.152  27.988   2.125  0.00  0.00    +0.177 A 
ATOM     12  C   UNL     1     -33.503  29.464   3.288  0.00  0.00    +0.205 A 
ATOM     13  C   UNL     1     -32.466  29.544   4.328  0.00  0.00    +0.077 A 
ATOM     14  C   UNL     1     -32.152  28.393   5.051  0.00  0.00    +0.182 A 
ATOM     15  C   UNL     1     -31.171  28.447   6.043  0.00  0.00    +0.168 C 
ATOM     16  C   UNL     1     -31.806  30.747   4.587  0.00  0.00    +0.006 C 
ATOM     17  C   UNL     1     -30.509  29.646   6.306  0.00  0.00    +0.040 C 
ATOM     18  C   UNL     1     -30.825  30.794   5.579  0.00  0.00    +0.003 C 
ENDROOT
BRANCH   4  19
ATOM     19  C   UNL     1     -35.651  22.548   4.201  0.00  0.00    +0.125 C 
ATOM     20  C   UNL     1     -35.252  22.499   5.678  0.00  0.00    +0.033 C 
ATOM     21  C   UNL     1     -35.428  21.183   3.546  0.00  0.00    +0.033 C 
BRANCH  19  22
ATOM     22  O   UNL     1     -37.050  22.833   4.124  0.00  0.00    -0.383 OA
ATOM     23  H   UNL     1     -37.180  23.782   3.974  0.00  0.00    +0.210 HD
ENDBRANCH  19  22
ENDBRANCH   4  19
BRANCH   9  24
ATOM     24  O   UNL     1     -36.736  26.555   1.028  0.00  0.00    -0.465 OA
ATOM     25  C   UNL     1     -38.084  26.588   1.497  0.00  0.00    +0.253 C 
ENDBRANCH   9  24
BRANCH  11  26
ATOM     26  O   UNL     1     -35.576  29.022   1.344  0.00  0.00    -0.503 OA
ATOM     27  H   UNL     1     -35.851  28.862   0.463  0.00  0.00    +0.292 HD
ENDBRANCH  11  26
BRANCH  15  28
ATOM     28  O   UNL     1     -30.846  27.336   6.765  0.00  0.00    -0.503 OA
ATOM     29  H   UNL     1     -30.028  27.297   7.220  0.00  0.00    +0.292 HD
ENDBRANCH  15  28
TORSDOF 5
ENDMDL
MODEL 2
REMARK VINA RESULT:      -6.7      3.584      8.292
REMARK  Name = 5464635
REMARK  5 active torsions:
REMARK  status: ('A' for Active; 'I' for Inactive)
REMARK    1  A    between atoms: C_4  and  C_19
REMARK    2  A    between atoms: C_9  and  O_24
REMARK    3  A    between atoms: C_11  and  O_26
REMARK    4  A    between atoms: C_15  and  O_28
REMARK    5  A    between atoms: C_19  and  O_22
REMARK                            x       y       z     vdW  Elec       q    Type
REMARK                         _______ _______ _______ _____ _____    ______ ____
ROOT
ATOM      1  O   UNL     1     -37.736  24.759   3.931  0.00  0.00    -0.473 OA
ATOM      2  O   UNL     1     -35.820  21.072   1.818  0.00  0.00    -0.450 OA
ATOM      3  O   UNL     1     -39.321  20.091  -0.062  0.00  0.00    -0.286 OA
ATOM      4  C   UNL     1     -36.445  24.442   4.514  0.00  0.00    +0.195 C 
ATOM      5  C   UNL     1     -35.711  23.464   3.585  0.00  0.00    +0.079 C 
ATOM      6  C   UNL     1     -36.875  22.906   2.857  0.00  0.00    +0.053 A 
ATOM      7  C   UNL     1     -37.983  23.710   3.083  0.00  0.00    +0.174 A 
ATOM      8  C   UNL     1     -36.954  21.815   2.009  0.00  0.00    +0.151 A 
ATOM      9  C   UNL     1     -39.202  23.467   2.479  0.00  0.00    +0.206 A 
ATOM     10  C   UNL     1     -38.181  21.544   1.401  0.00  0.00    +0.110 A 
ATOM     11  C   UNL     1     -39.303  22.363   1.629  0.00  0.00    +0.177 A 
ATOM     12  C   UNL     1     -38.276  20.384   0.501  0.00  0.00    +0.205 A 
ATOM     13  C   UNL     1     -37.049  19.594   0.311  0.00  0.00    +0.077 A 
ATOM     14  C   UNL     1     -35.890  19.984   0.982  0.00  0.00    +0.182 A 
ATOM     15  C   UNL     1     -34.715  19.250   0.816  0.00  0.00    +0.168 C 
ATOM     16  C   UNL     1     -37.043  18.474  -0.524  0.00  0.00    +0.006 C 
ATOM     17  C   UNL     1     -34.702  18.131  -0.017  0.00  0.00    +0.040 C 
ATOM     18  C   UNL     1     -35.864  17.743  -0.686  0.00  0.00    +0.003 C 
ENDROOT
BRANCH   4  19
ATOM     19  C   UNL     1     -35.672  25.733   4.729  0.00  0.00    +0.125 C 
ATOM     20  C   UNL     1     -35.229  26.341   3.396  0.00  0.00    +0.033 C 
ATOM     21  C   UNL     1     -34.459  25.497   5.633  0.00  0.00    +0.033 C 
BRANCH  19  22
ATOM     22  O   UNL     1     -36.519  26.675   5.392  0.00  0.00    -0.383 OA
ATOM     23  H   UNL     1     -37.175  27.018   4.765  0.00  0.00    +0.210 HD
ENDBRANCH  19  22
ENDBRANCH   4  19
BRANCH   9  24
ATOM     24  O   UNL     1     -40.267  24.276   2.714  0.00  0.00    -0.465 OA
ATOM     25  C   UNL     1     -40.399  25.436   1.892  0.00  0.00    +0.253 C 
ENDBRANCH   9  24
BRANCH  11  26
ATOM     26  O   UNL     1     -40.506  22.116   1.037  0.00  0.00    -0.503 OA
ATOM     27  H   UNL     1     -40.659  21.297   0.608  0.00  0.00    +0.292 HD
ENDBRANCH  11  26
BRANCH  15  28
ATOM     28  O   UNL     1     -33.568  19.611   1.460  0.00  0.00    -0.503 OA
ATOM     29  H   UNL     1     -32.785  19.110   1.338  0.00  0.00    +0.292 HD
ENDBRANCH  15  28
TORSDOF 5
ENDMDL
MODEL 3
REMARK VINA RESULT:      -6.6      4.079      7.308
REMARK  Name = 5464635
REMARK  5 active torsions:
REMARK  status: ('A' for Active; 'I' for Inactive)
REMARK    1  A    between atoms: C_4  and  C_19
REMARK    2  A    between atoms: C_9  and  O_24
REMARK    3  A    between atoms: C_11  and  O_26
REMARK    4  A    between atoms: C_15  and  O_28
REMARK    5  A    between atoms: C_19  and  O_22
REMARK                            x       y       z     vdW  Elec       q    Type
REMARK                         _______ _______ _______ _____ _____    ______ ____
ROOT
ATOM      1  O   UNL     1     -41.867  24.789   1.098  0.00  0.00    -0.473 OA
ATOM      2  O   UNL     1     -38.012  25.139   3.697  0.00  0.00    -0.450 OA
ATOM      3  O   UNL     1     -36.737  21.393   2.649  0.00  0.00    -0.286 OA
ATOM      4  C   UNL     1     -41.951  25.925   1.998  0.00  0.00    +0.195 C 
ATOM      5  C   UNL     1     -40.555  26.202   2.575  0.00  0.00    +0.079 C 
ATOM      6  C   UNL     1     -39.942  24.869   2.370  0.00  0.00    +0.053 A 
ATOM      7  C   UNL     1     -40.733  24.132   1.500  0.00  0.00    +0.174 A 
ATOM      8  C   UNL     1     -38.753  24.353   2.855  0.00  0.00    +0.151 A 
ATOM      9  C   UNL     1     -40.376  22.865   1.078  0.00  0.00    +0.206 A 
ATOM     10  C   UNL     1     -38.381  23.070   2.450  0.00  0.00    +0.110 A 
ATOM     11  C   UNL     1     -39.183  22.325   1.565  0.00  0.00    +0.177 A 
ATOM     12  C   UNL     1     -37.119  22.511   2.962  0.00  0.00    +0.205 A 
ATOM     13  C   UNL     1     -36.340  23.367   3.870  0.00  0.00    +0.077 A 
ATOM     14  C   UNL     1     -36.833  24.634   4.186  0.00  0.00    +0.182 A 
ATOM     15  C   UNL     1     -36.109  25.462   5.045  0.00  0.00    +0.168 C 
ATOM     16  C   UNL     1     -35.130  22.922   4.408  0.00  0.00    +0.006 C 
ATOM     17  C   UNL     1     -34.900  25.023   5.584  0.00  0.00    +0.040 C 
ATOM     18  C   UNL     1     -34.411  23.755   5.267  0.00  0.00    +0.003 C 
ENDROOT
BRANCH   4  19
ATOM     19  C   UNL     1     -42.515  27.115   1.239  0.00  0.00    +0.125 C 
ATOM     20  C   UNL     1     -43.827  27.597   1.862  0.00  0.00    +0.033 C 
ATOM     21  C   UNL     1     -42.724  26.769  -0.237  0.00  0.00    +0.033 C 
BRANCH  19  22
ATOM     22  O   UNL     1     -41.572  28.188   1.294  0.00  0.00    -0.383 OA
ATOM     23  H   UNL     1     -41.271  28.402   0.396  0.00  0.00    +0.210 HD
ENDBRANCH  19  22
ENDBRANCH   4  19
BRANCH   9  24
ATOM     24  O   UNL     1     -41.166  22.170   0.220  0.00  0.00    -0.465 OA
ATOM     25  C   UNL     1     -40.971  22.397  -1.176  0.00  0.00    +0.253 C 
ENDBRANCH   9  24
BRANCH  11  26
ATOM     26  O   UNL     1     -38.831  21.073   1.155  0.00  0.00    -0.503 OA
ATOM     27  H   UNL     1     -39.360  20.336   1.391  0.00  0.00    +0.292 HD
ENDBRANCH  11  26
BRANCH  15  28
ATOM     28  O   UNL     1     -36.568  26.705   5.369  0.00  0.00    -0.503 OA
ATOM     29  H   UNL     1     -37.438  26.959   5.131  0.00  0.00    +0.292 HD
ENDBRANCH  15  28
TORSDOF 5
ENDMDL
MODEL 4
REMARK VINA RESULT:      -6.4      2.629      4.459
REMARK  Name = 5464635
REMARK  5 active torsions:
REMARK  status: ('A' for Active; 'I' for Inactive)
REMARK    1  A    between atoms: C_4  and  C_19
REMARK    2  A    between atoms: C_9  and  O_24
REMARK    3  A    between atoms: C_11  and  O_26
REMARK    4  A    between atoms: C_15  and  O_28
REMARK    5  A    between atoms: C_19  and  O_22
REMARK                            x       y       z     vdW  Elec       q    Type
REMARK                         _______ _______ _______ _____ _____    ______ ____
ROOT
ATOM      1  O   UNL     1     -36.109  21.942   3.334  0.00  0.00    -0.473 OA
ATOM      2  O   UNL     1     -33.604  25.291   1.275  0.00  0.00    -0.450 OA
ATOM      3  O   UNL     1     -33.331  27.472   4.728  0.00  0.00    -0.286 OA
ATOM      4  C   UNL     1     -36.144  21.800   1.890  0.00  0.00    +0.195 C 
ATOM      5  C   UNL     1     -35.053  22.692   1.279  0.00  0.00    +0.079 C 
ATOM      6  C   UNL     1     -34.880  23.654   2.393  0.00  0.00    +0.053 A 
ATOM      7  C   UNL     1     -35.486  23.147   3.533  0.00  0.00    +0.174 A 
ATOM      8  C   UNL     1     -34.193  24.855   2.431  0.00  0.00    +0.151 A 
ATOM      9  C   UNL     1     -35.433  23.805   4.748  0.00  0.00    +0.206 A 
ATOM     10  C   UNL     1     -34.139  25.541   3.646  0.00  0.00    +0.110 A 
ATOM     11  C   UNL     1     -34.752  25.023   4.802  0.00  0.00    +0.177 A 
ATOM     12  C   UNL     1     -33.414  26.821   3.696  0.00  0.00    +0.205 A 
ATOM     13  C   UNL     1     -32.793  27.277   2.443  0.00  0.00    +0.077 A 
ATOM     14  C   UNL     1     -32.924  26.484   1.302  0.00  0.00    +0.182 A 
ATOM     15  C   UNL     1     -32.342  26.897   0.103  0.00  0.00    +0.168 C 
ATOM     16  C   UNL     1     -32.084  28.480   2.393  0.00  0.00    +0.006 C 
ATOM     17  C   UNL     1     -31.633  28.097   0.048  0.00  0.00    +0.040 C 
ATOM     18  C   UNL     1     -31.505  28.887   1.190  0.00  0.00    +0.003 C 
ENDROOT
BRANCH   4  19
ATOM     19  C   UNL     1     -35.965  20.333   1.534  0.00  0.00    +0.125 C 
ATOM     20  C   UNL     1     -34.512  19.891   1.727  0.00  0.00    +0.033 C 
ATOM     21  C   UNL     1     -36.416  20.062   0.097  0.00  0.00    +0.033 C 
BRANCH  19  22
ATOM     22  O   UNL     1     -36.791  19.544   2.394  0.00  0.00    -0.383 OA
ATOM     23  H   UNL     1     -36.869  18.647   2.035  0.00  0.00    +0.210 HD
ENDBRANCH  19  22
ENDBRANCH   4  19
BRANCH   9  24
ATOM     24  O   UNL     1     -36.030  23.280   5.849  0.00  0.00    -0.465 OA
ATOM     25  C   UNL     1     -35.376  22.182   6.485  0.00  0.00    +0.253 C 
ENDBRANCH   9  24
BRANCH  11  26
ATOM     26  O   UNL     1     -34.704  25.678   5.998  0.00  0.00    -0.503 OA
ATOM     27  H   UNL     1     -35.176  25.344   6.735  0.00  0.00    +0.292 HD
ENDBRANCH  11  26
BRANCH  15  28
ATOM     28  O   UNL     1     -32.455  26.140  -1.026  0.00  0.00    -0.503 OA
ATOM     29  H   UNL     1     -32.218  26.501  -1.857  0.00  0.00    +0.292 HD
ENDBRANCH  15  28
TORSDOF 5
ENDMDL
MODEL 5
REMARK VINA RESULT:      -6.4      3.697      7.824
REMARK  Name = 5464635
REMARK  5 active torsions:
REMARK  status: ('A' for Active; 'I' for Inactive)
REMARK    1  A    between atoms: C_4  and  C_19
REMARK    2  A    between atoms: C_9  and  O_24
REMARK    3  A    between atoms: C_11  and  O_26
REMARK    4  A    between atoms: C_15  and  O_28
REMARK    5  A    between atoms: C_19  and  O_22
REMARK                            x       y       z     vdW  Elec       q    Type
REMARK                         _______ _______ _______ _____ _____    ______ ____
ROOT
ATOM      1  O   UNL     1     -35.749  23.749   2.942  0.00  0.00    -0.473 OA
ATOM      2  O   UNL     1     -39.883  25.886   3.230  0.00  0.00    -0.450 OA
ATOM      3  O   UNL     1     -41.542  23.476   0.368  0.00  0.00    -0.286 OA
ATOM      4  C   UNL     1     -35.639  24.990   3.686  0.00  0.00    +0.195 C 
ATOM      5  C   UNL     1     -37.050  25.477   4.047  0.00  0.00    +0.079 C 
ATOM      6  C   UNL     1     -37.824  24.760   3.007  0.00  0.00    +0.053 A 
ATOM      7  C   UNL     1     -37.026  23.776   2.441  0.00  0.00    +0.174 A 
ATOM      8  C   UNL     1     -39.145  24.907   2.621  0.00  0.00    +0.151 A 
ATOM      9  C   UNL     1     -37.503  22.905   1.479  0.00  0.00    +0.206 A 
ATOM     10  C   UNL     1     -39.643  24.045   1.641  0.00  0.00    +0.110 A 
ATOM     11  C   UNL     1     -38.832  23.046   1.071  0.00  0.00    +0.177 A 
ATOM     12  C   UNL     1     -41.045  24.196   1.222  0.00  0.00    +0.205 A 
ATOM     13  C   UNL     1     -41.820  25.257   1.883  0.00  0.00    +0.077 A 
ATOM     14  C   UNL     1     -41.193  26.043   2.851  0.00  0.00    +0.182 A 
ATOM     15  C   UNL     1     -41.910  27.055   3.491  0.00  0.00    +0.168 C 
ATOM     16  C   UNL     1     -43.160  25.477   1.550  0.00  0.00    +0.006 C 
ATOM     17  C   UNL     1     -43.248  27.278   3.163  0.00  0.00    +0.040 C 
ATOM     18  C   UNL     1     -43.871  26.491   2.194  0.00  0.00    +0.003 C 
ENDROOT
BRANCH   4  19
ATOM     19  C   UNL     1     -34.773  24.754   4.913  0.00  0.00    +0.125 C 
ATOM     20  C   UNL     1     -35.115  23.422   5.583  0.00  0.00    +0.033 C 
ATOM     21  C   UNL     1     -34.919  25.904   5.912  0.00  0.00    +0.033 C 
BRANCH  19  22
ATOM     22  O   UNL     1     -33.401  24.714   4.509  0.00  0.00    -0.383 OA
ATOM     23  H   UNL     1     -33.067  25.619   4.405  0.00  0.00    +0.210 HD
ENDBRANCH  19  22
ENDBRANCH   4  19
BRANCH   9  24
ATOM     24  O   UNL     1     -36.700  21.948   0.949  0.00  0.00    -0.465 OA
ATOM     25  C   UNL     1     -36.620  20.704   1.644  0.00  0.00    +0.253 C 
ENDBRANCH   9  24
BRANCH  11  26
ATOM     26  O   UNL     1     -39.304  22.193   0.118  0.00  0.00    -0.503 OA
ATOM     27  H   UNL     1     -40.227  22.087  -0.001  0.00  0.00    +0.292 HD
ENDBRANCH  11  26
BRANCH  15  28
ATOM     28  O   UNL     1     -41.320  27.836   4.441  0.00  0.00    -0.503 OA
ATOM     29  H   UNL     1     -40.475  28.208   4.282  0.00  0.00    +0.292 HD
ENDBRANCH  15  28
TORSDOF 5
ENDMDL
MODEL 6
REMARK VINA RESULT:      -6.3      2.316      4.914
REMARK  Name = 5464635
REMARK  5 active torsions:
REMARK  status: ('A' for Active; 'I' for Inactive)
REMARK    1  A    between atoms: C_4  and  C_19
REMARK    2  A    between atoms: C_9  and  O_24
REMARK    3  A    between atoms: C_11  and  O_26
REMARK    4  A    between atoms: C_15  and  O_28
REMARK    5  A    between atoms: C_19  and  O_22
REMARK                            x       y       z     vdW  Elec       q    Type
REMARK                         _______ _______ _______ _____ _____    ______ ____
ROOT
ATOM      1  O   UNL     1     -37.491  22.366   3.272  0.00  0.00    -0.473 OA
ATOM      2  O   UNL     1     -36.625  26.807   2.149  0.00  0.00    -0.450 OA
ATOM      3  O   UNL     1     -33.253  26.934   4.466  0.00  0.00    -0.286 OA
ATOM      4  C   UNL     1     -38.640  22.969   2.622  0.00  0.00    +0.195 C 
ATOM      5  C   UNL     1     -38.204  24.290   1.974  0.00  0.00    +0.079 C 
ATOM      6  C   UNL     1     -36.994  24.567   2.784  0.00  0.00    +0.053 A 
ATOM      7  C   UNL     1     -36.635  23.419   3.475  0.00  0.00    +0.174 A 
ATOM      8  C   UNL     1     -36.223  25.713   2.868  0.00  0.00    +0.151 A 
ATOM      9  C   UNL     1     -35.505  23.362   4.269  0.00  0.00    +0.206 A 
ATOM     10  C   UNL     1     -35.085  25.680   3.676  0.00  0.00    +0.110 A 
ATOM     11  C   UNL     1     -34.721  24.513   4.374  0.00  0.00    +0.177 A 
ATOM     12  C   UNL     1     -34.261  26.896   3.775  0.00  0.00    +0.205 A 
ATOM     13  C   UNL     1     -34.710  28.062   3.000  0.00  0.00    +0.077 A 
ATOM     14  C   UNL     1     -35.869  27.950   2.230  0.00  0.00    +0.182 A 
ATOM     15  C   UNL     1     -36.312  29.045   1.486  0.00  0.00    +0.168 C 
ATOM     16  C   UNL     1     -33.993  29.261   3.032  0.00  0.00    +0.006 C 
ATOM     17  C   UNL     1     -35.600  30.244   1.515  0.00  0.00    +0.040 C 
ATOM     18  C   UNL     1     -34.443  30.352   2.287  0.00  0.00    +0.003 C 
ENDROOT
BRANCH   4  19
ATOM     19  C   UNL     1     -39.208  21.984   1.614  0.00  0.00    +0.125 C 
ATOM     20  C   UNL     1     -38.094  21.189   0.930  0.00  0.00    +0.033 C 
ATOM     21  C   UNL     1     -40.063  22.706   0.569  0.00  0.00    +0.033 C 
BRANCH  19  22
ATOM     22  O   UNL     1     -40.062  21.062   2.297  0.00  0.00    -0.383 OA
ATOM     23  H   UNL     1     -40.986  21.239   2.059  0.00  0.00    +0.210 HD
ENDBRANCH  19  22
ENDBRANCH   4  19
BRANCH   9  24
ATOM     24  O   UNL     1     -35.175  22.221   4.927  0.00  0.00    -0.465 OA
ATOM     25  C   UNL     1     -35.563  22.124   6.298  0.00  0.00    +0.253 C 
ENDBRANCH   9  24
BRANCH  11  26
ATOM     26  O   UNL     1     -33.609  24.463   5.161  0.00  0.00    -0.503 OA
ATOM     27  H   UNL     1     -32.804  24.837   4.861  0.00  0.00    +0.292 HD
ENDBRANCH  11  26
BRANCH  15  28
ATOM     28  O   UNL     1     -37.442  28.961   0.726  0.00  0.00    -0.503 OA
ATOM     29  H   UNL     1     -38.100  29.625   0.790  0.00  0.00    +0.292 HD
ENDBRANCH  15  28
TORSDOF 5
ENDMDL
MODEL 7
REMARK VINA RESULT:      -6.2      4.341      8.224
REMARK  Name = 5464635
REMARK  5 active torsions:
REMARK  status: ('A' for Active; 'I' for Inactive)
REMARK    1  A    between atoms: C_4  and  C_19
REMARK    2  A    between atoms: C_9  and  O_24
REMARK    3  A    between atoms: C_11  and  O_26
REMARK    4  A    between atoms: C_15  and  O_28
REMARK    5  A    between atoms: C_19  and  O_22
REMARK                            x       y       z     vdW  Elec       q    Type
REMARK                         _______ _______ _______ _____ _____    ______ ____
ROOT
ATOM      1  O   UNL     1     -37.137  23.803   2.654  0.00  0.00    -0.473 OA
ATOM      2  O   UNL     1     -40.843  26.558   3.297  0.00  0.00    -0.450 OA
ATOM      3  O   UNL     1     -43.113  24.448   0.624  0.00  0.00    -0.286 OA
ATOM      4  C   UNL     1     -36.767  25.009   3.372  0.00  0.00    +0.195 C 
ATOM      5  C   UNL     1     -38.045  25.709   3.854  0.00  0.00    +0.079 C 
ATOM      6  C   UNL     1     -39.014  25.125   2.898  0.00  0.00    +0.053 A 
ATOM      7  C   UNL     1     -38.434  24.031   2.271  0.00  0.00    +0.174 A 
ATOM      8  C   UNL     1     -40.326  25.478   2.633  0.00  0.00    +0.151 A 
ATOM      9  C   UNL     1     -39.128  23.249   1.366  0.00  0.00    +0.206 A 
ATOM     10  C   UNL     1     -41.040  24.708   1.712  0.00  0.00    +0.110 A 
ATOM     11  C   UNL     1     -40.450  23.598   1.080  0.00  0.00    +0.177 A 
ATOM     12  C   UNL     1     -42.434  25.079   1.421  0.00  0.00    +0.205 A 
ATOM     13  C   UNL     1     -42.971  26.245   2.140  0.00  0.00    +0.077 A 
ATOM     14  C   UNL     1     -42.142  26.919   3.037  0.00  0.00    +0.182 A 
ATOM     15  C   UNL     1     -42.631  28.028   3.730  0.00  0.00    +0.168 C 
ATOM     16  C   UNL     1     -44.284  26.672   1.928  0.00  0.00    +0.006 C 
ATOM     17  C   UNL     1     -43.941  28.458   3.523  0.00  0.00    +0.040 C 
ATOM     18  C   UNL     1     -44.766  27.782   2.624  0.00  0.00    +0.003 C 
ENDROOT
BRANCH   4  19
ATOM     19  C   UNL     1     -35.839  24.636   4.516  0.00  0.00    +0.125 C 
ATOM     20  C   UNL     1     -35.817  25.727   5.589  0.00  0.00    +0.033 C 
ATOM     21  C   UNL     1     -34.422  24.369   4.003  0.00  0.00    +0.033 C 
BRANCH  19  22
ATOM     22  O   UNL     1     -36.308  23.426   5.117  0.00  0.00    -0.383 OA
ATOM     23  H   UNL     1     -36.195  23.477   6.079  0.00  0.00    +0.210 HD
ENDBRANCH  19  22
ENDBRANCH   4  19
BRANCH   9  24
ATOM     24  O   UNL     1     -38.536  22.180   0.774  0.00  0.00    -0.465 OA
ATOM     25  C   UNL     1     -37.783  22.426  -0.413  0.00  0.00    +0.253 C 
ENDBRANCH   9  24
BRANCH  11  26
ATOM     26  O   UNL     1     -41.135  22.833   0.183  0.00  0.00    -0.503 OA
ATOM     27  H   UNL     1     -40.686  22.444  -0.543  0.00  0.00    +0.292 HD
ENDBRANCH  11  26
BRANCH  15  28
ATOM     28  O   UNL     1     -41.842  28.704   4.613  0.00  0.00    -0.503 OA
ATOM     29  H   UNL     1     -42.139  29.511   4.984  0.00  0.00    +0.292 HD
ENDBRANCH  15  28
TORSDOF 5
ENDMDL
MODEL 8
REMARK VINA RESULT:      -6.1      2.123      7.644
REMARK  Name = 5464635
REMARK  5 active torsions:
REMARK  status: ('A' for Active; 'I' for Inactive)
REMARK    1  A    between atoms: C_4  and  C_19
REMARK    2  A    between atoms: C_9  and  O_24
REMARK    3  A    between atoms: C_11  and  O_26
REMARK    4  A    between atoms: C_15  and  O_28
REMARK    5  A    between atoms: C_19  and  O_22
REMARK                            x       y       z     vdW  Elec       q    Type
REMARK                         _______ _______ _______ _____ _____    ______ ____
ROOT
ATOM      1  O   UNL     1     -33.790  28.409   3.697  0.00  0.00    -0.473 OA
ATOM      2  O   UNL     1     -37.420  26.082   1.924  0.00  0.00    -0.450 OA
ATOM      3  O   UNL     1     -36.552  22.710   4.076  0.00  0.00    -0.286 OA
ATOM      4  C   UNL     1     -34.345  29.110   2.554  0.00  0.00    +0.195 C 
ATOM      5  C   UNL     1     -35.716  28.504   2.221  0.00  0.00    +0.079 C 
ATOM      6  C   UNL     1     -35.553  27.177   2.859  0.00  0.00    +0.053 A 
ATOM      7  C   UNL     1     -34.452  27.208   3.703  0.00  0.00    +0.174 A 
ATOM      8  C   UNL     1     -36.339  26.041   2.763  0.00  0.00    +0.151 A 
ATOM      9  C   UNL     1     -34.091  26.124   4.480  0.00  0.00    +0.206 A 
ATOM     10  C   UNL     1     -35.983  24.931   3.531  0.00  0.00    +0.110 A 
ATOM     11  C   UNL     1     -34.867  24.966   4.388  0.00  0.00    +0.177 A 
ATOM     12  C   UNL     1     -36.810  23.717   3.433  0.00  0.00    +0.205 A 
ATOM     13  C   UNL     1     -37.964  23.778   2.523  0.00  0.00    +0.077 A 
ATOM     14  C   UNL     1     -38.203  24.959   1.819  0.00  0.00    +0.182 A 
ATOM     15  C   UNL     1     -39.293  25.038   0.951  0.00  0.00    +0.168 C 
ATOM     16  C   UNL     1     -38.807  22.674   2.363  0.00  0.00    +0.006 C 
ATOM     17  C   UNL     1     -40.137  23.940   0.788  0.00  0.00    +0.040 C 
ATOM     18  C   UNL     1     -39.894  22.760   1.493  0.00  0.00    +0.003 C 
ENDROOT
BRANCH   4  19
ATOM     19  C   UNL     1     -34.425  30.593   2.875  0.00  0.00    +0.125 C 
ATOM     20  C   UNL     1     -34.660  31.421   1.610  0.00  0.00    +0.033 C 
ATOM     21  C   UNL     1     -33.157  31.065   3.590  0.00  0.00    +0.033 C 
BRANCH  19  22
ATOM     22  O   UNL     1     -35.522  30.815   3.766  0.00  0.00    -0.383 OA
ATOM     23  H   UNL     1     -36.224  31.296   3.301  0.00  0.00    +0.210 HD
ENDBRANCH  19  22
ENDBRANCH   4  19
BRANCH   9  24
ATOM     24  O   UNL     1     -33.012  26.186   5.302  0.00  0.00    -0.465 OA
ATOM     25  C   UNL     1     -33.208  26.763   6.593  0.00  0.00    +0.253 C 
ENDBRANCH   9  24
BRANCH  11  26
ATOM     26  O   UNL     1     -34.510  23.892   5.149  0.00  0.00    -0.503 OA
ATOM     27  H   UNL     1     -33.605  23.719   5.321  0.00  0.00    +0.292 HD
ENDBRANCH  11  26
BRANCH  15  28
ATOM     28  O   UNL     1     -39.548  26.181   0.252  0.00  0.00    -0.503 OA
ATOM     29  H   UNL     1     -39.727  26.138  -0.666  0.00  0.00    +0.292 HD
ENDBRANCH  15  28
TORSDOF 5
ENDMDL
MODEL 9
REMARK VINA RESULT:      -6.1      4.770      7.970
REMARK  Name = 5464635
REMARK  5 active torsions:
REMARK  status: ('A' for Active; 'I' for Inactive)
REMARK    1  A    between atoms: C_4  and  C_19
REMARK    2  A    between atoms: C_9  and  O_24
REMARK    3  A    between atoms: C_11  and  O_26
REMARK    4  A    between atoms: C_15  and  O_28
REMARK    5  A    between atoms: C_19  and  O_22
REMARK                            x       y       z     vdW  Elec       q    Type
REMARK                         _______ _______ _______ _____ _____    ______ ____
ROOT
ATOM      1  O   UNL     1     -35.456  21.787   2.955  0.00  0.00    -0.473 OA
ATOM      2  O   UNL     1     -39.594  22.989   1.174  0.00  0.00    -0.450 OA
ATOM      3  O   UNL     1     -39.732  26.458   3.344  0.00  0.00    -0.286 OA
ATOM      4  C   UNL     1     -36.065  20.668   2.260  0.00  0.00    +0.195 C 
ATOM      5  C   UNL     1     -37.236  21.189   1.414  0.00  0.00    +0.079 C 
ATOM      6  C   UNL     1     -37.510  22.453   2.138  0.00  0.00    +0.053 A 
ATOM      7  C   UNL     1     -36.443  22.740   2.977  0.00  0.00    +0.174 A 
ATOM      8  C   UNL     1     -38.580  23.324   2.032  0.00  0.00    +0.151 A 
ATOM      9  C   UNL     1     -36.393  23.894   3.735  0.00  0.00    +0.206 A 
ATOM     10  C   UNL     1     -38.555  24.490   2.800  0.00  0.00    +0.110 A 
ATOM     11  C   UNL     1     -37.470  24.780   3.648  0.00  0.00    +0.177 A 
ATOM     12  C   UNL     1     -39.691  25.421   2.697  0.00  0.00    +0.205 A 
ATOM     13  C   UNL     1     -40.773  25.042   1.775  0.00  0.00    +0.077 A 
ATOM     14  C   UNL     1     -40.662  23.846   1.066  0.00  0.00    +0.182 A 
ATOM     15  C   UNL     1     -41.677  23.468   0.186  0.00  0.00    +0.168 C 
ATOM     16  C   UNL     1     -41.892  25.863   1.612  0.00  0.00    +0.006 C 
ATOM     17  C   UNL     1     -42.796  24.283   0.018  0.00  0.00    +0.040 C 
ATOM     18  C   UNL     1     -42.903  25.478   0.730  0.00  0.00    +0.003 C 
ENDROOT
BRANCH   4  19
ATOM     19  C   UNL     1     -35.005  19.972   1.422  0.00  0.00    +0.125 C 
ATOM     20  C   UNL     1     -34.098  20.987   0.724  0.00  0.00    +0.033 C 
ATOM     21  C   UNL     1     -35.649  19.040   0.393  0.00  0.00    +0.033 C 
BRANCH  19  22
ATOM     22  O   UNL     1     -34.195  19.162   2.280  0.00  0.00    -0.383 OA
ATOM     23  H   UNL     1     -34.389  18.226   2.118  0.00  0.00    +0.210 HD
ENDBRANCH  19  22
ENDBRANCH   4  19
BRANCH   9  24
ATOM     24  O   UNL     1     -35.332  24.151   4.542  0.00  0.00    -0.465 OA
ATOM     25  C   UNL     1     -35.298  23.490   5.807  0.00  0.00    +0.253 C 
ENDBRANCH   9  24
BRANCH  11  26
ATOM     26  O   UNL     1     -37.428  25.917   4.400  0.00  0.00    -0.503 OA
ATOM     27  H   UNL     1     -37.396  25.860   5.336  0.00  0.00    +0.292 HD
ENDBRANCH  11  26
BRANCH  15  28
ATOM     28  O   UNL     1     -41.592  22.304  -0.520  0.00  0.00    -0.503 OA
ATOM     29  H   UNL     1     -41.346  22.320  -1.424  0.00  0.00    +0.292 HD
ENDBRANCH  15  28
TORSDOF 5
ENDMDL
