MODEL 1
REMARK VINA RESULT:      -6.6      0.000      0.000
REMARK  Name = 56838711
REMARK  5 active torsions:
REMARK  status: ('A' for Active; 'I' for Inactive)
REMARK    1  A    between atoms: N_2  and  C_8
REMARK    2  A    between atoms: C_3  and  C_16
REMARK    3  A    between atoms: C_17  and  C_18
REMARK    4  A    between atoms: C_21  and  O_26
REMARK    5  A    between atoms: C_22  and  O_24
REMARK                            x       y       z     vdW  Elec       q    Type
REMARK                         _______ _______ _______ _____ _____    ______ ____
ROOT
ATOM      1  O   UNL     1     -32.884  27.606   6.522  0.00  0.00    -0.270 OA
ATOM      2  N   UNL     1     -33.004  28.545   4.399  0.00  0.00    -0.287 N 
ATOM      3  C   UNL     1     -33.071  27.504   5.314  0.00  0.00    +0.247 C 
ATOM      4  H   UNL     1     -33.173  28.345   3.449  0.00  0.00    +0.151 HD
ENDROOT
BRANCH   2   8
ATOM      5  N   UNL     1     -32.961  30.785   3.637  0.00  0.00    -0.268 N 
ATOM      6  N   UNL     1     -34.184  32.055   2.195  0.00  0.00    -0.331 N 
ATOM      7  N   UNL     1     -35.289  30.697   3.760  0.00  0.00    -0.273 NA
ATOM      8  C   UNL     1     -32.697  29.902   4.768  0.00  0.00    +0.151 C 
ATOM      9  C   UNL     1     -31.209  30.102   5.052  0.00  0.00    +0.042 C 
ATOM     10  C   UNL     1     -30.633  30.435   3.682  0.00  0.00    +0.025 C 
ATOM     11  C   UNL     1     -31.726  31.288   3.048  0.00  0.00    +0.095 C 
ATOM     12  C   UNL     1     -34.192  31.154   3.227  0.00  0.00    +0.175 C 
ATOM     13  H   UNL     1     -33.328  32.372   1.825  0.00  0.00    +0.145 HD
ATOM     14  H   UNL     1     -35.033  32.387   1.825  0.00  0.00    +0.145 HD
ATOM     15  H   UNL     1     -35.244  30.050   4.501  0.00  0.00    +0.189 HD
ENDBRANCH   2   8
BRANCH   3  16
ATOM     16  C   UNL     1     -33.408  26.206   4.662  0.00  0.00    +0.058 C 
ATOM     17  C   UNL     1     -34.295  25.379   5.235  0.00  0.00    +0.005 C 
BRANCH  17  18
ATOM     18  C   UNL     1     -34.708  24.080   4.676  0.00  0.00    +0.003 C 
ATOM     19  C   UNL     1     -34.881  22.982   5.520  0.00  0.00    +0.040 C 
ATOM     20  C   UNL     1     -34.926  23.947   3.306  0.00  0.00    +0.003 C 
ATOM     21  C   UNL     1     -35.272  21.751   4.992  0.00  0.00    +0.168 C 
ATOM     22  C   UNL     1     -35.490  21.619   3.620  0.00  0.00    +0.172 C 
ATOM     23  C   UNL     1     -35.318  22.716   2.778  0.00  0.00    +0.040 C 
BRANCH  22  24
ATOM     24  O   UNL     1     -35.872  20.422   3.092  0.00  0.00    -0.468 OA
ATOM     25  C   UNL     1     -36.499  20.451   1.811  0.00  0.00    +0.253 C 
ENDBRANCH  22  24
BRANCH  21  26
ATOM     26  O   UNL     1     -35.438  20.687   5.825  0.00  0.00    -0.503 OA
ATOM     27  H   UNL     1     -36.035  20.001   5.597  0.00  0.00    +0.292 HD
ENDBRANCH  21  26
ENDBRANCH  17  18
ENDBRANCH   3  16
TORSDOF 5
ENDMDL
MODEL 2
REMARK VINA RESULT:      -6.6      3.747      5.747
REMARK  Name = 56838711
REMARK  5 active torsions:
REMARK  status: ('A' for Active; 'I' for Inactive)
REMARK    1  A    between atoms: N_2  and  C_8
REMARK    2  A    between atoms: C_3  and  C_16
REMARK    3  A    between atoms: C_17  and  C_18
REMARK    4  A    between atoms: C_21  and  O_26
REMARK    5  A    between atoms: C_22  and  O_24
REMARK                            x       y       z     vdW  Elec       q    Type
REMARK                         _______ _______ _______ _____ _____    ______ ____
ROOT
ATOM      1  O   UNL     1     -35.932  22.125   6.192  0.00  0.00    -0.270 OA
ATOM      2  N   UNL     1     -35.405  23.516   4.406  0.00  0.00    -0.287 N 
ATOM      3  C   UNL     1     -35.551  22.289   5.038  0.00  0.00    +0.247 C 
ATOM      4  H   UNL     1     -35.090  23.527   3.473  0.00  0.00    +0.151 HD
ENDROOT
BRANCH   2   8
ATOM      5  N   UNL     1     -36.222  25.711   4.065  0.00  0.00    -0.268 N 
ATOM      6  N   UNL     1     -37.769  26.698   2.717  0.00  0.00    -0.331 N 
ATOM      7  N   UNL     1     -38.322  24.718   3.851  0.00  0.00    -0.273 NA
ATOM      8  C   UNL     1     -35.689  24.773   5.047  0.00  0.00    +0.151 C 
ATOM      9  C   UNL     1     -34.424  25.459   5.563  0.00  0.00    +0.042 C 
ATOM     10  C   UNL     1     -33.955  26.273   4.364  0.00  0.00    +0.025 C 
ATOM     11  C   UNL     1     -35.261  26.762   3.748  0.00  0.00    +0.095 C 
ATOM     12  C   UNL     1     -37.472  25.662   3.563  0.00  0.00    +0.175 C 
ATOM     13  H   UNL     1     -37.093  27.389   2.529  0.00  0.00    +0.145 HD
ATOM     14  H   UNL     1     -38.658  26.753   2.298  0.00  0.00    +0.145 HD
ATOM     15  H   UNL     1     -38.063  23.993   4.465  0.00  0.00    +0.189 HD
ENDBRANCH   2   8
BRANCH   3  16
ATOM     16  C   UNL     1     -35.189  21.153   4.144  0.00  0.00    +0.058 C 
ATOM     17  C   UNL     1     -35.536  21.184   2.849  0.00  0.00    +0.005 C 
BRANCH  17  18
ATOM     18  C   UNL     1     -35.224  20.123   1.874  0.00  0.00    +0.003 C 
ATOM     19  C   UNL     1     -36.206  19.681   0.987  0.00  0.00    +0.040 C 
ATOM     20  C   UNL     1     -33.948  19.561   1.838  0.00  0.00    +0.003 C 
ATOM     21  C   UNL     1     -35.911  18.678   0.064  0.00  0.00    +0.168 C 
ATOM     22  C   UNL     1     -34.635  18.115   0.029  0.00  0.00    +0.172 C 
ATOM     23  C   UNL     1     -33.653  18.558   0.915  0.00  0.00    +0.040 C 
BRANCH  22  24
ATOM     24  O   UNL     1     -34.335  17.134  -0.867  0.00  0.00    -0.468 OA
ATOM     25  C   UNL     1     -34.378  15.789  -0.394  0.00  0.00    +0.253 C 
ENDBRANCH  22  24
BRANCH  21  26
ATOM     26  O   UNL     1     -36.878  18.255  -0.798  0.00  0.00    -0.503 OA
ATOM     27  H   UNL     1     -37.680  17.903  -0.465  0.00  0.00    +0.292 HD
ENDBRANCH  21  26
ENDBRANCH  17  18
ENDBRANCH   3  16
TORSDOF 5
ENDMDL
MODEL 3
REMARK VINA RESULT:      -6.5      3.750      5.656
REMARK  Name = 56838711
REMARK  5 active torsions:
REMARK  status: ('A' for Active; 'I' for Inactive)
REMARK    1  A    between atoms: N_2  and  C_8
REMARK    2  A    between atoms: C_3  and  C_16
REMARK    3  A    between atoms: C_17  and  C_18
REMARK    4  A    between atoms: C_21  and  O_26
REMARK    5  A    between atoms: C_22  and  O_24
REMARK                            x       y       z     vdW  Elec       q    Type
REMARK                         _______ _______ _______ _____ _____    ______ ____
ROOT
ATOM      1  O   UNL     1     -35.951  22.156   6.199  0.00  0.00    -0.270 OA
ATOM      2  N   UNL     1     -35.414  23.523   4.398  0.00  0.00    -0.287 N 
ATOM      3  C   UNL     1     -35.569  22.304   5.044  0.00  0.00    +0.247 C 
ATOM      4  H   UNL     1     -35.099  23.520   3.464  0.00  0.00    +0.151 HD
ENDROOT
BRANCH   2   8
ATOM      5  N   UNL     1     -36.227  25.715   4.034  0.00  0.00    -0.268 N 
ATOM      6  N   UNL     1     -37.784  26.689   2.688  0.00  0.00    -0.331 N 
ATOM      7  N   UNL     1     -38.333  24.726   3.854  0.00  0.00    -0.273 NA
ATOM      8  C   UNL     1     -35.688  24.789   5.024  0.00  0.00    +0.151 C 
ATOM      9  C   UNL     1     -34.416  25.477   5.518  0.00  0.00    +0.042 C 
ATOM     10  C   UNL     1     -33.956  26.274   4.305  0.00  0.00    +0.025 C 
ATOM     11  C   UNL     1     -35.267  26.758   3.694  0.00  0.00    +0.095 C 
ATOM     12  C   UNL     1     -37.483  25.663   3.545  0.00  0.00    +0.175 C 
ATOM     13  H   UNL     1     -37.108  27.375   2.484  0.00  0.00    +0.145 HD
ATOM     14  H   UNL     1     -38.677  26.740   2.277  0.00  0.00    +0.145 HD
ATOM     15  H   UNL     1     -38.069  24.009   4.475  0.00  0.00    +0.189 HD
ENDBRANCH   2   8
BRANCH   3  16
ATOM     16  C   UNL     1     -35.216  21.154   4.162  0.00  0.00    +0.058 C 
ATOM     17  C   UNL     1     -35.524  21.193   2.857  0.00  0.00    +0.005 C 
BRANCH  17  18
ATOM     18  C   UNL     1     -35.216  20.121   1.894  0.00  0.00    +0.003 C 
ATOM     19  C   UNL     1     -33.947  19.541   1.880  0.00  0.00    +0.040 C 
ATOM     20  C   UNL     1     -36.191  19.687   0.996  0.00  0.00    +0.003 C 
ATOM     21  C   UNL     1     -33.654  18.526   0.968  0.00  0.00    +0.168 C 
ATOM     22  C   UNL     1     -34.630  18.092   0.070  0.00  0.00    +0.172 C 
ATOM     23  C   UNL     1     -35.898  18.672   0.085  0.00  0.00    +0.040 C 
BRANCH  22  24
ATOM     24  O   UNL     1     -34.356  17.103  -0.825  0.00  0.00    -0.468 OA
ATOM     25  C   UNL     1     -34.700  15.771  -0.444  0.00  0.00    +0.253 C 
ENDBRANCH  22  24
BRANCH  21  26
ATOM     26  O   UNL     1     -32.412  17.966   0.964  0.00  0.00    -0.503 OA
ATOM     27  H   UNL     1     -32.238  17.210   1.489  0.00  0.00    +0.292 HD
ENDBRANCH  21  26
ENDBRANCH  17  18
ENDBRANCH   3  16
TORSDOF 5
ENDMDL
MODEL 4
REMARK VINA RESULT:      -6.5      3.792      8.285
REMARK  Name = 56838711
REMARK  5 active torsions:
REMARK  status: ('A' for Active; 'I' for Inactive)
REMARK    1  A    between atoms: N_2  and  C_8
REMARK    2  A    between atoms: C_3  and  C_16
REMARK    3  A    between atoms: C_17  and  C_18
REMARK    4  A    between atoms: C_21  and  O_26
REMARK    5  A    between atoms: C_22  and  O_24
REMARK                            x       y       z     vdW  Elec       q    Type
REMARK                         _______ _______ _______ _____ _____    ______ ____
ROOT
ATOM      1  O   UNL     1     -36.072  22.629   5.983  0.00  0.00    -0.270 OA
ATOM      2  N   UNL     1     -36.121  23.731   3.937  0.00  0.00    -0.287 N 
ATOM      3  C   UNL     1     -35.685  23.523   5.238  0.00  0.00    +0.247 C 
ATOM      4  H   UNL     1     -35.738  24.484   3.430  0.00  0.00    +0.151 HD
ENDROOT
BRANCH   2   8
ATOM      5  N   UNL     1     -36.452  22.043   2.313  0.00  0.00    -0.268 N 
ATOM      6  N   UNL     1     -35.270  20.261   1.528  0.00  0.00    -0.331 N 
ATOM      7  N   UNL     1     -35.443  20.601   3.845  0.00  0.00    -0.273 NA
ATOM      8  C   UNL     1     -37.106  22.903   3.292  0.00  0.00    +0.151 C 
ATOM      9  C   UNL     1     -38.096  23.721   2.463  0.00  0.00    +0.042 C 
ATOM     10  C   UNL     1     -37.414  23.819   1.104  0.00  0.00    +0.025 C 
ATOM     11  C   UNL     1     -36.760  22.452   0.947  0.00  0.00    +0.095 C 
ATOM     12  C   UNL     1     -35.714  20.957   2.621  0.00  0.00    +0.175 C 
ATOM     13  H   UNL     1     -35.500  20.569   0.621  0.00  0.00    +0.145 HD
ATOM     14  H   UNL     1     -34.722  19.452   1.649  0.00  0.00    +0.145 HD
ATOM     15  H   UNL     1     -35.785  21.135   4.599  0.00  0.00    +0.189 HD
ENDBRANCH   2   8
BRANCH   3  16
ATOM     16  C   UNL     1     -34.662  24.525   5.652  0.00  0.00    +0.058 C 
ATOM     17  C   UNL     1     -34.529  25.669   4.965  0.00  0.00    +0.005 C 
BRANCH  17  18
ATOM     18  C   UNL     1     -33.561  26.732   5.289  0.00  0.00    +0.003 C 
ATOM     19  C   UNL     1     -33.100  27.584   4.285  0.00  0.00    +0.040 C 
ATOM     20  C   UNL     1     -33.106  26.886   6.598  0.00  0.00    +0.003 C 
ATOM     21  C   UNL     1     -32.183  28.591   4.592  0.00  0.00    +0.168 C 
ATOM     22  C   UNL     1     -31.728  28.744   5.902  0.00  0.00    +0.172 C 
ATOM     23  C   UNL     1     -32.190  27.893   6.905  0.00  0.00    +0.040 C 
BRANCH  22  24
ATOM     24  O   UNL     1     -30.833  29.723   6.213  0.00  0.00    -0.468 OA
ATOM     25  C   UNL     1     -29.528  29.304   6.609  0.00  0.00    +0.253 C 
ENDBRANCH  22  24
BRANCH  21  26
ATOM     26  O   UNL     1     -31.740  29.417   3.604  0.00  0.00    -0.503 OA
ATOM     27  H   UNL     1     -31.366  30.248   3.821  0.00  0.00    +0.292 HD
ENDBRANCH  21  26
ENDBRANCH  17  18
ENDBRANCH   3  16
TORSDOF 5
ENDMDL
MODEL 5
REMARK VINA RESULT:      -6.3      3.711      8.236
REMARK  Name = 56838711
REMARK  5 active torsions:
REMARK  status: ('A' for Active; 'I' for Inactive)
REMARK    1  A    between atoms: N_2  and  C_8
REMARK    2  A    between atoms: C_3  and  C_16
REMARK    3  A    between atoms: C_17  and  C_18
REMARK    4  A    between atoms: C_21  and  O_26
REMARK    5  A    between atoms: C_22  and  O_24
REMARK                            x       y       z     vdW  Elec       q    Type
REMARK                         _______ _______ _______ _____ _____    ______ ____
ROOT
ATOM      1  O   UNL     1     -35.985  22.929   5.982  0.00  0.00    -0.270 OA
ATOM      2  N   UNL     1     -36.060  23.787   3.823  0.00  0.00    -0.287 N 
ATOM      3  C   UNL     1     -35.609  23.732   5.134  0.00  0.00    +0.247 C 
ATOM      4  H   UNL     1     -35.686  24.478   3.228  0.00  0.00    +0.151 HD
ENDROOT
BRANCH   2   8
ATOM      5  N   UNL     1     -36.398  21.908   2.425  0.00  0.00    -0.268 N 
ATOM      6  N   UNL     1     -35.221  20.038   1.871  0.00  0.00    -0.331 N 
ATOM      7  N   UNL     1     -35.390  20.669   4.126  0.00  0.00    -0.273 NA
ATOM      8  C   UNL     1     -37.048  22.887   3.289  0.00  0.00    +0.151 C 
ATOM      9  C   UNL     1     -38.037  23.596   2.364  0.00  0.00    +0.042 C 
ATOM     10  C   UNL     1     -37.357  23.521   1.003  0.00  0.00    +0.025 C 
ATOM     11  C   UNL     1     -36.707  22.142   1.019  0.00  0.00    +0.095 C 
ATOM     12  C   UNL     1     -35.662  20.868   2.868  0.00  0.00    +0.175 C 
ATOM     13  H   UNL     1     -35.452  20.230   0.933  0.00  0.00    +0.145 HD
ATOM     14  H   UNL     1     -34.676  19.250   2.092  0.00  0.00    +0.145 HD
ATOM     15  H   UNL     1     -35.730  21.294   4.807  0.00  0.00    +0.189 HD
ENDBRANCH   2   8
BRANCH   3  16
ATOM     16  C   UNL     1     -34.587  24.779   5.419  0.00  0.00    +0.058 C 
ATOM     17  C   UNL     1     -34.374  25.765   4.535  0.00  0.00    +0.005 C 
BRANCH  17  18
ATOM     18  C   UNL     1     -33.399  26.855   4.716  0.00  0.00    +0.003 C 
ATOM     19  C   UNL     1     -33.001  27.226   6.001  0.00  0.00    +0.040 C 
ATOM     20  C   UNL     1     -32.874  27.514   3.605  0.00  0.00    +0.003 C 
ATOM     21  C   UNL     1     -32.077  28.258   6.173  0.00  0.00    +0.168 C 
ATOM     22  C   UNL     1     -31.553  28.918   5.061  0.00  0.00    +0.172 C 
ATOM     23  C   UNL     1     -31.951  28.546   3.778  0.00  0.00    +0.040 C 
BRANCH  22  24
ATOM     24  O   UNL     1     -30.651  29.927   5.217  0.00  0.00    -0.468 OA
ATOM     25  C   UNL     1     -31.138  31.260   5.068  0.00  0.00    +0.253 C 
ENDBRANCH  22  24
BRANCH  21  26
ATOM     26  O   UNL     1     -31.695  28.612   7.432  0.00  0.00    -0.503 OA
ATOM     27  H   UNL     1     -31.504  29.508   7.629  0.00  0.00    +0.292 HD
ENDBRANCH  21  26
ENDBRANCH  17  18
ENDBRANCH   3  16
TORSDOF 5
ENDMDL
MODEL 6
REMARK VINA RESULT:      -6.1      4.838      7.260
REMARK  Name = 56838711
REMARK  5 active torsions:
REMARK  status: ('A' for Active; 'I' for Inactive)
REMARK    1  A    between atoms: N_2  and  C_8
REMARK    2  A    between atoms: C_3  and  C_16
REMARK    3  A    between atoms: C_17  and  C_18
REMARK    4  A    between atoms: C_21  and  O_26
REMARK    5  A    between atoms: C_22  and  O_24
REMARK                            x       y       z     vdW  Elec       q    Type
REMARK                         _______ _______ _______ _____ _____    ______ ____
ROOT
ATOM      1  O   UNL     1     -37.117  21.097   2.232  0.00  0.00    -0.270 OA
ATOM      2  N   UNL     1     -35.484  22.398   3.255  0.00  0.00    -0.287 N 
ATOM      3  C   UNL     1     -35.952  21.464   2.341  0.00  0.00    +0.247 C 
ATOM      4  H   UNL     1     -34.523  22.615   3.252  0.00  0.00    +0.151 HD
ENDROOT
BRANCH   2   8
ATOM      5  N   UNL     1     -36.437  24.476   3.865  0.00  0.00    -0.268 N 
ATOM      6  N   UNL     1     -37.181  26.329   2.770  0.00  0.00    -0.331 N 
ATOM      7  N   UNL     1     -37.816  24.202   2.003  0.00  0.00    -0.273 NA
ATOM      8  C   UNL     1     -36.332  23.063   4.209  0.00  0.00    +0.151 C 
ATOM      9  C   UNL     1     -35.730  23.068   5.614  0.00  0.00    +0.042 C 
ATOM     10  C   UNL     1     -34.877  24.330   5.622  0.00  0.00    +0.025 C 
ATOM     11  C   UNL     1     -35.711  25.315   4.812  0.00  0.00    +0.095 C 
ATOM     12  C   UNL     1     -37.173  24.961   2.844  0.00  0.00    +0.175 C 
ATOM     13  H   UNL     1     -36.678  26.861   3.429  0.00  0.00    +0.145 HD
ATOM     14  H   UNL     1     -37.689  26.780   2.058  0.00  0.00    +0.145 HD
ATOM     15  H   UNL     1     -37.780  23.223   2.098  0.00  0.00    +0.189 HD
ENDBRANCH   2   8
BRANCH   3  16
ATOM     16  C   UNL     1     -34.860  20.935   1.474  0.00  0.00    +0.058 C 
ATOM     17  C   UNL     1     -34.174  19.846   1.851  0.00  0.00    +0.005 C 
BRANCH  17  18
ATOM     18  C   UNL     1     -33.085  19.232   1.070  0.00  0.00    +0.003 C 
ATOM     19  C   UNL     1     -32.926  17.846   1.067  0.00  0.00    +0.040 C 
ATOM     20  C   UNL     1     -32.214  20.036   0.336  0.00  0.00    +0.003 C 
ATOM     21  C   UNL     1     -31.895  17.264   0.328  0.00  0.00    +0.168 C 
ATOM     22  C   UNL     1     -31.023  18.069  -0.406  0.00  0.00    +0.172 C 
ATOM     23  C   UNL     1     -31.183  19.454  -0.403  0.00  0.00    +0.040 C 
BRANCH  22  24
ATOM     24  O   UNL     1     -30.013  17.513  -1.131  0.00  0.00    -0.468 OA
ATOM     25  C   UNL     1     -28.697  17.610  -0.588  0.00  0.00    +0.253 C 
ENDBRANCH  22  24
BRANCH  21  26
ATOM     26  O   UNL     1     -31.750  15.910   0.332  0.00  0.00    -0.503 OA
ATOM     27  H   UNL     1     -31.289  15.490   1.032  0.00  0.00    +0.292 HD
ENDBRANCH  21  26
ENDBRANCH  17  18
ENDBRANCH   3  16
TORSDOF 5
ENDMDL
MODEL 7
REMARK VINA RESULT:      -6.1      2.985      3.820
REMARK  Name = 56838711
REMARK  5 active torsions:
REMARK  status: ('A' for Active; 'I' for Inactive)
REMARK    1  A    between atoms: N_2  and  C_8
REMARK    2  A    between atoms: C_3  and  C_16
REMARK    3  A    between atoms: C_17  and  C_18
REMARK    4  A    between atoms: C_21  and  O_26
REMARK    5  A    between atoms: C_22  and  O_24
REMARK                            x       y       z     vdW  Elec       q    Type
REMARK                         _______ _______ _______ _____ _____    ______ ____
ROOT
ATOM      1  O   UNL     1     -32.153  29.105   7.098  0.00  0.00    -0.270 OA
ATOM      2  N   UNL     1     -30.452  28.051   5.916  0.00  0.00    -0.287 N 
ATOM      3  C   UNL     1     -31.774  28.291   6.263  0.00  0.00    +0.247 C 
ATOM      4  H   UNL     1     -30.265  27.370   5.229  0.00  0.00    +0.151 HD
ENDROOT
BRANCH   2   8
ATOM      5  N   UNL     1     -28.647  29.519   5.489  0.00  0.00    -0.268 N 
ATOM      6  N   UNL     1     -28.240  31.259   4.076  0.00  0.00    -0.331 N 
ATOM      7  N   UNL     1     -30.269  31.180   5.256  0.00  0.00    -0.273 NA
ATOM      8  C   UNL     1     -29.340  28.745   6.511  0.00  0.00    +0.151 C 
ATOM      9  C   UNL     1     -28.273  27.785   7.035  0.00  0.00    +0.042 C 
ATOM     10  C   UNL     1     -27.376  27.566   5.824  0.00  0.00    +0.025 C 
ATOM     11  C   UNL     1     -27.349  28.939   5.163  0.00  0.00    +0.095 C 
ATOM     12  C   UNL     1     -29.107  30.671   4.959  0.00  0.00    +0.175 C 
ATOM     13  H   UNL     1     -27.372  30.836   3.882  0.00  0.00    +0.145 HD
ATOM     14  H   UNL     1     -28.485  32.104   3.635  0.00  0.00    +0.145 HD
ATOM     15  H   UNL     1     -30.857  30.720   5.898  0.00  0.00    +0.189 HD
ENDBRANCH   2   8
BRANCH   3  16
ATOM     16  C   UNL     1     -32.720  27.434   5.492  0.00  0.00    +0.058 C 
ATOM     17  C   UNL     1     -33.525  26.577   6.137  0.00  0.00    +0.005 C 
BRANCH  17  18
ATOM     18  C   UNL     1     -34.502  25.691   5.479  0.00  0.00    +0.003 C 
ATOM     19  C   UNL     1     -35.757  26.184   5.121  0.00  0.00    +0.040 C 
ATOM     20  C   UNL     1     -34.173  24.362   5.216  0.00  0.00    +0.003 C 
ATOM     21  C   UNL     1     -36.683  25.346   4.498  0.00  0.00    +0.168 C 
ATOM     22  C   UNL     1     -36.354  24.016   4.235  0.00  0.00    +0.172 C 
ATOM     23  C   UNL     1     -35.099  23.525   4.593  0.00  0.00    +0.040 C 
BRANCH  22  24
ATOM     24  O   UNL     1     -37.249  23.188   3.628  0.00  0.00    -0.468 OA
ATOM     25  C   UNL     1     -36.721  22.195   2.751  0.00  0.00    +0.253 C 
ENDBRANCH  22  24
BRANCH  21  26
ATOM     26  O   UNL     1     -37.905  25.838   4.152  0.00  0.00    -0.503 OA
ATOM     27  H   UNL     1     -38.138  25.920   3.248  0.00  0.00    +0.292 HD
ENDBRANCH  21  26
ENDBRANCH  17  18
ENDBRANCH   3  16
TORSDOF 5
ENDMDL
MODEL 8
REMARK VINA RESULT:      -6.0      6.932      8.759
REMARK  Name = 56838711
REMARK  5 active torsions:
REMARK  status: ('A' for Active; 'I' for Inactive)
REMARK    1  A    between atoms: N_2  and  C_8
REMARK    2  A    between atoms: C_3  and  C_16
REMARK    3  A    between atoms: C_17  and  C_18
REMARK    4  A    between atoms: C_21  and  O_26
REMARK    5  A    between atoms: C_22  and  O_24
REMARK                            x       y       z     vdW  Elec       q    Type
REMARK                         _______ _______ _______ _____ _____    ______ ____
ROOT
ATOM      1  O   UNL     1     -36.991  25.318   2.344  0.00  0.00    -0.270 OA
ATOM      2  N   UNL     1     -37.123  23.881   4.167  0.00  0.00    -0.287 N 
ATOM      3  C   UNL     1     -37.644  24.729   3.199  0.00  0.00    +0.247 C 
ATOM      4  H   UNL     1     -37.746  23.461   4.804  0.00  0.00    +0.151 HD
ENDROOT
BRANCH   2   8
ATOM      5  N   UNL     1     -35.481  22.195   3.927  0.00  0.00    -0.268 N 
ATOM      6  N   UNL     1     -35.159  20.394   2.570  0.00  0.00    -0.331 N 
ATOM      7  N   UNL     1     -35.792  22.450   1.628  0.00  0.00    -0.273 NA
ATOM      8  C   UNL     1     -35.720  23.588   4.287  0.00  0.00    +0.151 C 
ATOM      9  C   UNL     1     -35.230  23.684   5.732  0.00  0.00    +0.042 C 
ATOM     10  C   UNL     1     -35.482  22.285   6.279  0.00  0.00    +0.025 C 
ATOM     11  C   UNL     1     -35.148  21.386   5.094  0.00  0.00    +0.095 C 
ATOM     12  C   UNL     1     -35.492  21.720   2.665  0.00  0.00    +0.175 C 
ATOM     13  H   UNL     1     -34.939  19.882   3.382  0.00  0.00    +0.145 HD
ATOM     14  H   UNL     1     -35.138  19.954   1.690  0.00  0.00    +0.145 HD
ATOM     15  H   UNL     1     -36.025  23.400   1.747  0.00  0.00    +0.189 HD
ENDBRANCH   2   8
BRANCH   3  16
ATOM     16  C   UNL     1     -39.126  24.853   3.302  0.00  0.00    +0.058 C 
ATOM     17  C   UNL     1     -39.770  25.792   2.593  0.00  0.00    +0.005 C 
BRANCH  17  18
ATOM     18  C   UNL     1     -41.229  25.998   2.610  0.00  0.00    +0.003 C 
ATOM     19  C   UNL     1     -41.807  26.799   3.597  0.00  0.00    +0.040 C 
ATOM     20  C   UNL     1     -42.032  25.394   1.643  0.00  0.00    +0.003 C 
ATOM     21  C   UNL     1     -43.189  26.995   3.614  0.00  0.00    +0.168 C 
ATOM     22  C   UNL     1     -43.992  26.390   2.646  0.00  0.00    +0.172 C 
ATOM     23  C   UNL     1     -43.413  25.590   1.661  0.00  0.00    +0.040 C 
BRANCH  22  24
ATOM     24  O   UNL     1     -45.341  26.573   2.653  0.00  0.00    -0.468 OA
ATOM     25  C   UNL     1     -46.134  25.526   3.210  0.00  0.00    +0.253 C 
ENDBRANCH  22  24
BRANCH  21  26
ATOM     26  O   UNL     1     -43.742  27.778   4.581  0.00  0.00    -0.503 OA
ATOM     27  H   UNL     1     -44.504  27.486   5.042  0.00  0.00    +0.292 HD
ENDBRANCH  21  26
ENDBRANCH  17  18
ENDBRANCH   3  16
TORSDOF 5
ENDMDL
MODEL 9
REMARK VINA RESULT:      -5.9      5.006      9.414
REMARK  Name = 56838711
REMARK  5 active torsions:
REMARK  status: ('A' for Active; 'I' for Inactive)
REMARK    1  A    between atoms: N_2  and  C_8
REMARK    2  A    between atoms: C_3  and  C_16
REMARK    3  A    between atoms: C_17  and  C_18
REMARK    4  A    between atoms: C_21  and  O_26
REMARK    5  A    between atoms: C_22  and  O_24
REMARK                            x       y       z     vdW  Elec       q    Type
REMARK                         _______ _______ _______ _____ _____    ______ ____
ROOT
ATOM      1  O   UNL     1     -35.119  28.129   1.072  0.00  0.00    -0.270 OA
ATOM      2  N   UNL     1     -35.172  28.023   3.394  0.00  0.00    -0.287 N 
ATOM      3  C   UNL     1     -35.283  28.660   2.165  0.00  0.00    +0.247 C 
ATOM      4  H   UNL     1     -35.326  28.552   4.210  0.00  0.00    +0.151 HD
ENDROOT
BRANCH   2   8
ATOM      5  N   UNL     1     -35.971  25.918   4.121  0.00  0.00    -0.268 N 
ATOM      6  N   UNL     1     -37.988  24.861   4.199  0.00  0.00    -0.331 N 
ATOM      7  N   UNL     1     -37.340  25.970   2.232  0.00  0.00    -0.273 NA
ATOM      8  C   UNL     1     -34.842  26.629   3.534  0.00  0.00    +0.151 C 
ATOM      9  C   UNL     1     -33.704  26.401   4.529  0.00  0.00    +0.042 C 
ATOM     10  C   UNL     1     -34.428  26.275   5.863  0.00  0.00    +0.025 C 
ATOM     11  C   UNL     1     -35.697  25.514   5.496  0.00  0.00    +0.095 C 
ATOM     12  C   UNL     1     -37.104  25.603   3.460  0.00  0.00    +0.175 C 
ATOM     13  H   UNL     1     -37.765  24.608   5.124  0.00  0.00    +0.145 HD
ATOM     14  H   UNL     1     -38.845  24.581   3.804  0.00  0.00    +0.145 HD
ATOM     15  H   UNL     1     -36.673  26.503   1.741  0.00  0.00    +0.189 HD
ENDBRANCH   2   8
BRANCH   3  16
ATOM     16  C   UNL     1     -35.635  30.101   2.312  0.00  0.00    +0.058 C 
ATOM     17  C   UNL     1     -36.270  30.739   1.318  0.00  0.00    +0.005 C 
BRANCH  17  18
ATOM     18  C   UNL     1     -36.675  32.156   1.358  0.00  0.00    +0.003 C 
ATOM     19  C   UNL     1     -37.951  32.503   1.803  0.00  0.00    +0.040 C 
ATOM     20  C   UNL     1     -35.784  33.148   0.950  0.00  0.00    +0.003 C 
ATOM     21  C   UNL     1     -38.334  33.844   1.841  0.00  0.00    +0.168 C 
ATOM     22  C   UNL     1     -37.443  34.837   1.433  0.00  0.00    +0.172 C 
ATOM     23  C   UNL     1     -36.168  34.489   0.988  0.00  0.00    +0.040 C 
BRANCH  22  24
ATOM     24  O   UNL     1     -37.806  36.149   1.465  0.00  0.00    -0.468 OA
ATOM     25  C   UNL     1     -37.017  37.058   0.699  0.00  0.00    +0.253 C 
ENDBRANCH  22  24
BRANCH  21  26
ATOM     26  O   UNL     1     -39.582  34.172   2.278  0.00  0.00    -0.503 OA
ATOM     27  H   UNL     1     -39.907  35.043   2.159  0.00  0.00    +0.292 HD
ENDBRANCH  21  26
ENDBRANCH  17  18
ENDBRANCH   3  16
TORSDOF 5
ENDMDL
