MODEL 1
REMARK VINA RESULT:      -5.0      0.000      0.000
REMARK  Name = 21155434
REMARK  7 active torsions:
REMARK  status: ('A' for Active; 'I' for Inactive)
REMARK    1  A    between atoms: N_1  and  C_2
REMARK    2  A    between atoms: N_1  and  C_10
REMARK    3  A    between atoms: N_1  and  C_11
REMARK    4  A    between atoms: C_11  and  C_12
REMARK    5  A    between atoms: C_12  and  O_13
REMARK    6  A    between atoms: C_12  and  C_15
REMARK    7  A    between atoms: C_15  and  S_16
REMARK                            x       y       z     vdW  Elec       q    Type
REMARK                         _______ _______ _______ _____ _____    ______ ____
ROOT
ATOM      1  N   UNL     1     -36.275  25.150   3.791  0.00  0.00    -0.296 N 
ENDROOT
BRANCH   1   2
ATOM      2  C   UNL     1     -36.276  23.810   4.325  0.00  0.00    +0.074 C 
ATOM      3  C   UNL     1     -35.622  22.833   3.344  0.00  0.00    +0.020 C 
ATOM      4  C   UNL     1     -35.584  23.776   5.690  0.00  0.00    +0.020 C 
ATOM      5  C   UNL     1     -35.564  21.418   3.914  0.00  0.00    +0.002 C 
ATOM      6  C   UNL     1     -35.524  22.359   6.256  0.00  0.00    +0.002 C 
ATOM      7  C   UNL     1     -34.875  21.387   5.274  0.00  0.00    +0.000 C 
ENDBRANCH   1   2
BRANCH   1  10
ATOM      8  S   UNL     1     -38.662  25.829   2.693  0.00  0.00    -0.027 S 
ATOM      9  S   UNL     1     -36.195  25.605   1.098  0.00  0.00    -0.027 S 
ATOM     10  C   UNL     1     -36.966  25.493   2.642  0.00  0.00    +0.121 C 
ENDBRANCH   1  10
BRANCH   1  11
ATOM     11  C   UNL     1     -35.688  26.197   4.648  0.00  0.00    +0.123 C 
BRANCH  11  12
ATOM     12  C   UNL     1     -34.549  26.953   3.965  0.00  0.00    +0.154 C 
BRANCH  12  13
ATOM     13  O   UNL     1     -34.989  28.269   3.630  0.00  0.00    -0.381 OA
ATOM     14  H   UNL     1     -35.251  28.738   4.439  0.00  0.00    +0.210 HD
ENDBRANCH  12  13
BRANCH  12  15
ATOM     15  C   UNL     1     -33.306  27.062   4.843  0.00  0.00    +0.189 C 
BRANCH  15  16
ATOM     16  S   UNL     1     -32.197  28.303   4.246  0.00  0.00    +0.025 S 
ATOM     17  O   UNL     1     -32.275  28.147   2.795  0.00  0.00    -0.069 OA
ATOM     18  O   UNL     1     -32.775  29.541   4.768  0.00  0.00    -0.069 OA
ATOM     19  O   UNL     1     -30.919  27.919   4.842  0.00  0.00    -0.069 OA
ENDBRANCH  15  16
ENDBRANCH  12  15
ENDBRANCH  11  12
ENDBRANCH   1  11
TORSDOF 7
ENDMDL
MODEL 2
REMARK VINA RESULT:      -4.8      4.088      5.682
REMARK  Name = 21155434
REMARK  7 active torsions:
REMARK  status: ('A' for Active; 'I' for Inactive)
REMARK    1  A    between atoms: N_1  and  C_2
REMARK    2  A    between atoms: N_1  and  C_10
REMARK    3  A    between atoms: N_1  and  C_11
REMARK    4  A    between atoms: C_11  and  C_12
REMARK    5  A    between atoms: C_12  and  O_13
REMARK    6  A    between atoms: C_12  and  C_15
REMARK    7  A    between atoms: C_15  and  S_16
REMARK                            x       y       z     vdW  Elec       q    Type
REMARK                         _______ _______ _______ _____ _____    ______ ____
ROOT
ATOM      1  N   UNL     1     -36.230  24.950   3.521  0.00  0.00    -0.296 N 
ENDROOT
BRANCH   1   2
ATOM      2  C   UNL     1     -36.218  23.660   4.165  0.00  0.00    +0.074 C 
ATOM      3  C   UNL     1     -35.452  22.637   3.321  0.00  0.00    +0.020 C 
ATOM      4  C   UNL     1     -35.631  23.769   5.574  0.00  0.00    +0.020 C 
ATOM      5  C   UNL     1     -35.382  21.278   4.011  0.00  0.00    +0.002 C 
ATOM      6  C   UNL     1     -35.558  22.407   6.261  0.00  0.00    +0.002 C 
ATOM      7  C   UNL     1     -34.797  21.390   5.415  0.00  0.00    +0.000 C 
ENDBRANCH   1   2
BRANCH   1  10
ATOM      8  S   UNL     1     -33.759  26.061   3.678  0.00  0.00    -0.027 S 
ATOM      9  S   UNL     1     -35.077  25.494   1.104  0.00  0.00    -0.027 S 
ATOM     10  C   UNL     1     -35.138  25.448   2.832  0.00  0.00    +0.121 C 
ENDBRANCH   1  10
BRANCH   1  11
ATOM     11  C   UNL     1     -37.537  25.627   3.432  0.00  0.00    +0.123 C 
BRANCH  11  12
ATOM     12  C   UNL     1     -38.675  24.674   3.065  0.00  0.00    +0.154 C 
BRANCH  12  13
ATOM     13  O   UNL     1     -39.789  24.915   3.924  0.00  0.00    -0.381 OA
ATOM     14  H   UNL     1     -40.469  25.410   3.439  0.00  0.00    +0.210 HD
ENDBRANCH  12  13
BRANCH  12  15
ATOM     15  C   UNL     1     -39.130  24.831   1.618  0.00  0.00    +0.189 C 
BRANCH  15  16
ATOM     16  S   UNL     1     -40.374  23.647   1.197  0.00  0.00    +0.025 S 
ATOM     17  O   UNL     1     -40.075  23.335  -0.199  0.00  0.00    -0.069 OA
ATOM     18  O   UNL     1     -40.128  22.559   2.141  0.00  0.00    -0.069 OA
ATOM     19  O   UNL     1     -41.619  24.383   1.413  0.00  0.00    -0.069 OA
ENDBRANCH  15  16
ENDBRANCH  12  15
ENDBRANCH  11  12
ENDBRANCH   1  11
TORSDOF 7
ENDMDL
MODEL 3
REMARK VINA RESULT:      -4.8      3.214      4.264
REMARK  Name = 21155434
REMARK  7 active torsions:
REMARK  status: ('A' for Active; 'I' for Inactive)
REMARK    1  A    between atoms: N_1  and  C_2
REMARK    2  A    between atoms: N_1  and  C_10
REMARK    3  A    between atoms: N_1  and  C_11
REMARK    4  A    between atoms: C_11  and  C_12
REMARK    5  A    between atoms: C_12  and  O_13
REMARK    6  A    between atoms: C_12  and  C_15
REMARK    7  A    between atoms: C_15  and  S_16
REMARK                            x       y       z     vdW  Elec       q    Type
REMARK                         _______ _______ _______ _____ _____    ______ ____
ROOT
ATOM      1  N   UNL     1     -35.913  22.192   2.388  0.00  0.00    -0.296 N 
ENDROOT
BRANCH   1   2
ATOM      2  C   UNL     1     -35.195  21.371   1.444  0.00  0.00    +0.074 C 
ATOM      3  C   UNL     1     -34.059  22.162   0.789  0.00  0.00    +0.020 C 
ATOM      4  C   UNL     1     -34.671  20.104   2.124  0.00  0.00    +0.020 C 
ATOM      5  C   UNL     1     -33.253  21.295  -0.174  0.00  0.00    +0.002 C 
ATOM      6  C   UNL     1     -33.862  19.240   1.158  0.00  0.00    +0.002 C 
ATOM      7  C   UNL     1     -32.733  20.032   0.505  0.00  0.00    +0.000 C 
ENDBRANCH   1   2
BRANCH   1  10
ATOM      8  S   UNL     1     -38.609  22.369   2.138  0.00  0.00    -0.027 S 
ATOM      9  S   UNL     1     -36.806  24.590   1.431  0.00  0.00    -0.027 S 
ATOM     10  C   UNL     1     -36.993  22.975   2.023  0.00  0.00    +0.121 C 
ENDBRANCH   1  10
BRANCH   1  11
ATOM     11  C   UNL     1     -35.589  21.988   3.813  0.00  0.00    +0.123 C 
BRANCH  11  12
ATOM     12  C   UNL     1     -35.749  23.259   4.646  0.00  0.00    +0.154 C 
BRANCH  12  13
ATOM     13  O   UNL     1     -36.000  22.904   6.006  0.00  0.00    -0.381 OA
ATOM     14  H   UNL     1     -35.785  21.968   6.140  0.00  0.00    +0.210 HD
ENDBRANCH  12  13
BRANCH  12  15
ATOM     15  C   UNL     1     -34.518  24.157   4.594  0.00  0.00    +0.189 C 
BRANCH  15  16
ATOM     16  S   UNL     1     -34.911  25.824   5.032  0.00  0.00    +0.025 S 
ATOM     17  O   UNL     1     -36.325  25.746   5.395  0.00  0.00    -0.069 OA
ATOM     18  O   UNL     1     -34.001  26.097   6.143  0.00  0.00    -0.069 OA
ATOM     19  O   UNL     1     -34.628  26.565   3.804  0.00  0.00    -0.069 OA
ENDBRANCH  15  16
ENDBRANCH  12  15
ENDBRANCH  11  12
ENDBRANCH   1  11
TORSDOF 7
ENDMDL
MODEL 4
REMARK VINA RESULT:      -4.7      5.320      6.984
REMARK  Name = 21155434
REMARK  7 active torsions:
REMARK  status: ('A' for Active; 'I' for Inactive)
REMARK    1  A    between atoms: N_1  and  C_2
REMARK    2  A    between atoms: N_1  and  C_10
REMARK    3  A    between atoms: N_1  and  C_11
REMARK    4  A    between atoms: C_11  and  C_12
REMARK    5  A    between atoms: C_12  and  O_13
REMARK    6  A    between atoms: C_12  and  C_15
REMARK    7  A    between atoms: C_15  and  S_16
REMARK                            x       y       z     vdW  Elec       q    Type
REMARK                         _______ _______ _______ _____ _____    ______ ____
ROOT
ATOM      1  N   UNL     1     -36.398  23.343   2.318  0.00  0.00    -0.296 N 
ENDROOT
BRANCH   1   2
ATOM      2  C   UNL     1     -35.623  23.107   3.512  0.00  0.00    +0.074 C 
ATOM      3  C   UNL     1     -36.058  24.049   4.637  0.00  0.00    +0.020 C 
ATOM      4  C   UNL     1     -35.731  21.641   3.941  0.00  0.00    +0.020 C 
ATOM      5  C   UNL     1     -35.288  23.780   5.927  0.00  0.00    +0.002 C 
ATOM      6  C   UNL     1     -34.962  21.375   5.233  0.00  0.00    +0.002 C 
ATOM      7  C   UNL     1     -35.396  22.318   6.351  0.00  0.00    +0.000 C 
ENDBRANCH   1   2
BRANCH   1  10
ATOM      8  S   UNL     1     -36.267  25.004   0.177  0.00  0.00    -0.027 S 
ATOM      9  S   UNL     1     -34.610  22.578   0.399  0.00  0.00    -0.027 S 
ATOM     10  C   UNL     1     -35.813  23.608   1.092  0.00  0.00    +0.121 C 
ENDBRANCH   1  10
BRANCH   1  11
ATOM     11  C   UNL     1     -37.843  23.064   2.409  0.00  0.00    +0.123 C 
BRANCH  11  12
ATOM     12  C   UNL     1     -38.281  21.898   1.522  0.00  0.00    +0.154 C 
BRANCH  12  13
ATOM     13  O   UNL     1     -38.972  20.934   2.315  0.00  0.00    -0.381 OA
ATOM     14  H   UNL     1     -39.617  20.464   1.763  0.00  0.00    +0.210 HD
ENDBRANCH  12  13
BRANCH  12  15
ATOM     15  C   UNL     1     -39.192  22.337   0.381  0.00  0.00    +0.189 C 
BRANCH  15  16
ATOM     16  S   UNL     1     -40.059  20.965  -0.321  0.00  0.00    +0.025 S 
ATOM     17  O   UNL     1     -40.319  21.405  -1.691  0.00  0.00    -0.069 OA
ATOM     18  O   UNL     1     -39.101  19.869  -0.194  0.00  0.00    -0.069 OA
ATOM     19  O   UNL     1     -41.244  20.853   0.527  0.00  0.00    -0.069 OA
ENDBRANCH  15  16
ENDBRANCH  12  15
ENDBRANCH  11  12
ENDBRANCH   1  11
TORSDOF 7
ENDMDL
MODEL 5
REMARK VINA RESULT:      -4.7      1.727      2.697
REMARK  Name = 21155434
REMARK  7 active torsions:
REMARK  status: ('A' for Active; 'I' for Inactive)
REMARK    1  A    between atoms: N_1  and  C_2
REMARK    2  A    between atoms: N_1  and  C_10
REMARK    3  A    between atoms: N_1  and  C_11
REMARK    4  A    between atoms: C_11  and  C_12
REMARK    5  A    between atoms: C_12  and  O_13
REMARK    6  A    between atoms: C_12  and  C_15
REMARK    7  A    between atoms: C_15  and  S_16
REMARK                            x       y       z     vdW  Elec       q    Type
REMARK                         _______ _______ _______ _____ _____    ______ ____
ROOT
ATOM      1  N   UNL     1     -36.998  24.197   3.268  0.00  0.00    -0.296 N 
ENDROOT
BRANCH   1   2
ATOM      2  C   UNL     1     -36.693  22.931   2.646  0.00  0.00    +0.074 C 
ATOM      3  C   UNL     1     -36.082  23.142   1.258  0.00  0.00    +0.020 C 
ATOM      4  C   UNL     1     -35.770  22.102   3.541  0.00  0.00    +0.020 C 
ATOM      5  C   UNL     1     -35.701  21.816   0.604  0.00  0.00    +0.002 C 
ATOM      6  C   UNL     1     -35.388  20.778   2.884  0.00  0.00    +0.002 C 
ATOM      7  C   UNL     1     -34.782  20.991   1.499  0.00  0.00    +0.000 C 
ENDBRANCH   1   2
BRANCH   1  10
ATOM      8  S   UNL     1     -37.586  26.393   1.788  0.00  0.00    -0.027 S 
ATOM      9  S   UNL     1     -39.658  24.812   3.161  0.00  0.00    -0.027 S 
ATOM     10  C   UNL     1     -37.985  25.042   2.791  0.00  0.00    +0.121 C 
ENDBRANCH   1  10
BRANCH   1  11
ATOM     11  C   UNL     1     -36.366  24.453   4.576  0.00  0.00    +0.123 C 
BRANCH  11  12
ATOM     12  C   UNL     1     -35.753  25.850   4.676  0.00  0.00    +0.154 C 
BRANCH  12  13
ATOM     13  O   UNL     1     -36.556  26.658   5.535  0.00  0.00    -0.381 OA
ATOM     14  H   UNL     1     -37.342  26.159   5.807  0.00  0.00    +0.210 HD
ENDBRANCH  12  13
BRANCH  12  15
ATOM     15  C   UNL     1     -34.327  25.830   5.215  0.00  0.00    +0.189 C 
BRANCH  15  16
ATOM     16  S   UNL     1     -33.364  27.157   4.553  0.00  0.00    +0.025 S 
ATOM     17  O   UNL     1     -32.785  27.772   5.746  0.00  0.00    -0.069 OA
ATOM     18  O   UNL     1     -32.409  26.471   3.684  0.00  0.00    -0.069 OA
ATOM     19  O   UNL     1     -34.357  27.973   3.858  0.00  0.00    -0.069 OA
ENDBRANCH  15  16
ENDBRANCH  12  15
ENDBRANCH  11  12
ENDBRANCH   1  11
TORSDOF 7
ENDMDL
MODEL 6
REMARK VINA RESULT:      -4.7      3.873      5.158
REMARK  Name = 21155434
REMARK  7 active torsions:
REMARK  status: ('A' for Active; 'I' for Inactive)
REMARK    1  A    between atoms: N_1  and  C_2
REMARK    2  A    between atoms: N_1  and  C_10
REMARK    3  A    between atoms: N_1  and  C_11
REMARK    4  A    between atoms: C_11  and  C_12
REMARK    5  A    between atoms: C_12  and  O_13
REMARK    6  A    between atoms: C_12  and  C_15
REMARK    7  A    between atoms: C_15  and  S_16
REMARK                            x       y       z     vdW  Elec       q    Type
REMARK                         _______ _______ _______ _____ _____    ______ ____
ROOT
ATOM      1  N   UNL     1     -35.632  21.348   1.476  0.00  0.00    -0.296 N 
ENDROOT
BRANCH   1   2
ATOM      2  C   UNL     1     -34.598  20.657   0.745  0.00  0.00    +0.074 C 
ATOM      3  C   UNL     1     -33.486  21.625   0.330  0.00  0.00    +0.020 C 
ATOM      4  C   UNL     1     -34.043  19.494   1.570  0.00  0.00    +0.020 C 
ATOM      5  C   UNL     1     -32.355  20.904  -0.399  0.00  0.00    +0.002 C 
ATOM      6  C   UNL     1     -32.909  18.776   0.841  0.00  0.00    +0.002 C 
ATOM      7  C   UNL     1     -31.805  19.745   0.425  0.00  0.00    +0.000 C 
ENDBRANCH   1   2
BRANCH   1  10
ATOM      8  S   UNL     1     -38.260  21.017   0.890  0.00  0.00    -0.027 S 
ATOM      9  S   UNL     1     -36.735  23.387   0.030  0.00  0.00    -0.027 S 
ATOM     10  C   UNL     1     -36.756  21.870   0.861  0.00  0.00    +0.121 C 
ENDBRANCH   1  10
BRANCH   1  11
ATOM     11  C   UNL     1     -35.553  21.278   2.947  0.00  0.00    +0.123 C 
BRANCH  11  12
ATOM     12  C   UNL     1     -36.105  22.528   3.632  0.00  0.00    +0.154 C 
BRANCH  12  13
ATOM     13  O   UNL     1     -36.300  22.260   5.020  0.00  0.00    -0.381 OA
ATOM     14  H   UNL     1     -35.532  21.778   5.366  0.00  0.00    +0.210 HD
ENDBRANCH  12  13
BRANCH  12  15
ATOM     15  C   UNL     1     -35.182  23.733   3.491  0.00  0.00    +0.189 C 
BRANCH  15  16
ATOM     16  S   UNL     1     -35.752  25.104   4.451  0.00  0.00    +0.025 S 
ATOM     17  O   UNL     1     -37.189  24.857   4.559  0.00  0.00    -0.069 OA
ATOM     18  O   UNL     1     -35.005  24.967   5.700  0.00  0.00    -0.069 OA
ATOM     19  O   UNL     1     -35.383  26.258   3.633  0.00  0.00    -0.069 OA
ENDBRANCH  15  16
ENDBRANCH  12  15
ENDBRANCH  11  12
ENDBRANCH   1  11
TORSDOF 7
ENDMDL
MODEL 7
REMARK VINA RESULT:      -4.6      5.068      6.656
REMARK  Name = 21155434
REMARK  7 active torsions:
REMARK  status: ('A' for Active; 'I' for Inactive)
REMARK    1  A    between atoms: N_1  and  C_2
REMARK    2  A    between atoms: N_1  and  C_10
REMARK    3  A    between atoms: N_1  and  C_11
REMARK    4  A    between atoms: C_11  and  C_12
REMARK    5  A    between atoms: C_12  and  O_13
REMARK    6  A    between atoms: C_12  and  C_15
REMARK    7  A    between atoms: C_15  and  S_16
REMARK                            x       y       z     vdW  Elec       q    Type
REMARK                         _______ _______ _______ _____ _____    ______ ____
ROOT
ATOM      1  N   UNL     1     -35.478  23.357   2.200  0.00  0.00    -0.296 N 
ENDROOT
BRANCH   1   2
ATOM      2  C   UNL     1     -35.454  24.437   3.156  0.00  0.00    +0.074 C 
ATOM      3  C   UNL     1     -35.837  23.936   4.551  0.00  0.00    +0.020 C 
ATOM      4  C   UNL     1     -34.081  25.114   3.165  0.00  0.00    +0.020 C 
ATOM      5  C   UNL     1     -35.765  25.053   5.589  0.00  0.00    +0.002 C 
ATOM      6  C   UNL     1     -34.010  26.229   4.207  0.00  0.00    +0.002 C 
ATOM      7  C   UNL     1     -34.397  25.727   5.596  0.00  0.00    +0.000 C 
ENDBRANCH   1   2
BRANCH   1  10
ATOM      8  S   UNL     1     -33.828  22.742   0.136  0.00  0.00    -0.027 S 
ATOM      9  S   UNL     1     -36.120  24.568  -0.163  0.00  0.00    -0.027 S 
ATOM     10  C   UNL     1     -35.180  23.541   0.862  0.00  0.00    +0.121 C 
ENDBRANCH   1  10
BRANCH   1  11
ATOM     11  C   UNL     1     -35.615  21.996   2.752  0.00  0.00    +0.123 C 
BRANCH  11  12
ATOM     12  C   UNL     1     -36.737  21.196   2.089  0.00  0.00    +0.154 C 
BRANCH  12  13
ATOM     13  O   UNL     1     -36.789  19.891   2.663  0.00  0.00    -0.381 OA
ATOM     14  H   UNL     1     -36.101  19.334   2.265  0.00  0.00    +0.210 HD
ENDBRANCH  12  13
BRANCH  12  15
ATOM     15  C   UNL     1     -38.102  21.855   2.246  0.00  0.00    +0.189 C 
BRANCH  15  16
ATOM     16  S   UNL     1     -39.190  21.420   0.922  0.00  0.00    +0.025 S 
ATOM     17  O   UNL     1     -40.432  21.076   1.613  0.00  0.00    -0.069 OA
ATOM     18  O   UNL     1     -39.244  22.643   0.123  0.00  0.00    -0.069 OA
ATOM     19  O   UNL     1     -38.505  20.296   0.286  0.00  0.00    -0.069 OA
ENDBRANCH  15  16
ENDBRANCH  12  15
ENDBRANCH  11  12
ENDBRANCH   1  11
TORSDOF 7
ENDMDL
MODEL 8
REMARK VINA RESULT:      -4.6      4.252      5.657
REMARK  Name = 21155434
REMARK  7 active torsions:
REMARK  status: ('A' for Active; 'I' for Inactive)
REMARK    1  A    between atoms: N_1  and  C_2
REMARK    2  A    between atoms: N_1  and  C_10
REMARK    3  A    between atoms: N_1  and  C_11
REMARK    4  A    between atoms: C_11  and  C_12
REMARK    5  A    between atoms: C_12  and  O_13
REMARK    6  A    between atoms: C_12  and  C_15
REMARK    7  A    between atoms: C_15  and  S_16
REMARK                            x       y       z     vdW  Elec       q    Type
REMARK                         _______ _______ _______ _____ _____    ______ ____
ROOT
ATOM      1  N   UNL     1     -36.902  23.761   2.547  0.00  0.00    -0.296 N 
ENDROOT
BRANCH   1   2
ATOM      2  C   UNL     1     -35.944  23.416   3.569  0.00  0.00    +0.074 C 
ATOM      3  C   UNL     1     -36.156  24.269   4.823  0.00  0.00    +0.020 C 
ATOM      4  C   UNL     1     -36.020  21.922   3.894  0.00  0.00    +0.020 C 
ATOM      5  C   UNL     1     -35.188  23.882   5.937  0.00  0.00    +0.002 C 
ATOM      6  C   UNL     1     -35.052  21.538   5.011  0.00  0.00    +0.002 C 
ATOM      7  C   UNL     1     -35.264  22.393   6.258  0.00  0.00    +0.000 C 
ENDBRANCH   1   2
BRANCH   1  10
ATOM      8  S   UNL     1     -36.334  23.759  -0.106  0.00  0.00    -0.027 S 
ATOM      9  S   UNL     1     -36.351  26.226   1.506  0.00  0.00    -0.027 S 
ATOM     10  C   UNL     1     -36.565  24.511   1.435  0.00  0.00    +0.121 C 
ENDBRANCH   1  10
BRANCH   1  11
ATOM     11  C   UNL     1     -38.211  23.086   2.622  0.00  0.00    +0.123 C 
BRANCH  11  12
ATOM     12  C   UNL     1     -39.362  23.968   2.138  0.00  0.00    +0.154 C 
BRANCH  12  13
ATOM     13  O   UNL     1     -40.446  23.142   1.715  0.00  0.00    -0.381 OA
ATOM     14  H   UNL     1     -40.234  22.213   1.898  0.00  0.00    +0.210 HD
ENDBRANCH  12  13
BRANCH  12  15
ATOM     15  C   UNL     1     -39.866  24.922   3.216  0.00  0.00    +0.189 C 
BRANCH  15  16
ATOM     16  S   UNL     1     -40.831  26.232   2.524  0.00  0.00    +0.025 S 
ATOM     17  O   UNL     1     -39.913  26.851   1.569  0.00  0.00    -0.069 OA
ATOM     18  O   UNL     1     -41.964  25.528   1.925  0.00  0.00    -0.069 OA
ATOM     19  O   UNL     1     -41.158  27.053   3.688  0.00  0.00    -0.069 OA
ENDBRANCH  15  16
ENDBRANCH  12  15
ENDBRANCH  11  12
ENDBRANCH   1  11
TORSDOF 7
ENDMDL
MODEL 9
REMARK VINA RESULT:      -4.5      5.426      6.753
REMARK  Name = 21155434
REMARK  7 active torsions:
REMARK  status: ('A' for Active; 'I' for Inactive)
REMARK    1  A    between atoms: N_1  and  C_2
REMARK    2  A    between atoms: N_1  and  C_10
REMARK    3  A    between atoms: N_1  and  C_11
REMARK    4  A    between atoms: C_11  and  C_12
REMARK    5  A    between atoms: C_12  and  O_13
REMARK    6  A    between atoms: C_12  and  C_15
REMARK    7  A    between atoms: C_15  and  S_16
REMARK                            x       y       z     vdW  Elec       q    Type
REMARK                         _______ _______ _______ _____ _____    ______ ____
ROOT
ATOM      1  N   UNL     1     -36.677  22.273   2.276  0.00  0.00    -0.296 N 
ENDROOT
BRANCH   1   2
ATOM      2  C   UNL     1     -36.672  22.958   3.546  0.00  0.00    +0.074 C 
ATOM      3  C   UNL     1     -35.503  22.484   4.414  0.00  0.00    +0.020 C 
ATOM      4  C   UNL     1     -36.633  24.474   3.338  0.00  0.00    +0.020 C 
ATOM      5  C   UNL     1     -35.447  23.236   5.741  0.00  0.00    +0.002 C 
ATOM      6  C   UNL     1     -36.574  25.223   4.667  0.00  0.00    +0.002 C 
ATOM      7  C   UNL     1     -35.409  24.746   5.531  0.00  0.00    +0.000 C 
ENDBRANCH   1   2
BRANCH   1  10
ATOM      8  S   UNL     1     -39.349  22.134   1.828  0.00  0.00    -0.027 S 
ATOM      9  S   UNL     1     -37.427  22.853  -0.286  0.00  0.00    -0.027 S 
ATOM     10  C   UNL     1     -37.706  22.409   1.362  0.00  0.00    +0.121 C 
ENDBRANCH   1  10
BRANCH   1  11
ATOM     11  C   UNL     1     -35.425  21.594   1.893  0.00  0.00    +0.123 C 
BRANCH  11  12
ATOM     12  C   UNL     1     -35.530  20.071   1.962  0.00  0.00    +0.154 C 
BRANCH  12  13
ATOM     13  O   UNL     1     -36.756  19.710   2.598  0.00  0.00    -0.381 OA
ATOM     14  H   UNL     1     -37.488  19.815   1.970  0.00  0.00    +0.210 HD
ENDBRANCH  12  13
BRANCH  12  15
ATOM     15  C   UNL     1     -35.480  19.414   0.587  0.00  0.00    +0.189 C 
BRANCH  15  16
ATOM     16  S   UNL     1     -33.943  18.582   0.320  0.00  0.00    +0.025 S 
ATOM     17  O   UNL     1     -33.277  18.694   1.616  0.00  0.00    -0.069 OA
ATOM     18  O   UNL     1     -34.358  17.230  -0.048  0.00  0.00    -0.069 OA
ATOM     19  O   UNL     1     -33.331  19.356  -0.759  0.00  0.00    -0.069 OA
ENDBRANCH  15  16
ENDBRANCH  12  15
ENDBRANCH  11  12
ENDBRANCH   1  11
TORSDOF 7
ENDMDL
