MODEL 1
REMARK VINA RESULT:      -6.4      0.000      0.000
REMARK  Name = 55886
REMARK  8 active torsions:
REMARK  status: ('A' for Active; 'I' for Inactive)
REMARK    1  A    between atoms: C_7  and  N_16
REMARK    2  A    between atoms: C_8  and  O_24
REMARK    3  A    between atoms: C_9  and  N_20
REMARK    4  A    between atoms: C_10  and  O_26
REMARK    5  A    between atoms: C_11  and  O_28
REMARK    6  A    between atoms: C_13  and  C_30
REMARK    7  A    between atoms: C_30  and  C_31
REMARK    8  A    between atoms: C_31  and  C_32
REMARK                            x       y       z     vdW  Elec       q    Type
REMARK                         _______ _______ _______ _____ _____    ______ ____
ROOT
ATOM      1  O   UNL     1     -37.851  23.992   3.574  0.00  0.00    -0.327 OA
ATOM      2  O   UNL     1     -37.040  26.341   2.271  0.00  0.00    -0.324 OA
ATOM      3  O   UNL     1     -39.325  26.508   2.831  0.00  0.00    -0.329 OA
ATOM      4  O   UNL     1     -40.109  22.705   1.766  0.00  0.00    -0.291 OA
ATOM      5  C   UNL     1     -36.526  24.512   3.747  0.00  0.00    +0.131 C 
ATOM      6  C   UNL     1     -36.590  26.033   3.598  0.00  0.00    +0.168 C 
ATOM      7  C   UNL     1     -35.989  24.128   5.133  0.00  0.00    -0.006 C 
ATOM      8  C   UNL     1     -35.228  26.693   3.838  0.00  0.00    +0.123 C 
ATOM      9  C   UNL     1     -34.662  26.283   5.211  0.00  0.00    -0.006 C 
ATOM     10  C   UNL     1     -34.600  24.752   5.370  0.00  0.00    +0.077 C 
ATOM     11  C   UNL     1     -38.367  24.301   2.276  0.00  0.00    +0.291 C 
ATOM     12  C   UNL     1     -38.359  25.819   2.027  0.00  0.00    +0.296 C 
ATOM     13  C   UNL     1     -40.660  26.061   2.581  0.00  0.00    +0.125 C 
ATOM     14  C   UNL     1     -39.794  23.777   2.282  0.00  0.00    +0.209 C 
ATOM     15  C   UNL     1     -40.804  24.614   3.028  0.00  0.00    +0.099 C 
ENDROOT
BRANCH   7  16
ATOM     16  N   UNL     1     -35.916  22.671   5.258  0.00  0.00    +0.387 N 
ATOM     17  C   UNL     1     -35.400  22.294   6.563  0.00  0.00    -0.105 C 
ATOM     18  H   UNL     1     -35.297  22.303   4.534  0.00  0.00    -0.084 HD
ATOM     19  H   UNL     1     -36.853  22.283   5.150  0.00  0.00    -0.084 HD
ENDBRANCH   7  16
BRANCH   9  20
ATOM     20  N   UNL     1     -33.325  26.856   5.401  0.00  0.00    +0.387 N 
ATOM     21  C   UNL     1     -32.975  26.878   6.812  0.00  0.00    -0.105 C 
ATOM     22  H   UNL     1     -33.314  27.810   5.039  0.00  0.00    -0.084 HD
ATOM     23  H   UNL     1     -32.646  26.282   4.902  0.00  0.00    -0.084 HD
ENDBRANCH   9  20
BRANCH   8  24
ATOM     24  O   UNL     1     -35.432  28.107   3.806  0.00  0.00    -0.384 OA
ATOM     25  H   UNL     1     -34.828  28.536   4.432  0.00  0.00    +0.210 HD
ENDBRANCH   8  24
BRANCH  10  26
ATOM     26  O   UNL     1     -33.679  24.209   4.419  0.00  0.00    -0.388 OA
ATOM     27  H   UNL     1     -34.155  23.969   3.609  0.00  0.00    +0.210 HD
ENDBRANCH  10  26
BRANCH  11  28
ATOM     28  O   UNL     1     -37.676  23.607   1.245  0.00  0.00    -0.355 OA
ATOM     29  H   UNL     1     -36.974  23.062   1.636  0.00  0.00    +0.213 HD
ENDBRANCH  11  28
BRANCH  13  30
ATOM     30  C   UNL     1     -41.605  26.967   3.360  0.00  0.00    +0.030 C 
BRANCH  30  31
ATOM     31  C   UNL     1     -43.065  26.674   3.022  0.00  0.00    +0.003 C 
BRANCH  31  32
ATOM     32  C   UNL     1     -43.988  27.044   4.182  0.00  0.00    +0.000 C 
ATOM     33  C   UNL     1     -45.298  26.275   4.121  0.00  0.00    +0.000 C 
ENDBRANCH  31  32
ENDBRANCH  30  31
ENDBRANCH  13  30
TORSDOF 8
ENDMDL
MODEL 2
REMARK VINA RESULT:      -6.1      3.440      6.042
REMARK  Name = 55886
REMARK  8 active torsions:
REMARK  status: ('A' for Active; 'I' for Inactive)
REMARK    1  A    between atoms: C_7  and  N_16
REMARK    2  A    between atoms: C_8  and  O_24
REMARK    3  A    between atoms: C_9  and  N_20
REMARK    4  A    between atoms: C_10  and  O_26
REMARK    5  A    between atoms: C_11  and  O_28
REMARK    6  A    between atoms: C_13  and  C_30
REMARK    7  A    between atoms: C_30  and  C_31
REMARK    8  A    between atoms: C_31  and  C_32
REMARK                            x       y       z     vdW  Elec       q    Type
REMARK                         _______ _______ _______ _____ _____    ______ ____
ROOT
ATOM      1  O   UNL     1     -36.654  25.182   2.525  0.00  0.00    -0.327 OA
ATOM      2  O   UNL     1     -35.533  24.945   5.086  0.00  0.00    -0.324 OA
ATOM      3  O   UNL     1     -35.353  22.880   3.961  0.00  0.00    -0.329 OA
ATOM      4  O   UNL     1     -39.060  23.128   2.413  0.00  0.00    -0.291 OA
ATOM      5  C   UNL     1     -35.973  26.285   3.137  0.00  0.00    +0.131 C 
ATOM      6  C   UNL     1     -34.893  25.721   4.063  0.00  0.00    +0.168 C 
ATOM      7  C   UNL     1     -35.344  27.178   2.058  0.00  0.00    -0.006 C 
ATOM      8  C   UNL     1     -34.057  26.828   4.714  0.00  0.00    +0.123 C 
ATOM      9  C   UNL     1     -33.453  27.754   3.640  0.00  0.00    -0.006 C 
ATOM     10  C   UNL     1     -34.535  28.320   2.700  0.00  0.00    +0.077 C 
ATOM     11  C   UNL     1     -37.282  24.350   3.503  0.00  0.00    +0.291 C 
ATOM     12  C   UNL     1     -36.258  23.834   4.528  0.00  0.00    +0.296 C 
ATOM     13  C   UNL     1     -36.025  21.729   3.444  0.00  0.00    +0.125 C 
ATOM     14  C   UNL     1     -37.870  23.189   2.718  0.00  0.00    +0.209 C 
ATOM     15  C   UNL     1     -36.890  22.135   2.259  0.00  0.00    +0.099 C 
ENDROOT
BRANCH   7  16
ATOM     16  N   UNL     1     -36.388  27.725   1.188  0.00  0.00    +0.387 N 
ATOM     17  C   UNL     1     -35.820  28.178  -0.071  0.00  0.00    -0.105 C 
ATOM     18  H   UNL     1     -36.836  28.514   1.657  0.00  0.00    -0.084 HD
ATOM     19  H   UNL     1     -37.074  26.996   0.996  0.00  0.00    -0.084 HD
ENDBRANCH   7  16
BRANCH   9  20
ATOM     20  N   UNL     1     -32.718  28.854   4.272  0.00  0.00    +0.387 N 
ATOM     21  C   UNL     1     -31.819  29.483   3.319  0.00  0.00    -0.105 C 
ATOM     22  H   UNL     1     -32.175  28.489   5.055  0.00  0.00    -0.084 HD
ATOM     23  H   UNL     1     -33.387  29.550   4.602  0.00  0.00    -0.084 HD
ENDBRANCH   9  20
BRANCH   8  24
ATOM     24  O   UNL     1     -33.006  26.191   5.444  0.00  0.00    -0.384 OA
ATOM     25  H   UNL     1     -32.742  26.754   6.188  0.00  0.00    +0.210 HD
ENDBRANCH   8  24
BRANCH  10  26
ATOM     26  O   UNL     1     -35.424  29.158   3.444  0.00  0.00    -0.388 OA
ATOM     27  H   UNL     1     -35.016  30.030   3.570  0.00  0.00    +0.210 HD
ENDBRANCH  10  26
BRANCH  11  28
ATOM     28  O   UNL     1     -38.369  25.005   4.147  0.00  0.00    -0.355 OA
ATOM     29  H   UNL     1     -38.270  25.965   4.050  0.00  0.00    +0.213 HD
ENDBRANCH  11  28
BRANCH  13  30
ATOM     30  C   UNL     1     -34.963  20.723   3.021  0.00  0.00    +0.030 C 
BRANCH  30  31
ATOM     31  C   UNL     1     -35.161  20.278   1.573  0.00  0.00    +0.003 C 
BRANCH  31  32
ATOM     32  C   UNL     1     -33.822  19.990   0.895  0.00  0.00    +0.000 C 
ATOM     33  C   UNL     1     -33.196  18.707   1.419  0.00  0.00    +0.000 C 
ENDBRANCH  31  32
ENDBRANCH  30  31
ENDBRANCH  13  30
TORSDOF 8
ENDMDL
MODEL 3
REMARK VINA RESULT:      -6.1      4.099      7.101
REMARK  Name = 55886
REMARK  8 active torsions:
REMARK  status: ('A' for Active; 'I' for Inactive)
REMARK    1  A    between atoms: C_7  and  N_16
REMARK    2  A    between atoms: C_8  and  O_24
REMARK    3  A    between atoms: C_9  and  N_20
REMARK    4  A    between atoms: C_10  and  O_26
REMARK    5  A    between atoms: C_11  and  O_28
REMARK    6  A    between atoms: C_13  and  C_30
REMARK    7  A    between atoms: C_30  and  C_31
REMARK    8  A    between atoms: C_31  and  C_32
REMARK                            x       y       z     vdW  Elec       q    Type
REMARK                         _______ _______ _______ _____ _____    ______ ____
ROOT
ATOM      1  O   UNL     1     -36.867  22.681   1.466  0.00  0.00    -0.327 OA
ATOM      2  O   UNL     1     -35.959  21.692   3.930  0.00  0.00    -0.324 OA
ATOM      3  O   UNL     1     -34.814  20.601   2.180  0.00  0.00    -0.329 OA
ATOM      4  O   UNL     1     -38.129  20.217  -0.071  0.00  0.00    -0.291 OA
ATOM      5  C   UNL     1     -36.782  23.532   2.617  0.00  0.00    +0.131 C 
ATOM      6  C   UNL     1     -35.641  23.024   3.500  0.00  0.00    +0.168 C 
ATOM      7  C   UNL     1     -36.520  24.981   2.179  0.00  0.00    -0.006 C 
ATOM      8  C   UNL     1     -35.421  23.915   4.727  0.00  0.00    +0.123 C 
ATOM      9  C   UNL     1     -35.196  25.378   4.301  0.00  0.00    -0.006 C 
ATOM     10  C   UNL     1     -36.339  25.895   3.406  0.00  0.00    +0.077 C 
ATOM     11  C   UNL     1     -37.148  21.329   1.838  0.00  0.00    +0.291 C 
ATOM     12  C   UNL     1     -36.085  20.793   2.812  0.00  0.00    +0.296 C 
ATOM     13  C   UNL     1     -34.878  19.669   1.097  0.00  0.00    +0.125 C 
ATOM     14  C   UNL     1     -37.111  20.544   0.537  0.00  0.00    +0.209 C 
ATOM     15  C   UNL     1     -35.739  20.246  -0.018  0.00  0.00    +0.099 C 
ENDROOT
BRANCH   7  16
ATOM     16  N   UNL     1     -37.627  25.462   1.349  0.00  0.00    +0.387 N 
ATOM     17  C   UNL     1     -37.282  26.727   0.720  0.00  0.00    -0.105 C 
ATOM     18  H   UNL     1     -38.453  25.593   1.934  0.00  0.00    -0.084 HD
ATOM     19  H   UNL     1     -37.817  24.774   0.621  0.00  0.00    -0.084 HD
ENDBRANCH   7  16
BRANCH   9  20
ATOM     20  N   UNL     1     -35.063  26.237   5.481  0.00  0.00    +0.387 N 
ATOM     21  C   UNL     1     -33.676  26.626   5.677  0.00  0.00    -0.105 C 
ATOM     22  H   UNL     1     -35.387  25.728   6.305  0.00  0.00    -0.084 HD
ATOM     23  H   UNL     1     -35.624  27.077   5.343  0.00  0.00    -0.084 HD
ENDBRANCH   9  20
BRANCH   8  24
ATOM     24  O   UNL     1     -34.258  23.427   5.400  0.00  0.00    -0.384 OA
ATOM     25  H   UNL     1     -33.957  24.086   6.045  0.00  0.00    +0.210 HD
ENDBRANCH   8  24
BRANCH  10  26
ATOM     26  O   UNL     1     -37.559  25.917   4.153  0.00  0.00    -0.388 OA
ATOM     27  H   UNL     1     -37.537  25.220   4.827  0.00  0.00    +0.210 HD
ENDBRANCH  10  26
BRANCH  11  28
ATOM     28  O   UNL     1     -38.457  21.180   2.373  0.00  0.00    -0.355 OA
ATOM     29  H   UNL     1     -38.827  20.329   2.088  0.00  0.00    +0.213 HD
ENDBRANCH  11  28
BRANCH  13  30
ATOM     30  C   UNL     1     -33.456  19.422   0.614  0.00  0.00    +0.030 C 
BRANCH  30  31
ATOM     31  C   UNL     1     -32.769  18.332   1.435  0.00  0.00    +0.003 C 
BRANCH  31  32
ATOM     32  C   UNL     1     -31.364  18.044   0.909  0.00  0.00    +0.000 C 
ATOM     33  C   UNL     1     -30.815  19.218   0.114  0.00  0.00    +0.000 C 
ENDBRANCH  31  32
ENDBRANCH  30  31
ENDBRANCH  13  30
TORSDOF 8
ENDMDL
MODEL 4
REMARK VINA RESULT:      -5.8      3.495      6.059
REMARK  Name = 55886
REMARK  8 active torsions:
REMARK  status: ('A' for Active; 'I' for Inactive)
REMARK    1  A    between atoms: C_7  and  N_16
REMARK    2  A    between atoms: C_8  and  O_24
REMARK    3  A    between atoms: C_9  and  N_20
REMARK    4  A    between atoms: C_10  and  O_26
REMARK    5  A    between atoms: C_11  and  O_28
REMARK    6  A    between atoms: C_13  and  C_30
REMARK    7  A    between atoms: C_30  and  C_31
REMARK    8  A    between atoms: C_31  and  C_32
REMARK                            x       y       z     vdW  Elec       q    Type
REMARK                         _______ _______ _______ _____ _____    ______ ____
ROOT
ATOM      1  O   UNL     1     -36.323  24.322   1.333  0.00  0.00    -0.327 OA
ATOM      2  O   UNL     1     -37.214  23.274   3.779  0.00  0.00    -0.324 OA
ATOM      3  O   UNL     1     -36.543  21.505   2.370  0.00  0.00    -0.329 OA
ATOM      4  O   UNL     1     -38.242  23.142  -0.892  0.00  0.00    -0.291 OA
ATOM      5  C   UNL     1     -36.112  25.032   2.561  0.00  0.00    +0.131 C 
ATOM      6  C   UNL     1     -35.982  24.004   3.687  0.00  0.00    +0.168 C 
ATOM      7  C   UNL     1     -34.840  25.885   2.461  0.00  0.00    -0.006 C 
ATOM      8  C   UNL     1     -35.681  24.665   5.037  0.00  0.00    +0.123 C 
ATOM      9  C   UNL     1     -34.428  25.555   4.937  0.00  0.00    -0.006 C 
ATOM     10  C   UNL     1     -34.550  26.588   3.801  0.00  0.00    +0.077 C 
ATOM     11  C   UNL     1     -37.522  23.544   1.381  0.00  0.00    +0.291 C 
ATOM     12  C   UNL     1     -37.495  22.559   2.562  0.00  0.00    +0.296 C 
ATOM     13  C   UNL     1     -36.816  20.730   1.200  0.00  0.00    +0.125 C 
ATOM     14  C   UNL     1     -37.555  22.785   0.064  0.00  0.00    +0.209 C 
ATOM     15  C   UNL     1     -36.631  21.595  -0.038  0.00  0.00    +0.099 C 
ENDROOT
BRANCH   7  16
ATOM     16  N   UNL     1     -34.982  26.876   1.391  0.00  0.00    +0.387 N 
ATOM     17  C   UNL     1     -33.817  26.862   0.522  0.00  0.00    -0.105 C 
ATOM     18  H   UNL     1     -35.081  27.804   1.805  0.00  0.00    -0.084 HD
ATOM     19  H   UNL     1     -35.808  26.648   0.838  0.00  0.00    -0.084 HD
ENDBRANCH   7  16
BRANCH   9  20
ATOM     20  N   UNL     1     -34.190  26.243   6.210  0.00  0.00    +0.387 N 
ATOM     21  C   UNL     1     -32.939  26.981   6.167  0.00  0.00    -0.105 C 
ATOM     22  H   UNL     1     -34.147  25.554   6.961  0.00  0.00    -0.084 HD
ATOM     23  H   UNL     1     -34.953  26.899   6.378  0.00  0.00    -0.084 HD
ENDBRANCH   9  20
BRANCH   8  24
ATOM     24  O   UNL     1     -35.451  23.615   5.979  0.00  0.00    -0.384 OA
ATOM     25  H   UNL     1     -34.529  23.647   6.280  0.00  0.00    +0.210 HD
ENDBRANCH   8  24
BRANCH  10  26
ATOM     26  O   UNL     1     -35.618  27.495   4.091  0.00  0.00    -0.388 OA
ATOM     27  H   UNL     1     -36.219  27.538   3.330  0.00  0.00    +0.210 HD
ENDBRANCH  10  26
BRANCH  11  28
ATOM     28  O   UNL     1     -38.689  24.358   1.418  0.00  0.00    -0.355 OA
ATOM     29  H   UNL     1     -38.848  24.653   2.328  0.00  0.00    +0.213 HD
ENDBRANCH  11  28
BRANCH  13  30
ATOM     30  C   UNL     1     -35.850  19.553   1.190  0.00  0.00    +0.030 C 
BRANCH  30  31
ATOM     31  C   UNL     1     -34.531  19.907   1.875  0.00  0.00    +0.003 C 
BRANCH  31  32
ATOM     32  C   UNL     1     -33.396  19.007   1.389  0.00  0.00    +0.000 C 
ATOM     33  C   UNL     1     -32.386  19.782   0.558  0.00  0.00    +0.000 C 
ENDBRANCH  31  32
ENDBRANCH  30  31
ENDBRANCH  13  30
TORSDOF 8
ENDMDL
MODEL 5
REMARK VINA RESULT:      -5.7      3.825      6.473
REMARK  Name = 55886
REMARK  8 active torsions:
REMARK  status: ('A' for Active; 'I' for Inactive)
REMARK    1  A    between atoms: C_7  and  N_16
REMARK    2  A    between atoms: C_8  and  O_24
REMARK    3  A    between atoms: C_9  and  N_20
REMARK    4  A    between atoms: C_10  and  O_26
REMARK    5  A    between atoms: C_11  and  O_28
REMARK    6  A    between atoms: C_13  and  C_30
REMARK    7  A    between atoms: C_30  and  C_31
REMARK    8  A    between atoms: C_31  and  C_32
REMARK                            x       y       z     vdW  Elec       q    Type
REMARK                         _______ _______ _______ _____ _____    ______ ____
ROOT
ATOM      1  O   UNL     1     -35.927  26.641   3.062  0.00  0.00    -0.327 OA
ATOM      2  O   UNL     1     -33.613  25.846   4.437  0.00  0.00    -0.324 OA
ATOM      3  O   UNL     1     -34.426  24.034   3.163  0.00  0.00    -0.329 OA
ATOM      4  O   UNL     1     -38.267  24.783   4.110  0.00  0.00    -0.291 OA
ATOM      5  C   UNL     1     -34.855  27.564   3.300  0.00  0.00    +0.131 C 
ATOM      6  C   UNL     1     -33.547  26.771   3.343  0.00  0.00    +0.168 C 
ATOM      7  C   UNL     1     -34.811  28.615   2.181  0.00  0.00    -0.006 C 
ATOM      8  C   UNL     1     -32.328  27.682   3.521  0.00  0.00    +0.123 C 
ATOM      9  C   UNL     1     -32.296  28.766   2.426  0.00  0.00    -0.006 C 
ATOM     10  C   UNL     1     -33.613  29.563   2.373  0.00  0.00    +0.077 C 
ATOM     11  C   UNL     1     -36.017  25.669   4.108  0.00  0.00    +0.291 C 
ATOM     12  C   UNL     1     -34.691  24.907   4.269  0.00  0.00    +0.296 C 
ATOM     13  C   UNL     1     -35.444  23.046   2.992  0.00  0.00    +0.125 C 
ATOM     14  C   UNL     1     -37.120  24.718   3.670  0.00  0.00    +0.209 C 
ATOM     15  C   UNL     1     -36.749  23.723   2.596  0.00  0.00    +0.099 C 
ENDROOT
BRANCH   7  16
ATOM     16  N   UNL     1     -36.062  29.379   2.161  0.00  0.00    +0.387 N 
ATOM     17  C   UNL     1     -36.197  30.105   0.909  0.00  0.00    -0.105 C 
ATOM     18  H   UNL     1     -36.062  30.043   2.936  0.00  0.00    -0.084 HD
ATOM     19  H   UNL     1     -36.845  28.732   2.252  0.00  0.00    -0.084 HD
ENDBRANCH   7  16
BRANCH   9  20
ATOM     20  N   UNL     1     -31.171  29.679   2.647  0.00  0.00    +0.387 N 
ATOM     21  C   UNL     1     -30.952  30.514   1.478  0.00  0.00    -0.105 C 
ATOM     22  H   UNL     1     -30.328  29.135   2.832  0.00  0.00    -0.084 HD
ATOM     23  H   UNL     1     -31.385  30.279   3.444  0.00  0.00    -0.084 HD
ENDBRANCH   9  20
BRANCH   8  24
ATOM     24  O   UNL     1     -31.165  26.858   3.414  0.00  0.00    -0.384 OA
ATOM     25  H   UNL     1     -30.627  26.952   4.216  0.00  0.00    +0.210 HD
ENDBRANCH   8  24
BRANCH  10  26
ATOM     26  O   UNL     1     -33.784  30.287   3.596  0.00  0.00    -0.388 OA
ATOM     27  H   UNL     1     -32.926  30.378   4.039  0.00  0.00    +0.210 HD
ENDBRANCH  10  26
BRANCH  11  28
ATOM     28  O   UNL     1     -36.433  26.243   5.341  0.00  0.00    -0.355 OA
ATOM     29  H   UNL     1     -37.336  26.587   5.248  0.00  0.00    +0.213 HD
ENDBRANCH  11  28
BRANCH  13  30
ATOM     30  C   UNL     1     -34.979  22.085   1.905  0.00  0.00    +0.030 C 
BRANCH  30  31
ATOM     31  C   UNL     1     -35.189  20.630   2.320  0.00  0.00    +0.003 C 
BRANCH  31  32
ATOM     32  C   UNL     1     -34.275  19.693   1.533  0.00  0.00    +0.000 C 
ATOM     33  C   UNL     1     -33.369  20.462   0.585  0.00  0.00    +0.000 C 
ENDBRANCH  31  32
ENDBRANCH  30  31
ENDBRANCH  13  30
TORSDOF 8
ENDMDL
MODEL 6
REMARK VINA RESULT:      -5.7      3.084      6.627
REMARK  Name = 55886
REMARK  8 active torsions:
REMARK  status: ('A' for Active; 'I' for Inactive)
REMARK    1  A    between atoms: C_7  and  N_16
REMARK    2  A    between atoms: C_8  and  O_24
REMARK    3  A    between atoms: C_9  and  N_20
REMARK    4  A    between atoms: C_10  and  O_26
REMARK    5  A    between atoms: C_11  and  O_28
REMARK    6  A    between atoms: C_13  and  C_30
REMARK    7  A    between atoms: C_30  and  C_31
REMARK    8  A    between atoms: C_31  and  C_32
REMARK                            x       y       z     vdW  Elec       q    Type
REMARK                         _______ _______ _______ _____ _____    ______ ____
ROOT
ATOM      1  O   UNL     1     -35.985  23.420   3.105  0.00  0.00    -0.327 OA
ATOM      2  O   UNL     1     -38.240  24.895   3.889  0.00  0.00    -0.324 OA
ATOM      3  O   UNL     1     -36.487  26.377   3.348  0.00  0.00    -0.329 OA
ATOM      4  O   UNL     1     -33.697  24.124   5.177  0.00  0.00    -0.291 OA
ATOM      5  C   UNL     1     -37.310  22.958   2.807  0.00  0.00    +0.131 C 
ATOM      6  C   UNL     1     -38.214  24.182   2.644  0.00  0.00    +0.168 C 
ATOM      7  C   UNL     1     -37.296  22.124   1.518  0.00  0.00    -0.006 C 
ATOM      8  C   UNL     1     -39.643  23.794   2.251  0.00  0.00    +0.123 C 
ATOM      9  C   UNL     1     -39.637  22.923   0.980  0.00  0.00    -0.006 C 
ATOM     10  C   UNL     1     -38.724  21.692   1.135  0.00  0.00    +0.077 C 
ATOM     11  C   UNL     1     -35.958  24.171   4.322  0.00  0.00    +0.291 C 
ATOM     12  C   UNL     1     -36.929  25.362   4.257  0.00  0.00    +0.296 C 
ATOM     13  C   UNL     1     -35.211  26.913   3.707  0.00  0.00    +0.125 C 
ATOM     14  C   UNL     1     -34.526  24.668   4.449  0.00  0.00    +0.209 C 
ATOM     15  C   UNL     1     -34.148  25.832   3.566  0.00  0.00    +0.099 C 
ENDROOT
BRANCH   7  16
ATOM     16  N   UNL     1     -36.441  20.946   1.691  0.00  0.00    +0.387 N 
ATOM     17  C   UNL     1     -35.505  20.827   0.586  0.00  0.00    -0.105 C 
ATOM     18  H   UNL     1     -37.026  20.110   1.728  0.00  0.00    -0.084 HD
ATOM     19  H   UNL     1     -35.915  21.045   2.559  0.00  0.00    -0.084 HD
ENDBRANCH   7  16
BRANCH   9  20
ATOM     20  N   UNL     1     -41.000  22.492   0.653  0.00  0.00    +0.387 N 
ATOM     21  C   UNL     1     -41.057  21.955  -0.696  0.00  0.00    -0.105 C 
ATOM     22  H   UNL     1     -41.631  23.291   0.722  0.00  0.00    -0.084 HD
ATOM     23  H   UNL     1     -41.282  21.764   1.310  0.00  0.00    -0.084 HD
ENDBRANCH   9  20
BRANCH   8  24
ATOM     24  O   UNL     1     -40.355  25.007   1.999  0.00  0.00    -0.384 OA
ATOM     25  H   UNL     1     -40.392  25.168   1.042  0.00  0.00    +0.210 HD
ENDBRANCH   8  24
BRANCH  10  26
ATOM     26  O   UNL     1     -39.242  20.837   2.159  0.00  0.00    -0.388 OA
ATOM     27  H   UNL     1     -40.203  20.957   2.224  0.00  0.00    +0.210 HD
ENDBRANCH  10  26
BRANCH  11  28
ATOM     28  O   UNL     1     -36.216  23.359   5.461  0.00  0.00    -0.355 OA
ATOM     29  H   UNL     1     -35.414  23.301   6.005  0.00  0.00    +0.213 HD
ENDBRANCH  11  28
BRANCH  13  30
ATOM     30  C   UNL     1     -34.922  28.084   2.777  0.00  0.00    +0.030 C 
BRANCH  30  31
ATOM     31  C   UNL     1     -33.620  28.788   3.155  0.00  0.00    +0.003 C 
BRANCH  31  32
ATOM     32  C   UNL     1     -33.795  30.306   3.164  0.00  0.00    +0.000 C 
ATOM     33  C   UNL     1     -35.252  30.701   2.989  0.00  0.00    +0.000 C 
ENDBRANCH  31  32
ENDBRANCH  30  31
ENDBRANCH  13  30
TORSDOF 8
ENDMDL
MODEL 7
REMARK VINA RESULT:      -5.6      3.673      6.598
REMARK  Name = 55886
REMARK  8 active torsions:
REMARK  status: ('A' for Active; 'I' for Inactive)
REMARK    1  A    between atoms: C_7  and  N_16
REMARK    2  A    between atoms: C_8  and  O_24
REMARK    3  A    between atoms: C_9  and  N_20
REMARK    4  A    between atoms: C_10  and  O_26
REMARK    5  A    between atoms: C_11  and  O_28
REMARK    6  A    between atoms: C_13  and  C_30
REMARK    7  A    between atoms: C_30  and  C_31
REMARK    8  A    between atoms: C_31  and  C_32
REMARK                            x       y       z     vdW  Elec       q    Type
REMARK                         _______ _______ _______ _____ _____    ______ ____
ROOT
ATOM      1  O   UNL     1     -35.019  23.380   3.199  0.00  0.00    -0.327 OA
ATOM      2  O   UNL     1     -37.726  23.966   3.645  0.00  0.00    -0.324 OA
ATOM      3  O   UNL     1     -36.600  25.931   2.984  0.00  0.00    -0.329 OA
ATOM      4  O   UNL     1     -33.377  25.135   5.261  0.00  0.00    -0.291 OA
ATOM      5  C   UNL     1     -36.040  22.418   2.904  0.00  0.00    +0.131 C 
ATOM      6  C   UNL     1     -37.311  23.178   2.520  0.00  0.00    +0.168 C 
ATOM      7  C   UNL     1     -35.588  21.509   1.752  0.00  0.00    -0.006 C 
ATOM      8  C   UNL     1     -38.447  22.233   2.114  0.00  0.00    +0.123 C 
ATOM      9  C   UNL     1     -37.991  21.290   0.985  0.00  0.00    -0.006 C 
ATOM     10  C   UNL     1     -36.707  20.525   1.364  0.00  0.00    +0.077 C 
ATOM     11  C   UNL     1     -35.395  24.220   4.294  0.00  0.00    +0.291 C 
ATOM     12  C   UNL     1     -36.726  24.936   4.007  0.00  0.00    +0.296 C 
ATOM     13  C   UNL     1     -35.657  26.949   3.326  0.00  0.00    +0.125 C 
ATOM     14  C   UNL     1     -34.270  25.235   4.420  0.00  0.00    +0.209 C 
ATOM     15  C   UNL     1     -34.262  26.346   3.398  0.00  0.00    +0.099 C 
ENDROOT
BRANCH   7  16
ATOM     16  N   UNL     1     -34.380  20.774   2.138  0.00  0.00    +0.387 N 
ATOM     17  C   UNL     1     -33.867  20.008   1.014  0.00  0.00    -0.105 C 
ATOM     18  H   UNL     1     -34.606  20.136   2.903  0.00  0.00    -0.084 HD
ATOM     19  H   UNL     1     -33.668  21.441   2.434  0.00  0.00    -0.084 HD
ENDBRANCH   7  16
BRANCH   9  20
ATOM     20  N   UNL     1     -39.056  20.338   0.656  0.00  0.00    +0.387 N 
ATOM     21  C   UNL     1     -38.849  19.776  -0.669  0.00  0.00    -0.105 C 
ATOM     22  H   UNL     1     -39.955  20.820   0.678  0.00  0.00    -0.084 HD
ATOM     23  H   UNL     1     -39.046  19.581   1.340  0.00  0.00    -0.084 HD
ENDBRANCH   9  20
BRANCH   8  24
ATOM     24  O   UNL     1     -39.528  23.046   1.653  0.00  0.00    -0.384 OA
ATOM     25  H   UNL     1     -39.987  22.593   0.928  0.00  0.00    +0.210 HD
ENDBRANCH   8  24
BRANCH  10  26
ATOM     26  O   UNL     1     -36.974  19.662   2.473  0.00  0.00    -0.388 OA
ATOM     27  H   UNL     1     -37.683  20.043   3.015  0.00  0.00    +0.210 HD
ENDBRANCH  10  26
BRANCH  11  28
ATOM     28  O   UNL     1     -35.449  23.508   5.524  0.00  0.00    -0.355 OA
ATOM     29  H   UNL     1     -36.358  23.209   5.685  0.00  0.00    +0.213 HD
ENDBRANCH  11  28
BRANCH  13  30
ATOM     30  C   UNL     1     -35.729  28.026   2.252  0.00  0.00    +0.030 C 
BRANCH  30  31
ATOM     31  C   UNL     1     -34.640  29.080   2.444  0.00  0.00    +0.003 C 
BRANCH  31  32
ATOM     32  C   UNL     1     -35.243  30.460   2.700  0.00  0.00    +0.000 C 
ATOM     33  C   UNL     1     -34.167  31.496   2.982  0.00  0.00    +0.000 C 
ENDBRANCH  31  32
ENDBRANCH  30  31
ENDBRANCH  13  30
TORSDOF 8
ENDMDL
MODEL 8
REMARK VINA RESULT:      -5.6      5.056      8.212
REMARK  Name = 55886
REMARK  8 active torsions:
REMARK  status: ('A' for Active; 'I' for Inactive)
REMARK    1  A    between atoms: C_7  and  N_16
REMARK    2  A    between atoms: C_8  and  O_24
REMARK    3  A    between atoms: C_9  and  N_20
REMARK    4  A    between atoms: C_10  and  O_26
REMARK    5  A    between atoms: C_11  and  O_28
REMARK    6  A    between atoms: C_13  and  C_30
REMARK    7  A    between atoms: C_30  and  C_31
REMARK    8  A    between atoms: C_31  and  C_32
REMARK                            x       y       z     vdW  Elec       q    Type
REMARK                         _______ _______ _______ _____ _____    ______ ____
ROOT
ATOM      1  O   UNL     1     -36.393  21.233   0.498  0.00  0.00    -0.327 OA
ATOM      2  O   UNL     1     -35.360  20.637   3.038  0.00  0.00    -0.324 OA
ATOM      3  O   UNL     1     -33.650  20.414   1.428  0.00  0.00    -0.329 OA
ATOM      4  O   UNL     1     -36.066  18.603  -1.235  0.00  0.00    -0.291 OA
ATOM      5  C   UNL     1     -36.868  21.915   1.666  0.00  0.00    +0.131 C 
ATOM      6  C   UNL     1     -35.721  21.978   2.678  0.00  0.00    +0.168 C 
ATOM      7  C   UNL     1     -37.335  23.329   1.294  0.00  0.00    -0.006 C 
ATOM      8  C   UNL     1     -36.109  22.756   3.940  0.00  0.00    +0.123 C 
ATOM      9  C   UNL     1     -36.617  24.164   3.574  0.00  0.00    -0.006 C 
ATOM     10  C   UNL     1     -37.768  24.107   2.550  0.00  0.00    +0.077 C 
ATOM     11  C   UNL     1     -35.983  19.897   0.805  0.00  0.00    +0.291 C 
ATOM     12  C   UNL     1     -34.899  19.890   1.897  0.00  0.00    +0.296 C 
ATOM     13  C   UNL     1     -33.124  19.667   0.328  0.00  0.00    +0.125 C 
ATOM     14  C   UNL     1     -35.422  19.345  -0.495  0.00  0.00    +0.209 C 
ATOM     15  C   UNL     1     -34.041  19.822  -0.877  0.00  0.00    +0.099 C 
ENDROOT
BRANCH   7  16
ATOM     16  N   UNL     1     -38.444  23.256   0.338  0.00  0.00    +0.387 N 
ATOM     17  C   UNL     1     -38.674  24.552  -0.278  0.00  0.00    -0.105 C 
ATOM     18  H   UNL     1     -39.290  22.963   0.828  0.00  0.00    -0.084 HD
ATOM     19  H   UNL     1     -38.208  22.582  -0.390  0.00  0.00    -0.084 HD
ENDBRANCH   7  16
BRANCH   9  20
ATOM     20  N   UNL     1     -37.058  24.874   4.778  0.00  0.00    +0.387 N 
ATOM     21  C   UNL     1     -36.154  25.970   5.086  0.00  0.00    -0.105 C 
ATOM     22  H   UNL     1     -37.075  24.223   5.564  0.00  0.00    -0.084 HD
ATOM     23  H   UNL     1     -37.991  25.253   4.614  0.00  0.00    -0.084 HD
ENDBRANCH   9  20
BRANCH   8  24
ATOM     24  O   UNL     1     -34.934  22.864   4.746  0.00  0.00    -0.384 OA
ATOM     25  H   UNL     1     -34.335  23.522   4.359  0.00  0.00    +0.210 HD
ENDBRANCH   8  24
BRANCH  10  26
ATOM     26  O   UNL     1     -38.898  23.454   3.136  0.00  0.00    -0.388 OA
ATOM     27  H   UNL     1     -38.709  22.507   3.232  0.00  0.00    +0.210 HD
ENDBRANCH  10  26
BRANCH  11  28
ATOM     28  O   UNL     1     -37.081  19.068   1.166  0.00  0.00    -0.355 OA
ATOM     29  H   UNL     1     -37.157  18.339   0.530  0.00  0.00    +0.213 HD
ENDBRANCH  11  28
BRANCH  13  30
ATOM     30  C   UNL     1     -31.733  20.207   0.026  0.00  0.00    +0.030 C 
BRANCH  30  31
ATOM     31  C   UNL     1     -30.750  19.078  -0.278  0.00  0.00    +0.003 C 
BRANCH  31  32
ATOM     32  C   UNL     1     -30.795  17.998   0.801  0.00  0.00    +0.000 C 
ATOM     33  C   UNL     1     -29.403  17.491   1.142  0.00  0.00    +0.000 C 
ENDBRANCH  31  32
ENDBRANCH  30  31
ENDBRANCH  13  30
TORSDOF 8
ENDMDL
MODEL 9
REMARK VINA RESULT:      -5.5      3.743      5.748
REMARK  Name = 55886
REMARK  8 active torsions:
REMARK  status: ('A' for Active; 'I' for Inactive)
REMARK    1  A    between atoms: C_7  and  N_16
REMARK    2  A    between atoms: C_8  and  O_24
REMARK    3  A    between atoms: C_9  and  N_20
REMARK    4  A    between atoms: C_10  and  O_26
REMARK    5  A    between atoms: C_11  and  O_28
REMARK    6  A    between atoms: C_13  and  C_30
REMARK    7  A    between atoms: C_30  and  C_31
REMARK    8  A    between atoms: C_31  and  C_32
REMARK                            x       y       z     vdW  Elec       q    Type
REMARK                         _______ _______ _______ _____ _____    ______ ____
ROOT
ATOM      1  O   UNL     1     -35.450  24.091   1.664  0.00  0.00    -0.327 OA
ATOM      2  O   UNL     1     -36.112  22.204   3.633  0.00  0.00    -0.324 OA
ATOM      3  O   UNL     1     -37.896  23.726   3.379  0.00  0.00    -0.329 OA
ATOM      4  O   UNL     1     -35.453  26.913   3.099  0.00  0.00    -0.291 OA
ATOM      5  C   UNL     1     -35.000  22.733   1.567  0.00  0.00    +0.131 C 
ATOM      6  C   UNL     1     -36.038  21.838   2.248  0.00  0.00    +0.168 C 
ATOM      7  C   UNL     1     -34.836  22.340   0.091  0.00  0.00    -0.006 C 
ATOM      8  C   UNL     1     -35.681  20.352   2.133  0.00  0.00    +0.123 C 
ATOM      9  C   UNL     1     -35.476  19.957   0.659  0.00  0.00    -0.006 C 
ATOM     10  C   UNL     1     -34.437  20.858  -0.035  0.00  0.00    +0.077 C 
ATOM     11  C   UNL     1     -35.578  24.500   3.029  0.00  0.00    +0.291 C 
ATOM     12  C   UNL     1     -36.534  23.571   3.796  0.00  0.00    +0.296 C 
ATOM     13  C   UNL     1     -38.379  25.057   3.576  0.00  0.00    +0.125 C 
ATOM     14  C   UNL     1     -36.150  25.907   2.969  0.00  0.00    +0.209 C 
ATOM     15  C   UNL     1     -37.624  26.012   2.661  0.00  0.00    +0.099 C 
ENDROOT
BRANCH   7  16
ATOM     16  N   UNL     1     -33.829  23.191  -0.546  0.00  0.00    +0.387 N 
ATOM     17  C   UNL     1     -34.197  23.477  -1.923  0.00  0.00    -0.105 C 
ATOM     18  H   UNL     1     -32.927  22.712  -0.533  0.00  0.00    -0.084 HD
ATOM     19  H   UNL     1     -33.767  24.070  -0.033  0.00  0.00    -0.084 HD
ENDBRANCH   7  16
BRANCH   9  20
ATOM     20  N   UNL     1     -35.061  18.554   0.562  0.00  0.00    +0.387 N 
ATOM     21  C   UNL     1     -35.563  17.955  -0.664  0.00  0.00    -0.105 C 
ATOM     22  H   UNL     1     -35.429  18.038   1.362  0.00  0.00    -0.084 HD
ATOM     23  H   UNL     1     -34.042  18.512   0.555  0.00  0.00    -0.084 HD
ENDBRANCH   9  20
BRANCH   8  24
ATOM     24  O   UNL     1     -36.774  19.613   2.681  0.00  0.00    -0.384 OA
ATOM     25  H   UNL     1     -37.084  18.963   2.030  0.00  0.00    +0.210 HD
ENDBRANCH   8  24
BRANCH  10  26
ATOM     26  O   UNL     1     -33.156  20.668   0.574  0.00  0.00    -0.388 OA
ATOM     27  H   UNL     1     -32.489  21.177   0.087  0.00  0.00    +0.210 HD
ENDBRANCH  10  26
BRANCH  11  28
ATOM     28  O   UNL     1     -34.318  24.593   3.681  0.00  0.00    -0.355 OA
ATOM     29  H   UNL     1     -33.808  23.785   3.516  0.00  0.00    +0.213 HD
ENDBRANCH  11  28
BRANCH  13  30
ATOM     30  C   UNL     1     -39.868  25.062   3.256  0.00  0.00    +0.030 C 
BRANCH  30  31
ATOM     31  C   UNL     1     -40.159  25.820   1.962  0.00  0.00    +0.003 C 
BRANCH  31  32
ATOM     32  C   UNL     1     -41.431  26.656   2.084  0.00  0.00    +0.000 C 
ATOM     33  C   UNL     1     -41.912  26.733   3.524  0.00  0.00    +0.000 C 
ENDBRANCH  31  32
ENDBRANCH  30  31
ENDBRANCH  13  30
TORSDOF 8
ENDMDL
