MODEL 1
REMARK VINA RESULT:      -5.3      0.000      0.000
REMARK  Name = 193692
REMARK  8 active torsions:
REMARK  status: ('A' for Active; 'I' for Inactive)
REMARK    1  A    between atoms: C_2  and  O_7
REMARK    2  A    between atoms: C_3  and  O_9
REMARK    3  A    between atoms: C_4  and  O_11
REMARK    4  A    between atoms: C_5  and  C_18
REMARK    5  A    between atoms: C_6  and  O_13
REMARK    6  A    between atoms: O_13  and  C_14
REMARK    7  A    between atoms: C_14  and  C_16
REMARK    8  A    between atoms: C_18  and  O_19
REMARK                            x       y       z     vdW  Elec       q    Type
REMARK                         _______ _______ _______ _____ _____    ______ ____
ROOT
ATOM      1  O   UNL     1     -37.160  23.010   3.723  0.00  0.00    -0.326 OA
ATOM      2  C   UNL     1     -36.402  25.676   4.476  0.00  0.00    +0.172 C 
ATOM      3  C   UNL     1     -35.881  24.438   5.205  0.00  0.00    +0.169 C 
ATOM      4  C   UNL     1     -37.707  25.377   3.740  0.00  0.00    +0.196 C 
ATOM      5  C   UNL     1     -35.859  23.225   4.272  0.00  0.00    +0.176 C 
ATOM      6  C   UNL     1     -37.597  24.097   2.909  0.00  0.00    +0.266 C 
ENDROOT
BRANCH   2   7
ATOM      7  O   UNL     1     -36.627  26.700   5.446  0.00  0.00    -0.379 OA
ATOM      8  H   UNL     1     -37.308  27.310   5.121  0.00  0.00    +0.211 HD
ENDBRANCH   2   7
BRANCH   3   9
ATOM      9  O   UNL     1     -34.561  24.692   5.681  0.00  0.00    -0.379 OA
ATOM     10  H   UNL     1     -34.580  25.426   6.313  0.00  0.00    +0.211 HD
ENDBRANCH   3   9
BRANCH   4  11
ATOM     11  O   UNL     1     -38.012  26.457   2.857  0.00  0.00    -0.378 OA
ATOM     12  H   UNL     1     -37.450  26.398   2.069  0.00  0.00    +0.211 HD
ENDBRANCH   4  11
BRANCH   6  13
ATOM     13  O   UNL     1     -38.887  23.809   2.372  0.00  0.00    -0.326 OA
BRANCH  13  14
ATOM     14  C   UNL     1     -39.076  22.412   2.205  0.00  0.00    +0.177 C 
BRANCH  14  16
ATOM     15  O   UNL     1     -40.653  20.985   0.985  0.00  0.00    -0.348 OA
ATOM     16  C   UNL     1     -39.842  22.161   0.952  0.00  0.00    +0.174 C 
ATOM     17  C   UNL     1     -39.536  20.979   0.088  0.00  0.00    +0.174 C 
ENDBRANCH  14  16
ENDBRANCH  13  14
ENDBRANCH   6  13
BRANCH   5  18
ATOM     18  C   UNL     1     -35.454  21.953   5.008  0.00  0.00    +0.169 C 
BRANCH  18  19
ATOM     19  O   UNL     1     -36.038  21.981   6.291  0.00  0.00    -0.379 OA
ATOM     20  H   UNL     1     -35.434  22.416   6.912  0.00  0.00    +0.211 HD
ENDBRANCH  18  19
ENDBRANCH   5  18
TORSDOF 8
ENDMDL
MODEL 2
REMARK VINA RESULT:      -5.3      2.349      5.210
REMARK  Name = 193692
REMARK  8 active torsions:
REMARK  status: ('A' for Active; 'I' for Inactive)
REMARK    1  A    between atoms: C_2  and  O_7
REMARK    2  A    between atoms: C_3  and  O_9
REMARK    3  A    between atoms: C_4  and  O_11
REMARK    4  A    between atoms: C_5  and  C_18
REMARK    5  A    between atoms: C_6  and  O_13
REMARK    6  A    between atoms: O_13  and  C_14
REMARK    7  A    between atoms: C_14  and  C_16
REMARK    8  A    between atoms: C_18  and  O_19
REMARK                            x       y       z     vdW  Elec       q    Type
REMARK                         _______ _______ _______ _____ _____    ______ ____
ROOT
ATOM      1  O   UNL     1     -35.138  24.092   5.496  0.00  0.00    -0.326 OA
ATOM      2  C   UNL     1     -37.036  24.031   3.342  0.00  0.00    +0.172 C 
ATOM      3  C   UNL     1     -36.133  22.842   3.675  0.00  0.00    +0.169 C 
ATOM      4  C   UNL     1     -36.450  25.338   3.876  0.00  0.00    +0.196 C 
ATOM      5  C   UNL     1     -35.750  22.848   5.156  0.00  0.00    +0.176 C 
ATOM      6  C   UNL     1     -36.022  25.200   5.338  0.00  0.00    +0.266 C 
ENDROOT
BRANCH   2   7
ATOM      7  O   UNL     1     -37.160  24.109   1.922  0.00  0.00    -0.379 OA
ATOM      8  H   UNL     1     -36.442  23.606   1.506  0.00  0.00    +0.211 HD
ENDBRANCH   2   7
BRANCH   3   9
ATOM      9  O   UNL     1     -36.818  21.630   3.368  0.00  0.00    -0.379 OA
ATOM     10  H   UNL     1     -36.348  20.883   3.769  0.00  0.00    +0.211 HD
ENDBRANCH   3   9
BRANCH   4  11
ATOM     11  O   UNL     1     -37.435  26.367   3.794  0.00  0.00    -0.378 OA
ATOM     12  H   UNL     1     -38.228  26.094   4.282  0.00  0.00    +0.211 HD
ENDBRANCH   4  11
BRANCH   6  13
ATOM     13  O   UNL     1     -35.358  26.405   5.717  0.00  0.00    -0.326 OA
BRANCH  13  14
ATOM     14  C   UNL     1     -33.958  26.208   5.834  0.00  0.00    +0.177 C 
BRANCH  14  16
ATOM     15  O   UNL     1     -34.063  27.876   4.040  0.00  0.00    -0.348 OA
ATOM     16  C   UNL     1     -33.243  27.222   5.010  0.00  0.00    +0.174 C 
ATOM     17  C   UNL     1     -33.033  27.012   3.544  0.00  0.00    +0.174 C 
ENDBRANCH  14  16
ENDBRANCH  13  14
ENDBRANCH   6  13
BRANCH   5  18
ATOM     18  C   UNL     1     -34.756  21.740   5.487  0.00  0.00    +0.169 C 
BRANCH  18  19
ATOM     19  O   UNL     1     -35.484  20.578   5.812  0.00  0.00    -0.379 OA
ATOM     20  H   UNL     1     -35.601  20.036   5.017  0.00  0.00    +0.211 HD
ENDBRANCH  18  19
ENDBRANCH   5  18
TORSDOF 8
ENDMDL
MODEL 3
REMARK VINA RESULT:      -5.0      3.192      6.774
REMARK  Name = 193692
REMARK  8 active torsions:
REMARK  status: ('A' for Active; 'I' for Inactive)
REMARK    1  A    between atoms: C_2  and  O_7
REMARK    2  A    between atoms: C_3  and  O_9
REMARK    3  A    between atoms: C_4  and  O_11
REMARK    4  A    between atoms: C_5  and  C_18
REMARK    5  A    between atoms: C_6  and  O_13
REMARK    6  A    between atoms: O_13  and  C_14
REMARK    7  A    between atoms: C_14  and  C_16
REMARK    8  A    between atoms: C_18  and  O_19
REMARK                            x       y       z     vdW  Elec       q    Type
REMARK                         _______ _______ _______ _____ _____    ______ ____
ROOT
ATOM      1  O   UNL     1     -34.072  24.753   5.226  0.00  0.00    -0.326 OA
ATOM      2  C   UNL     1     -36.272  25.877   3.760  0.00  0.00    +0.172 C 
ATOM      3  C   UNL     1     -36.139  24.375   4.018  0.00  0.00    +0.169 C 
ATOM      4  C   UNL     1     -34.919  26.579   3.865  0.00  0.00    +0.196 C 
ATOM      5  C   UNL     1     -35.346  24.112   5.300  0.00  0.00    +0.176 C 
ATOM      6  C   UNL     1     -34.178  26.173   5.140  0.00  0.00    +0.266 C 
ENDROOT
BRANCH   2   7
ATOM      7  O   UNL     1     -36.801  26.055   2.446  0.00  0.00    -0.379 OA
ATOM      8  H   UNL     1     -36.082  26.287   1.837  0.00  0.00    +0.211 HD
ENDBRANCH   2   7
BRANCH   3   9
ATOM      9  O   UNL     1     -37.438  23.801   4.139  0.00  0.00    -0.379 OA
ATOM     10  H   UNL     1     -38.071  24.485   4.404  0.00  0.00    +0.211 HD
ENDBRANCH   3   9
BRANCH   4  11
ATOM     11  O   UNL     1     -35.119  27.991   3.895  0.00  0.00    -0.378 OA
ATOM     12  H   UNL     1     -35.898  28.196   4.435  0.00  0.00    +0.211 HD
ENDBRANCH   4  11
BRANCH   6  13
ATOM     13  O   UNL     1     -32.875  26.752   5.095  0.00  0.00    -0.326 OA
BRANCH  13  14
ATOM     14  C   UNL     1     -32.571  27.434   6.302  0.00  0.00    +0.177 C 
BRANCH  14  16
ATOM     15  O   UNL     1     -30.511  28.749   6.502  0.00  0.00    -0.348 OA
ATOM     16  C   UNL     1     -31.844  28.696   5.990  0.00  0.00    +0.174 C 
ATOM     17  C   UNL     1     -31.464  29.653   7.076  0.00  0.00    +0.174 C 
ENDBRANCH  14  16
ENDBRANCH  13  14
ENDBRANCH   6  13
BRANCH   5  18
ATOM     18  C   UNL     1     -35.099  22.622   5.515  0.00  0.00    +0.169 C 
BRANCH  18  19
ATOM     19  O   UNL     1     -36.179  22.100   6.255  0.00  0.00    -0.379 OA
ATOM     20  H   UNL     1     -35.917  21.261   6.662  0.00  0.00    +0.211 HD
ENDBRANCH  18  19
ENDBRANCH   5  18
TORSDOF 8
ENDMDL
MODEL 4
REMARK VINA RESULT:      -4.9      2.072      5.310
REMARK  Name = 193692
REMARK  8 active torsions:
REMARK  status: ('A' for Active; 'I' for Inactive)
REMARK    1  A    between atoms: C_2  and  O_7
REMARK    2  A    between atoms: C_3  and  O_9
REMARK    3  A    between atoms: C_4  and  O_11
REMARK    4  A    between atoms: C_5  and  C_18
REMARK    5  A    between atoms: C_6  and  O_13
REMARK    6  A    between atoms: O_13  and  C_14
REMARK    7  A    between atoms: C_14  and  C_16
REMARK    8  A    between atoms: C_18  and  O_19
REMARK                            x       y       z     vdW  Elec       q    Type
REMARK                         _______ _______ _______ _____ _____    ______ ____
ROOT
ATOM      1  O   UNL     1     -35.536  23.572   3.487  0.00  0.00    -0.326 OA
ATOM      2  C   UNL     1     -37.822  25.250   3.940  0.00  0.00    +0.172 C 
ATOM      3  C   UNL     1     -37.843  24.085   2.950  0.00  0.00    +0.169 C 
ATOM      4  C   UNL     1     -36.395  25.729   4.202  0.00  0.00    +0.196 C 
ATOM      5  C   UNL     1     -36.840  23.004   3.361  0.00  0.00    +0.176 C 
ATOM      6  C   UNL     1     -35.464  24.556   4.516  0.00  0.00    +0.266 C 
ENDROOT
BRANCH   2   7
ATOM      7  O   UNL     1     -38.587  26.319   3.381  0.00  0.00    -0.379 OA
ATOM      8  H   UNL     1     -38.812  26.110   2.461  0.00  0.00    +0.211 HD
ENDBRANCH   2   7
BRANCH   3   9
ATOM      9  O   UNL     1     -39.153  23.524   2.909  0.00  0.00    -0.379 OA
ATOM     10  H   UNL     1     -39.662  23.943   2.199  0.00  0.00    +0.211 HD
ENDBRANCH   3   9
BRANCH   4  11
ATOM     11  O   UNL     1     -36.390  26.614   5.321  0.00  0.00    -0.378 OA
ATOM     12  H   UNL     1     -35.475  26.801   5.582  0.00  0.00    +0.211 HD
ENDBRANCH   4  11
BRANCH   6  13
ATOM     13  O   UNL     1     -34.133  25.063   4.607  0.00  0.00    -0.326 OA
BRANCH  13  14
ATOM     14  C   UNL     1     -33.704  25.611   3.370  0.00  0.00    +0.177 C 
BRANCH  14  16
ATOM     15  O   UNL     1     -33.632  27.742   4.579  0.00  0.00    -0.348 OA
ATOM     16  C   UNL     1     -32.999  26.900   3.614  0.00  0.00    +0.174 C 
ATOM     17  C   UNL     1     -33.621  28.203   3.222  0.00  0.00    +0.174 C 
ENDBRANCH  14  16
ENDBRANCH  13  14
ENDBRANCH   6  13
BRANCH   5  18
ATOM     18  C   UNL     1     -36.759  21.887   2.327  0.00  0.00    +0.169 C 
BRANCH  18  19
ATOM     19  O   UNL     1     -37.866  21.035   2.511  0.00  0.00    -0.379 OA
ATOM     20  H   UNL     1     -37.828  20.642   3.396  0.00  0.00    +0.211 HD
ENDBRANCH  18  19
ENDBRANCH   5  18
TORSDOF 8
ENDMDL
MODEL 5
REMARK VINA RESULT:      -4.7      1.971      2.716
REMARK  Name = 193692
REMARK  8 active torsions:
REMARK  status: ('A' for Active; 'I' for Inactive)
REMARK    1  A    between atoms: C_2  and  O_7
REMARK    2  A    between atoms: C_3  and  O_9
REMARK    3  A    between atoms: C_4  and  O_11
REMARK    4  A    between atoms: C_5  and  C_18
REMARK    5  A    between atoms: C_6  and  O_13
REMARK    6  A    between atoms: O_13  and  C_14
REMARK    7  A    between atoms: C_14  and  C_16
REMARK    8  A    between atoms: C_18  and  O_19
REMARK                            x       y       z     vdW  Elec       q    Type
REMARK                         _______ _______ _______ _____ _____    ______ ____
ROOT
ATOM      1  O   UNL     1     -36.760  22.869   3.860  0.00  0.00    -0.326 OA
ATOM      2  C   UNL     1     -37.780  25.472   3.205  0.00  0.00    +0.172 C 
ATOM      3  C   UNL     1     -37.127  25.162   4.552  0.00  0.00    +0.169 C 
ATOM      4  C   UNL     1     -38.300  24.200   2.536  0.00  0.00    +0.196 C 
ATOM      5  C   UNL     1     -36.120  24.017   4.417  0.00  0.00    +0.176 C 
ATOM      6  C   UNL     1     -37.241  23.098   2.537  0.00  0.00    +0.266 C 
ENDROOT
BRANCH   2   7
ATOM      7  O   UNL     1     -38.869  26.367   3.436  0.00  0.00    -0.379 OA
ATOM      8  H   UNL     1     -38.565  27.282   3.322  0.00  0.00    +0.211 HD
ENDBRANCH   2   7
BRANCH   3   9
ATOM      9  O   UNL     1     -36.458  26.326   5.030  0.00  0.00    -0.379 OA
ATOM     10  H   UNL     1     -37.112  26.971   5.341  0.00  0.00    +0.211 HD
ENDBRANCH   3   9
BRANCH   4  11
ATOM     11  O   UNL     1     -38.647  24.485   1.181  0.00  0.00    -0.378 OA
ATOM     12  H   UNL     1     -39.612  24.534   1.097  0.00  0.00    +0.211 HD
ENDBRANCH   4  11
BRANCH   6  13
ATOM     13  O   UNL     1     -37.844  21.907   2.030  0.00  0.00    -0.326 OA
BRANCH  13  14
ATOM     14  C   UNL     1     -37.051  21.322   1.009  0.00  0.00    +0.177 C 
BRANCH  14  16
ATOM     15  O   UNL     1     -35.591  20.173   2.609  0.00  0.00    -0.348 OA
ATOM     16  C   UNL     1     -36.480  20.036   1.499  0.00  0.00    +0.174 C 
ATOM     17  C   UNL     1     -35.018  19.744   1.367  0.00  0.00    +0.174 C 
ENDBRANCH  14  16
ENDBRANCH  13  14
ENDBRANCH   6  13
BRANCH   5  18
ATOM     18  C   UNL     1     -35.542  23.612   5.769  0.00  0.00    +0.169 C 
BRANCH  18  19
ATOM     19  O   UNL     1     -36.082  22.359   6.121  0.00  0.00    -0.379 OA
ATOM     20  H   UNL     1     -35.972  22.215   7.073  0.00  0.00    +0.211 HD
ENDBRANCH  18  19
ENDBRANCH   5  18
TORSDOF 8
ENDMDL
MODEL 6
REMARK VINA RESULT:      -4.7      2.035      5.246
REMARK  Name = 193692
REMARK  8 active torsions:
REMARK  status: ('A' for Active; 'I' for Inactive)
REMARK    1  A    between atoms: C_2  and  O_7
REMARK    2  A    between atoms: C_3  and  O_9
REMARK    3  A    between atoms: C_4  and  O_11
REMARK    4  A    between atoms: C_5  and  C_18
REMARK    5  A    between atoms: C_6  and  O_13
REMARK    6  A    between atoms: O_13  and  C_14
REMARK    7  A    between atoms: C_14  and  C_16
REMARK    8  A    between atoms: C_18  and  O_19
REMARK                            x       y       z     vdW  Elec       q    Type
REMARK                         _______ _______ _______ _____ _____    ______ ____
ROOT
ATOM      1  O   UNL     1     -36.661  23.377   2.726  0.00  0.00    -0.326 OA
ATOM      2  C   UNL     1     -39.531  23.333   2.601  0.00  0.00    +0.172 C 
ATOM      3  C   UNL     1     -38.667  22.202   2.041  0.00  0.00    +0.169 C 
ATOM      4  C   UNL     1     -38.738  24.636   2.701  0.00  0.00    +0.196 C 
ATOM      5  C   UNL     1     -37.333  22.118   2.784  0.00  0.00    +0.176 C 
ATOM      6  C   UNL     1     -37.386  24.414   3.382  0.00  0.00    +0.266 C 
ENDROOT
BRANCH   2   7
ATOM      7  O   UNL     1     -40.642  23.519   1.723  0.00  0.00    -0.379 OA
ATOM      8  H   UNL     1     -40.547  24.364   1.255  0.00  0.00    +0.211 HD
ENDBRANCH   2   7
BRANCH   3   9
ATOM      9  O   UNL     1     -39.364  20.966   2.178  0.00  0.00    -0.379 OA
ATOM     10  H   UNL     1     -38.765  20.295   2.540  0.00  0.00    +0.211 HD
ENDBRANCH   3   9
BRANCH   4  11
ATOM     11  O   UNL     1     -39.477  25.582   3.474  0.00  0.00    -0.378 OA
ATOM     12  H   UNL     1     -40.404  25.301   3.527  0.00  0.00    +0.211 HD
ENDBRANCH   4  11
BRANCH   6  13
ATOM     13  O   UNL     1     -36.652  25.636   3.309  0.00  0.00    -0.326 OA
BRANCH  13  14
ATOM     14  C   UNL     1     -35.254  25.404   3.393  0.00  0.00    +0.177 C 
BRANCH  14  16
ATOM     15  O   UNL     1     -33.318  26.025   4.763  0.00  0.00    -0.348 OA
ATOM     16  C   UNL     1     -34.649  26.358   4.363  0.00  0.00    +0.174 C 
ATOM     17  C   UNL     1     -34.339  25.938   5.765  0.00  0.00    +0.174 C 
ENDBRANCH  14  16
ENDBRANCH  13  14
ENDBRANCH   6  13
BRANCH   5  18
ATOM     18  C   UNL     1     -36.408  21.074   2.167  0.00  0.00    +0.169 C 
BRANCH  18  19
ATOM     19  O   UNL     1     -36.798  19.805   2.640  0.00  0.00    -0.379 OA
ATOM     20  H   UNL     1     -36.136  19.474   3.265  0.00  0.00    +0.211 HD
ENDBRANCH  18  19
ENDBRANCH   5  18
TORSDOF 8
ENDMDL
MODEL 7
REMARK VINA RESULT:      -4.6      2.016      2.569
REMARK  Name = 193692
REMARK  8 active torsions:
REMARK  status: ('A' for Active; 'I' for Inactive)
REMARK    1  A    between atoms: C_2  and  O_7
REMARK    2  A    between atoms: C_3  and  O_9
REMARK    3  A    between atoms: C_4  and  O_11
REMARK    4  A    between atoms: C_5  and  C_18
REMARK    5  A    between atoms: C_6  and  O_13
REMARK    6  A    between atoms: O_13  and  C_14
REMARK    7  A    between atoms: C_14  and  C_16
REMARK    8  A    between atoms: C_18  and  O_19
REMARK                            x       y       z     vdW  Elec       q    Type
REMARK                         _______ _______ _______ _____ _____    ______ ____
ROOT
ATOM      1  O   UNL     1     -37.077  23.331   4.067  0.00  0.00    -0.326 OA
ATOM      2  C   UNL     1     -35.779  25.892   4.134  0.00  0.00    +0.172 C 
ATOM      3  C   UNL     1     -35.539  24.822   5.200  0.00  0.00    +0.169 C 
ATOM      4  C   UNL     1     -37.111  25.671   3.417  0.00  0.00    +0.196 C 
ATOM      5  C   UNL     1     -35.766  23.422   4.626  0.00  0.00    +0.176 C 
ATOM      6  C   UNL     1     -37.266  24.218   2.966  0.00  0.00    +0.266 C 
ENDROOT
BRANCH   2   7
ATOM      7  O   UNL     1     -35.791  27.166   4.779  0.00  0.00    -0.379 OA
ATOM      8  H   UNL     1     -35.167  27.158   5.522  0.00  0.00    +0.211 HD
ENDBRANCH   2   7
BRANCH   3   9
ATOM      9  O   UNL     1     -34.200  24.926   5.678  0.00  0.00    -0.379 OA
ATOM     10  H   UNL     1     -33.595  25.029   4.928  0.00  0.00    +0.211 HD
ENDBRANCH   3   9
BRANCH   4  11
ATOM     11  O   UNL     1     -37.171  26.506   2.262  0.00  0.00    -0.378 OA
ATOM     12  H   UNL     1     -37.500  27.383   2.514  0.00  0.00    +0.211 HD
ENDBRANCH   4  11
BRANCH   6  13
ATOM     13  O   UNL     1     -38.583  24.059   2.440  0.00  0.00    -0.326 OA
BRANCH  13  14
ATOM     14  C   UNL     1     -39.560  24.582   3.326  0.00  0.00    +0.177 C 
BRANCH  14  16
ATOM     15  O   UNL     1     -40.227  26.736   2.362  0.00  0.00    -0.348 OA
ATOM     16  C   UNL     1     -40.567  25.361   2.553  0.00  0.00    +0.174 C 
ATOM     17  C   UNL     1     -41.356  26.455   3.200  0.00  0.00    +0.174 C 
ENDBRANCH  14  16
ENDBRANCH  13  14
ENDBRANCH   6  13
BRANCH   5  18
ATOM     18  C   UNL     1     -35.647  22.345   5.699  0.00  0.00    +0.169 C 
BRANCH  18  19
ATOM     19  O   UNL     1     -35.470  21.103   5.059  0.00  0.00    -0.379 OA
ATOM     20  H   UNL     1     -35.865  20.401   5.598  0.00  0.00    +0.211 HD
ENDBRANCH  18  19
ENDBRANCH   5  18
TORSDOF 8
ENDMDL
MODEL 8
REMARK VINA RESULT:      -4.6      2.082      4.898
REMARK  Name = 193692
REMARK  8 active torsions:
REMARK  status: ('A' for Active; 'I' for Inactive)
REMARK    1  A    between atoms: C_2  and  O_7
REMARK    2  A    between atoms: C_3  and  O_9
REMARK    3  A    between atoms: C_4  and  O_11
REMARK    4  A    between atoms: C_5  and  C_18
REMARK    5  A    between atoms: C_6  and  O_13
REMARK    6  A    between atoms: O_13  and  C_14
REMARK    7  A    between atoms: C_14  and  C_16
REMARK    8  A    between atoms: C_18  and  O_19
REMARK                            x       y       z     vdW  Elec       q    Type
REMARK                         _______ _______ _______ _____ _____    ______ ____
ROOT
ATOM      1  O   UNL     1     -36.849  23.705   2.503  0.00  0.00    -0.326 OA
ATOM      2  C   UNL     1     -35.587  22.854   4.939  0.00  0.00    +0.172 C 
ATOM      3  C   UNL     1     -36.170  21.866   3.928  0.00  0.00    +0.169 C 
ATOM      4  C   UNL     1     -36.218  24.238   4.787  0.00  0.00    +0.196 C 
ATOM      5  C   UNL     1     -36.153  22.458   2.517  0.00  0.00    +0.176 C 
ATOM      6  C   UNL     1     -36.226  24.689   3.326  0.00  0.00    +0.266 C 
ENDROOT
BRANCH   2   7
ATOM      7  O   UNL     1     -35.849  22.353   6.250  0.00  0.00    -0.379 OA
ATOM      8  H   UNL     1     -36.472  21.611   6.194  0.00  0.00    +0.211 HD
ENDBRANCH   2   7
BRANCH   3   9
ATOM      9  O   UNL     1     -35.402  20.665   3.946  0.00  0.00    -0.379 OA
ATOM     10  H   UNL     1     -34.942  20.588   4.796  0.00  0.00    +0.211 HD
ENDBRANCH   3   9
BRANCH   4  11
ATOM     11  O   UNL     1     -35.466  25.187   5.543  0.00  0.00    -0.378 OA
ATOM     12  H   UNL     1     -35.452  24.919   6.475  0.00  0.00    +0.211 HD
ENDBRANCH   4  11
BRANCH   6  13
ATOM     13  O   UNL     1     -36.954  25.914   3.247  0.00  0.00    -0.326 OA
BRANCH  13  14
ATOM     14  C   UNL     1     -36.400  26.782   2.270  0.00  0.00    +0.177 C 
BRANCH  14  16
ATOM     15  O   UNL     1     -34.859  27.699   3.944  0.00  0.00    -0.348 OA
ATOM     16  C   UNL     1     -34.998  27.121   2.644  0.00  0.00    +0.174 C 
ATOM     17  C   UNL     1     -34.572  28.544   2.822  0.00  0.00    +0.174 C 
ENDBRANCH  14  16
ENDBRANCH  13  14
ENDBRANCH   6  13
BRANCH   5  18
ATOM     18  C   UNL     1     -36.836  21.538   1.510  0.00  0.00    +0.169 C 
BRANCH  18  19
ATOM     19  O   UNL     1     -37.743  20.717   2.209  0.00  0.00    -0.379 OA
ATOM     20  H   UNL     1     -38.365  21.271   2.705  0.00  0.00    +0.211 HD
ENDBRANCH  18  19
ENDBRANCH   5  18
TORSDOF 8
ENDMDL
MODEL 9
REMARK VINA RESULT:      -4.6      2.079      3.903
REMARK  Name = 193692
REMARK  8 active torsions:
REMARK  status: ('A' for Active; 'I' for Inactive)
REMARK    1  A    between atoms: C_2  and  O_7
REMARK    2  A    between atoms: C_3  and  O_9
REMARK    3  A    between atoms: C_4  and  O_11
REMARK    4  A    between atoms: C_5  and  C_18
REMARK    5  A    between atoms: C_6  and  O_13
REMARK    6  A    between atoms: O_13  and  C_14
REMARK    7  A    between atoms: C_14  and  C_16
REMARK    8  A    between atoms: C_18  and  O_19
REMARK                            x       y       z     vdW  Elec       q    Type
REMARK                         _______ _______ _______ _____ _____    ______ ____
ROOT
ATOM      1  O   UNL     1     -37.222  24.612   2.361  0.00  0.00    -0.326 OA
ATOM      2  C   UNL     1     -35.724  24.799   4.804  0.00  0.00    +0.172 C 
ATOM      3  C   UNL     1     -35.730  25.914   3.758  0.00  0.00    +0.169 C 
ATOM      4  C   UNL     1     -36.108  23.456   4.184  0.00  0.00    +0.196 C 
ATOM      5  C   UNL     1     -37.032  25.897   2.953  0.00  0.00    +0.176 C 
ATOM      6  C   UNL     1     -37.372  23.579   3.332  0.00  0.00    +0.266 C 
ENDROOT
BRANCH   2   7
ATOM      7  O   UNL     1     -34.407  24.711   5.350  0.00  0.00    -0.379 OA
ATOM      8  H   UNL     1     -34.107  23.789   5.324  0.00  0.00    +0.211 HD
ENDBRANCH   2   7
BRANCH   3   9
ATOM      9  O   UNL     1     -35.595  27.174   4.411  0.00  0.00    -0.379 OA
ATOM     10  H   UNL     1     -35.305  27.035   5.326  0.00  0.00    +0.211 HD
ENDBRANCH   3   9
BRANCH   4  11
ATOM     11  O   UNL     1     -36.360  22.509   5.222  0.00  0.00    -0.378 OA
ATOM     12  H   UNL     1     -35.525  22.285   5.663  0.00  0.00    +0.211 HD
ENDBRANCH   4  11
BRANCH   6  13
ATOM     13  O   UNL     1     -37.584  22.328   2.676  0.00  0.00    -0.326 OA
BRANCH  13  14
ATOM     14  C   UNL     1     -36.531  22.036   1.771  0.00  0.00    +0.177 C 
BRANCH  14  16
ATOM     15  O   UNL     1     -35.464  20.297   3.131  0.00  0.00    -0.348 OA
ATOM     16  C   UNL     1     -36.138  20.606   1.910  0.00  0.00    +0.174 C 
ATOM     17  C   UNL     1     -34.697  20.202   1.924  0.00  0.00    +0.174 C 
ENDBRANCH  14  16
ENDBRANCH  13  14
ENDBRANCH   6  13
BRANCH   5  18
ATOM     18  C   UNL     1     -37.013  26.926   1.827  0.00  0.00    +0.169 C 
BRANCH  18  19
ATOM     19  O   UNL     1     -35.669  27.215   1.517  0.00  0.00    -0.379 OA
ATOM     20  H   UNL     1     -35.159  27.300   2.337  0.00  0.00    +0.211 HD
ENDBRANCH  18  19
ENDBRANCH   5  18
TORSDOF 8
ENDMDL
