MODEL 1
REMARK VINA RESULT:      -5.2      0.000      0.000
REMARK  Name = 193108
REMARK  7 active torsions:
REMARK  status: ('A' for Active; 'I' for Inactive)
REMARK    1  A    between atoms: C_2  and  O_13
REMARK    2  A    between atoms: C_3  and  N_8
REMARK    3  A    between atoms: C_4  and  O_15
REMARK    4  A    between atoms: C_5  and  C_19
REMARK    5  A    between atoms: C_6  and  O_17
REMARK    6  A    between atoms: C_9  and  C_12
REMARK    7  A    between atoms: C_19  and  O_20
REMARK                            x       y       z     vdW  Elec       q    Type
REMARK                         _______ _______ _______ _____ _____    ______ ____
ROOT
ATOM      1  O   UNL     1     -35.775  23.310   5.523  0.00  0.00    -0.327 OA
ATOM      2  C   UNL     1     -36.202  23.604   2.702  0.00  0.00    +0.162 C 
ATOM      3  C   UNL     1     -36.268  22.232   3.384  0.00  0.00    +0.158 C 
ATOM      4  C   UNL     1     -36.490  24.731   3.696  0.00  0.00    +0.169 C 
ATOM      5  C   UNL     1     -35.578  24.593   4.918  0.00  0.00    +0.176 C 
ATOM      6  C   UNL     1     -35.422  22.225   4.665  0.00  0.00    +0.253 C 
ENDROOT
BRANCH   3   8
ATOM      7  O   UNL     1     -37.880  20.750   1.508  0.00  0.00    -0.274 OA
ATOM      8  N   UNL     1     -35.817  21.199   2.475  0.00  0.00    -0.299 N 
ATOM      9  C   UNL     1     -36.673  20.543   1.608  0.00  0.00    +0.234 C 
ATOM     10  H   UNL     1     -34.864  20.954   2.474  0.00  0.00    +0.150 HD
BRANCH   9  12
ATOM     11 BR   UNL     1     -34.111  19.526   1.313  0.00  0.00    -0.070 Br
ATOM     12  C   UNL     1     -35.974  19.498   0.780  0.00  0.00    +0.152 C 
ENDBRANCH   9  12
ENDBRANCH   3   8
BRANCH   2  13
ATOM     13  O   UNL     1     -37.146  23.651   1.635  0.00  0.00    -0.380 OA
ATOM     14  H   UNL     1     -37.255  22.763   1.261  0.00  0.00    +0.211 HD
ENDBRANCH   2  13
BRANCH   4  15
ATOM     15  O   UNL     1     -37.853  24.659   4.121  0.00  0.00    -0.379 OA
ATOM     16  H   UNL     1     -38.436  24.867   3.375  0.00  0.00    +0.211 HD
ENDBRANCH   4  15
BRANCH   6  17
ATOM     17  O   UNL     1     -35.656  20.990   5.344  0.00  0.00    -0.359 OA
ATOM     18  H   UNL     1     -34.871  20.754   5.864  0.00  0.00    +0.213 HD
ENDBRANCH   6  17
BRANCH   5  19
ATOM     19  C   UNL     1     -35.868  25.647   5.981  0.00  0.00    +0.169 C 
BRANCH  19  20
ATOM     20  O   UNL     1     -36.508  26.748   5.363  0.00  0.00    -0.379 OA
ATOM     21  H   UNL     1     -35.860  27.451   5.204  0.00  0.00    +0.211 HD
ENDBRANCH  19  20
ENDBRANCH   5  19
TORSDOF 7
ENDMDL
MODEL 2
REMARK VINA RESULT:      -5.0      2.127      2.470
REMARK  Name = 193108
REMARK  7 active torsions:
REMARK  status: ('A' for Active; 'I' for Inactive)
REMARK    1  A    between atoms: C_2  and  O_13
REMARK    2  A    between atoms: C_3  and  N_8
REMARK    3  A    between atoms: C_4  and  O_15
REMARK    4  A    between atoms: C_5  and  C_19
REMARK    5  A    between atoms: C_6  and  O_17
REMARK    6  A    between atoms: C_9  and  C_12
REMARK    7  A    between atoms: C_19  and  O_20
REMARK                            x       y       z     vdW  Elec       q    Type
REMARK                         _______ _______ _______ _____ _____    ______ ____
ROOT
ATOM      1  O   UNL     1     -34.996  24.331   5.811  0.00  0.00    -0.327 OA
ATOM      2  C   UNL     1     -36.084  25.189   3.300  0.00  0.00    +0.162 C 
ATOM      3  C   UNL     1     -36.630  23.956   4.030  0.00  0.00    +0.158 C 
ATOM      4  C   UNL     1     -35.410  26.157   4.274  0.00  0.00    +0.169 C 
ATOM      5  C   UNL     1     -34.368  25.411   5.112  0.00  0.00    +0.176 C 
ATOM      6  C   UNL     1     -35.553  23.346   4.940  0.00  0.00    +0.253 C 
ENDROOT
BRANCH   3   8
ATOM      7  O   UNL     1     -39.310  23.680   3.003  0.00  0.00    -0.274 OA
ATOM      8  N   UNL     1     -37.099  22.975   3.075  0.00  0.00    -0.299 N 
ATOM      9  C   UNL     1     -38.412  22.923   2.641  0.00  0.00    +0.234 C 
ATOM     10  H   UNL     1     -36.457  22.318   2.719  0.00  0.00    +0.150 HD
BRANCH   9  12
ATOM     11 BR   UNL     1     -36.983  20.851   1.480  0.00  0.00    -0.070 Br
ATOM     12  C   UNL     1     -38.660  21.805   1.665  0.00  0.00    +0.152 C 
ENDBRANCH   9  12
ENDBRANCH   3   8
BRANCH   2  13
ATOM     13  O   UNL     1     -37.149  25.852   2.624  0.00  0.00    -0.380 OA
ATOM     14  H   UNL     1     -37.085  26.807   2.778  0.00  0.00    +0.211 HD
ENDBRANCH   2  13
BRANCH   4  15
ATOM     15  O   UNL     1     -36.393  26.720   5.147  0.00  0.00    -0.379 OA
ATOM     16  H   UNL     1     -37.252  26.737   4.698  0.00  0.00    +0.211 HD
ENDBRANCH   4  15
BRANCH   6  17
ATOM     17  O   UNL     1     -36.162  22.315   5.718  0.00  0.00    -0.359 OA
ATOM     18  H   UNL     1     -37.073  22.569   5.934  0.00  0.00    +0.213 HD
ENDBRANCH   6  17
BRANCH   5  19
ATOM     19  C   UNL     1     -33.711  26.308   6.155  0.00  0.00    +0.169 C 
BRANCH  19  20
ATOM     20  O   UNL     1     -33.323  27.518   5.532  0.00  0.00    -0.379 OA
ATOM     21  H   UNL     1     -32.367  27.510   5.376  0.00  0.00    +0.211 HD
ENDBRANCH  19  20
ENDBRANCH   5  19
TORSDOF 7
ENDMDL
MODEL 3
REMARK VINA RESULT:      -5.0      4.136      5.779
REMARK  Name = 193108
REMARK  7 active torsions:
REMARK  status: ('A' for Active; 'I' for Inactive)
REMARK    1  A    between atoms: C_2  and  O_13
REMARK    2  A    between atoms: C_3  and  N_8
REMARK    3  A    between atoms: C_4  and  O_15
REMARK    4  A    between atoms: C_5  and  C_19
REMARK    5  A    between atoms: C_6  and  O_17
REMARK    6  A    between atoms: C_9  and  C_12
REMARK    7  A    between atoms: C_19  and  O_20
REMARK                            x       y       z     vdW  Elec       q    Type
REMARK                         _______ _______ _______ _____ _____    ______ ____
ROOT
ATOM      1  O   UNL     1     -33.946  24.326   4.662  0.00  0.00    -0.327 OA
ATOM      2  C   UNL     1     -36.366  25.865   4.658  0.00  0.00    +0.162 C 
ATOM      3  C   UNL     1     -35.150  26.282   3.822  0.00  0.00    +0.158 C 
ATOM      4  C   UNL     1     -36.352  24.363   4.947  0.00  0.00    +0.169 C 
ATOM      5  C   UNL     1     -35.005  23.963   5.555  0.00  0.00    +0.176 C 
ATOM      6  C   UNL     1     -33.856  25.733   4.441  0.00  0.00    +0.253 C 
ENDROOT
BRANCH   3   8
ATOM      7  O   UNL     1     -35.255  27.846   1.402  0.00  0.00    -0.274 OA
ATOM      8  N   UNL     1     -35.086  27.724   3.715  0.00  0.00    -0.299 N 
ATOM      9  C   UNL     1     -35.145  28.385   2.500  0.00  0.00    +0.234 C 
ATOM     10  H   UNL     1     -34.997  28.256   4.538  0.00  0.00    +0.150 HD
BRANCH   9  12
ATOM     11 BR   UNL     1     -33.293  30.239   3.404  0.00  0.00    -0.070 Br
ATOM     12  C   UNL     1     -35.040  29.879   2.645  0.00  0.00    +0.152 C 
ENDBRANCH   9  12
ENDBRANCH   3   8
BRANCH   2  13
ATOM     13  O   UNL     1     -37.562  26.210   3.963  0.00  0.00    -0.380 OA
ATOM     14  H   UNL     1     -37.486  27.113   3.618  0.00  0.00    +0.211 HD
ENDBRANCH   2  13
BRANCH   4  15
ATOM     15  O   UNL     1     -36.546  23.639   3.730  0.00  0.00    -0.379 OA
ATOM     16  H   UNL     1     -36.549  24.257   2.983  0.00  0.00    +0.211 HD
ENDBRANCH   4  15
BRANCH   6  17
ATOM     17  O   UNL     1     -32.783  26.002   3.537  0.00  0.00    -0.359 OA
ATOM     18  H   UNL     1     -33.135  26.094   2.637  0.00  0.00    +0.213 HD
ENDBRANCH   6  17
BRANCH   5  19
ATOM     19  C   UNL     1     -34.901  22.462   5.799  0.00  0.00    +0.169 C 
BRANCH  19  20
ATOM     20  O   UNL     1     -36.165  21.982   6.218  0.00  0.00    -0.379 OA
ATOM     21  H   UNL     1     -36.261  22.115   7.174  0.00  0.00    +0.211 HD
ENDBRANCH  19  20
ENDBRANCH   5  19
TORSDOF 7
ENDMDL
MODEL 4
REMARK VINA RESULT:      -5.0      2.436      5.565
REMARK  Name = 193108
REMARK  7 active torsions:
REMARK  status: ('A' for Active; 'I' for Inactive)
REMARK    1  A    between atoms: C_2  and  O_13
REMARK    2  A    between atoms: C_3  and  N_8
REMARK    3  A    between atoms: C_4  and  O_15
REMARK    4  A    between atoms: C_5  and  C_19
REMARK    5  A    between atoms: C_6  and  O_17
REMARK    6  A    between atoms: C_9  and  C_12
REMARK    7  A    between atoms: C_19  and  O_20
REMARK                            x       y       z     vdW  Elec       q    Type
REMARK                         _______ _______ _______ _____ _____    ______ ____
ROOT
ATOM      1  O   UNL     1     -36.022  21.961   0.841  0.00  0.00    -0.327 OA
ATOM      2  C   UNL     1     -35.227  21.490   3.556  0.00  0.00    +0.162 C 
ATOM      3  C   UNL     1     -36.064  22.715   3.167  0.00  0.00    +0.158 C 
ATOM      4  C   UNL     1     -35.403  20.355   2.546  0.00  0.00    +0.169 C 
ATOM      5  C   UNL     1     -35.137  20.873   1.130  0.00  0.00    +0.176 C 
ATOM      6  C   UNL     1     -35.826  23.087   1.696  0.00  0.00    +0.253 C 
ENDROOT
BRANCH   3   8
ATOM      7  O   UNL     1     -37.893  24.710   4.163  0.00  0.00    -0.274 OA
ATOM      8  N   UNL     1     -35.746  23.834   4.029  0.00  0.00    -0.299 N 
ATOM      9  C   UNL     1     -36.699  24.742   4.455  0.00  0.00    +0.234 C 
ATOM     10  H   UNL     1     -34.814  23.953   4.323  0.00  0.00    +0.150 HD
BRANCH   9  12
ATOM     11 BR   UNL     1     -34.196  25.648   5.226  0.00  0.00    -0.070 Br
ATOM     12  C   UNL     1     -36.123  25.826   5.326  0.00  0.00    +0.152 C 
ENDBRANCH   9  12
ENDBRANCH   3   8
BRANCH   2  13
ATOM     13  O   UNL     1     -35.612  21.044   4.853  0.00  0.00    -0.380 OA
ATOM     14  H   UNL     1     -36.126  21.738   5.295  0.00  0.00    +0.211 HD
ENDBRANCH   2  13
BRANCH   4  15
ATOM     15  O   UNL     1     -36.740  19.854   2.616  0.00  0.00    -0.379 OA
ATOM     16  H   UNL     1     -36.857  19.358   3.441  0.00  0.00    +0.211 HD
ENDBRANCH   4  15
BRANCH   6  17
ATOM     17  O   UNL     1     -36.750  24.116   1.344  0.00  0.00    -0.359 OA
ATOM     18  H   UNL     1     -37.374  23.777   0.682  0.00  0.00    +0.213 HD
ENDBRANCH   6  17
BRANCH   5  19
ATOM     19  C   UNL     1     -35.368  19.804   0.068  0.00  0.00    +0.169 C 
BRANCH  19  20
ATOM     20  O   UNL     1     -35.125  18.533   0.644  0.00  0.00    -0.379 OA
ATOM     21  H   UNL     1     -34.227  18.244   0.421  0.00  0.00    +0.211 HD
ENDBRANCH  19  20
ENDBRANCH   5  19
TORSDOF 7
ENDMDL
MODEL 5
REMARK VINA RESULT:      -4.9      3.695      4.874
REMARK  Name = 193108
REMARK  7 active torsions:
REMARK  status: ('A' for Active; 'I' for Inactive)
REMARK    1  A    between atoms: C_2  and  O_13
REMARK    2  A    between atoms: C_3  and  N_8
REMARK    3  A    between atoms: C_4  and  O_15
REMARK    4  A    between atoms: C_5  and  C_19
REMARK    5  A    between atoms: C_6  and  O_17
REMARK    6  A    between atoms: C_9  and  C_12
REMARK    7  A    between atoms: C_19  and  O_20
REMARK                            x       y       z     vdW  Elec       q    Type
REMARK                         _______ _______ _______ _____ _____    ______ ____
ROOT
ATOM      1  O   UNL     1     -33.186  28.122   4.720  0.00  0.00    -0.327 OA
ATOM      2  C   UNL     1     -34.758  26.783   2.730  0.00  0.00    +0.162 C 
ATOM      3  C   UNL     1     -34.683  26.268   4.173  0.00  0.00    +0.158 C 
ATOM      4  C   UNL     1     -34.450  28.280   2.660  0.00  0.00    +0.169 C 
ATOM      5  C   UNL     1     -33.121  28.570   3.363  0.00  0.00    +0.176 C 
ATOM      6  C   UNL     1     -33.372  26.711   4.837  0.00  0.00    +0.253 C 
ENDROOT
BRANCH   3   8
ATOM      7  O   UNL     1     -37.077  24.727   4.632  0.00  0.00    -0.274 OA
ATOM      8  N   UNL     1     -34.798  24.825   4.196  0.00  0.00    -0.299 N 
ATOM      9  C   UNL     1     -35.998  24.176   4.426  0.00  0.00    +0.234 C 
ATOM     10  H   UNL     1     -33.990  24.284   4.042  0.00  0.00    +0.150 HD
BRANCH   9  12
ATOM     11 BR   UNL     1     -35.302  22.168   6.206  0.00  0.00    -0.070 Br
ATOM     12  C   UNL     1     -35.860  22.677   4.421  0.00  0.00    +0.152 C 
ENDBRANCH   9  12
ENDBRANCH   3   8
BRANCH   2  13
ATOM     13  O   UNL     1     -36.059  26.535   2.204  0.00  0.00    -0.380 OA
ATOM     14  H   UNL     1     -36.110  26.873   1.296  0.00  0.00    +0.211 HD
ENDBRANCH   2  13
BRANCH   4  15
ATOM     15  O   UNL     1     -35.490  29.015   3.309  0.00  0.00    -0.379 OA
ATOM     16  H   UNL     1     -36.119  28.396   3.712  0.00  0.00    +0.211 HD
ENDBRANCH   4  15
BRANCH   6  17
ATOM     17  O   UNL     1     -33.432  26.354   6.219  0.00  0.00    -0.359 OA
ATOM     18  H   UNL     1     -34.241  25.845   6.386  0.00  0.00    +0.213 HD
ENDBRANCH   6  17
BRANCH   5  19
ATOM     19  C   UNL     1     -32.792  30.059   3.390  0.00  0.00    +0.169 C 
BRANCH  19  20
ATOM     20  O   UNL     1     -33.337  30.621   4.570  0.00  0.00    -0.379 OA
ATOM     21  H   UNL     1     -33.032  31.536   4.663  0.00  0.00    +0.211 HD
ENDBRANCH  19  20
ENDBRANCH   5  19
TORSDOF 7
ENDMDL
MODEL 6
REMARK VINA RESULT:      -4.9      2.845      5.419
REMARK  Name = 193108
REMARK  7 active torsions:
REMARK  status: ('A' for Active; 'I' for Inactive)
REMARK    1  A    between atoms: C_2  and  O_13
REMARK    2  A    between atoms: C_3  and  N_8
REMARK    3  A    between atoms: C_4  and  O_15
REMARK    4  A    between atoms: C_5  and  C_19
REMARK    5  A    between atoms: C_6  and  O_17
REMARK    6  A    between atoms: C_9  and  C_12
REMARK    7  A    between atoms: C_19  and  O_20
REMARK                            x       y       z     vdW  Elec       q    Type
REMARK                         _______ _______ _______ _____ _____    ______ ____
ROOT
ATOM      1  O   UNL     1     -39.520  23.162   2.150  0.00  0.00    -0.327 OA
ATOM      2  C   UNL     1     -36.672  22.873   2.323  0.00  0.00    +0.162 C 
ATOM      3  C   UNL     1     -37.469  23.621   3.399  0.00  0.00    +0.158 C 
ATOM      4  C   UNL     1     -37.553  21.867   1.580  0.00  0.00    +0.169 C 
ATOM      5  C   UNL     1     -38.812  22.565   1.058  0.00  0.00    +0.176 C 
ATOM      6  C   UNL     1     -38.773  24.181   2.814  0.00  0.00    +0.253 C 
ENDROOT
BRANCH   3   8
ATOM      7  O   UNL     1     -35.882  23.513   5.805  0.00  0.00    -0.274 OA
ATOM      8  N   UNL     1     -36.670  24.689   3.964  0.00  0.00    -0.299 N 
ATOM      9  C   UNL     1     -35.939  24.537   5.129  0.00  0.00    +0.234 C 
ATOM     10  H   UNL     1     -36.645  25.556   3.499  0.00  0.00    +0.150 HD
BRANCH   9  12
ATOM     11 BR   UNL     1     -34.622  26.632   3.878  0.00  0.00    -0.070 Br
ATOM     12  C   UNL     1     -35.207  25.791   5.524  0.00  0.00    +0.152 C 
ENDBRANCH   9  12
ENDBRANCH   3   8
BRANCH   2  13
ATOM     13  O   UNL     1     -35.575  22.195   2.929  0.00  0.00    -0.380 OA
ATOM     14  H   UNL     1     -35.829  21.280   3.126  0.00  0.00    +0.211 HD
ENDBRANCH   2  13
BRANCH   4  15
ATOM     15  O   UNL     1     -37.938  20.818   2.470  0.00  0.00    -0.379 OA
ATOM     16  H   UNL     1     -37.147  20.436   2.881  0.00  0.00    +0.211 HD
ENDBRANCH   4  15
BRANCH   6  17
ATOM     17  O   UNL     1     -39.549  24.713   3.888  0.00  0.00    -0.359 OA
ATOM     18  H   UNL     1     -40.429  24.305   3.884  0.00  0.00    +0.213 HD
ENDBRANCH   6  17
BRANCH   5  19
ATOM     19  C   UNL     1     -39.769  21.598   0.369  0.00  0.00    +0.169 C 
BRANCH  19  20
ATOM     20  O   UNL     1     -40.483  20.885   1.361  0.00  0.00    -0.379 OA
ATOM     21  H   UNL     1     -40.047  20.035   1.526  0.00  0.00    +0.211 HD
ENDBRANCH  19  20
ENDBRANCH   5  19
TORSDOF 7
ENDMDL
MODEL 7
REMARK VINA RESULT:      -4.7      4.058      6.073
REMARK  Name = 193108
REMARK  7 active torsions:
REMARK  status: ('A' for Active; 'I' for Inactive)
REMARK    1  A    between atoms: C_2  and  O_13
REMARK    2  A    between atoms: C_3  and  N_8
REMARK    3  A    between atoms: C_4  and  O_15
REMARK    4  A    between atoms: C_5  and  C_19
REMARK    5  A    between atoms: C_6  and  O_17
REMARK    6  A    between atoms: C_9  and  C_12
REMARK    7  A    between atoms: C_19  and  O_20
REMARK                            x       y       z     vdW  Elec       q    Type
REMARK                         _______ _______ _______ _____ _____    ______ ____
ROOT
ATOM      1  O   UNL     1     -34.575  23.761   3.505  0.00  0.00    -0.327 OA
ATOM      2  C   UNL     1     -35.440  25.905   5.200  0.00  0.00    +0.162 C 
ATOM      3  C   UNL     1     -34.961  26.161   3.766  0.00  0.00    +0.158 C 
ATOM      4  C   UNL     1     -35.951  24.473   5.368  0.00  0.00    +0.169 C 
ATOM      5  C   UNL     1     -34.892  23.483   4.873  0.00  0.00    +0.176 C 
ATOM      6  C   UNL     1     -34.000  25.053   3.312  0.00  0.00    +0.253 C 
ENDROOT
BRANCH   3   8
ATOM      7  O   UNL     1     -32.517  26.978   5.061  0.00  0.00    -0.274 OA
ATOM      8  N   UNL     1     -34.319  27.455   3.675  0.00  0.00    -0.299 N 
ATOM      9  C   UNL     1     -33.140  27.751   4.338  0.00  0.00    +0.234 C 
ATOM     10  H   UNL     1     -34.737  28.152   3.119  0.00  0.00    +0.150 HD
BRANCH   9  12
ATOM     11 BR   UNL     1     -31.774  29.727   5.722  0.00  0.00    -0.070 Br
ATOM     12  C   UNL     1     -32.680  29.165   4.103  0.00  0.00    +0.152 C 
ENDBRANCH   9  12
ENDBRANCH   3   8
BRANCH   2  13
ATOM     13  O   UNL     1     -36.478  26.826   5.527  0.00  0.00    -0.380 OA
ATOM     14  H   UNL     1     -36.509  26.950   6.488  0.00  0.00    +0.211 HD
ENDBRANCH   2  13
BRANCH   4  15
ATOM     15  O   UNL     1     -37.145  24.298   4.603  0.00  0.00    -0.379 OA
ATOM     16  H   UNL     1     -37.686  23.600   5.005  0.00  0.00    +0.211 HD
ENDBRANCH   4  15
BRANCH   6  17
ATOM     17  O   UNL     1     -33.724  25.246   1.925  0.00  0.00    -0.359 OA
ATOM     18  H   UNL     1     -34.147  24.541   1.410  0.00  0.00    +0.213 HD
ENDBRANCH   6  17
BRANCH   5  19
ATOM     19  C   UNL     1     -35.370  22.037   4.946  0.00  0.00    +0.169 C 
BRANCH  19  20
ATOM     20  O   UNL     1     -36.092  21.859   6.151  0.00  0.00    -0.379 OA
ATOM     21  H   UNL     1     -36.883  22.419   6.139  0.00  0.00    +0.211 HD
ENDBRANCH  19  20
ENDBRANCH   5  19
TORSDOF 7
ENDMDL
MODEL 8
REMARK VINA RESULT:      -4.7      2.534      5.521
REMARK  Name = 193108
REMARK  7 active torsions:
REMARK  status: ('A' for Active; 'I' for Inactive)
REMARK    1  A    between atoms: C_2  and  O_13
REMARK    2  A    between atoms: C_3  and  N_8
REMARK    3  A    between atoms: C_4  and  O_15
REMARK    4  A    between atoms: C_5  and  C_19
REMARK    5  A    between atoms: C_6  and  O_17
REMARK    6  A    between atoms: C_9  and  C_12
REMARK    7  A    between atoms: C_19  and  O_20
REMARK                            x       y       z     vdW  Elec       q    Type
REMARK                         _______ _______ _______ _____ _____    ______ ____
ROOT
ATOM      1  O   UNL     1     -37.846  21.913   1.169  0.00  0.00    -0.327 OA
ATOM      2  C   UNL     1     -35.504  21.453   2.759  0.00  0.00    +0.162 C 
ATOM      3  C   UNL     1     -36.546  22.507   3.153  0.00  0.00    +0.158 C 
ATOM      4  C   UNL     1     -36.121  20.366   1.877  0.00  0.00    +0.169 C 
ATOM      5  C   UNL     1     -36.845  21.009   0.690  0.00  0.00    +0.176 C 
ATOM      6  C   UNL     1     -37.306  23.004   1.915  0.00  0.00    +0.253 C 
ENDROOT
BRANCH   3   8
ATOM      7  O   UNL     1     -36.053  22.755   5.984  0.00  0.00    -0.274 OA
ATOM      8  N   UNL     1     -35.907  23.615   3.831  0.00  0.00    -0.299 N 
ATOM      9  C   UNL     1     -35.715  23.640   5.202  0.00  0.00    +0.234 C 
ATOM     10  H   UNL     1     -35.596  24.380   3.296  0.00  0.00    +0.150 HD
BRANCH   9  12
ATOM     11 BR   UNL     1     -35.311  26.222   4.277  0.00  0.00    -0.070 Br
ATOM     12  C   UNL     1     -35.047  24.904   5.673  0.00  0.00    +0.152 C 
ENDBRANCH   9  12
ENDBRANCH   3   8
BRANCH   2  13
ATOM     13  O   UNL     1     -34.956  20.864   3.935  0.00  0.00    -0.380 OA
ATOM     14  H   UNL     1     -35.181  19.921   3.960  0.00  0.00    +0.211 HD
ENDBRANCH   2  13
BRANCH   4  15
ATOM     15  O   UNL     1     -37.062  19.606   2.640  0.00  0.00    -0.379 OA
ATOM     16  H   UNL     1     -37.804  20.175   2.896  0.00  0.00    +0.211 HD
ENDBRANCH   4  15
BRANCH   6  17
ATOM     17  O   UNL     1     -38.370  23.848   2.357  0.00  0.00    -0.359 OA
ATOM     18  H   UNL     1     -38.371  24.667   1.836  0.00  0.00    +0.213 HD
ENDBRANCH   6  17
BRANCH   5  19
ATOM     19  C   UNL     1     -37.545  19.979  -0.190  0.00  0.00    +0.169 C 
BRANCH  19  20
ATOM     20  O   UNL     1     -38.894  19.870   0.227  0.00  0.00    -0.379 OA
ATOM     21  H   UNL     1     -39.412  20.589  -0.165  0.00  0.00    +0.211 HD
ENDBRANCH  19  20
ENDBRANCH   5  19
TORSDOF 7
ENDMDL
MODEL 9
REMARK VINA RESULT:      -4.6      3.710      5.004
REMARK  Name = 193108
REMARK  7 active torsions:
REMARK  status: ('A' for Active; 'I' for Inactive)
REMARK    1  A    between atoms: C_2  and  O_13
REMARK    2  A    between atoms: C_3  and  N_8
REMARK    3  A    between atoms: C_4  and  O_15
REMARK    4  A    between atoms: C_5  and  C_19
REMARK    5  A    between atoms: C_6  and  O_17
REMARK    6  A    between atoms: C_9  and  C_12
REMARK    7  A    between atoms: C_19  and  O_20
REMARK                            x       y       z     vdW  Elec       q    Type
REMARK                         _______ _______ _______ _____ _____    ______ ____
ROOT
ATOM      1  O   UNL     1     -36.954  23.505   4.430  0.00  0.00    -0.327 OA
ATOM      2  C   UNL     1     -35.862  26.007   3.550  0.00  0.00    +0.162 C 
ATOM      3  C   UNL     1     -37.285  25.577   3.174  0.00  0.00    +0.158 C 
ATOM      4  C   UNL     1     -35.394  25.315   4.832  0.00  0.00    +0.169 C 
ATOM      5  C   UNL     1     -35.580  23.801   4.703  0.00  0.00    +0.176 C 
ATOM      6  C   UNL     1     -37.409  24.046   3.190  0.00  0.00    +0.253 C 
ENDROOT
BRANCH   3   8
ATOM      7  O   UNL     1     -39.859  26.583   2.349  0.00  0.00    -0.274 OA
ATOM      8  N   UNL     1     -37.639  26.098   1.871  0.00  0.00    -0.299 N 
ATOM      9  C   UNL     1     -38.908  26.561   1.571  0.00  0.00    +0.234 C 
ATOM     10  H   UNL     1     -36.948  26.126   1.170  0.00  0.00    +0.150 HD
BRANCH   9  12
ATOM     11 BR   UNL     1     -40.901  27.484  -0.120  0.00  0.00    -0.070 Br
ATOM     12  C   UNL     1     -39.035  27.034   0.148  0.00  0.00    +0.152 C 
ENDBRANCH   9  12
ENDBRANCH   3   8
BRANCH   2  13
ATOM     13  O   UNL     1     -35.823  27.420   3.725  0.00  0.00    -0.380 OA
ATOM     14  H   UNL     1     -36.722  27.779   3.661  0.00  0.00    +0.211 HD
ENDBRANCH   2  13
BRANCH   4  15
ATOM     15  O   UNL     1     -36.166  25.786   5.939  0.00  0.00    -0.379 OA
ATOM     16  H   UNL     1     -35.819  26.642   6.234  0.00  0.00    +0.211 HD
ENDBRANCH   4  15
BRANCH   6  17
ATOM     17  O   UNL     1     -38.784  23.711   3.003  0.00  0.00    -0.359 OA
ATOM     18  H   UNL     1     -39.299  24.522   2.864  0.00  0.00    +0.213 HD
ENDBRANCH   6  17
BRANCH   5  19
ATOM     19  C   UNL     1     -35.199  23.058   5.979  0.00  0.00    +0.169 C 
BRANCH  19  20
ATOM     20  O   UNL     1     -36.158  22.044   6.216  0.00  0.00    -0.379 OA
ATOM     21  H   UNL     1     -36.890  22.138   5.588  0.00  0.00    +0.211 HD
ENDBRANCH  19  20
ENDBRANCH   5  19
TORSDOF 7
ENDMDL
