MODEL 1
REMARK VINA RESULT:      -8.0      0.000      0.000
REMARK  Name = 195576
REMARK  5 active torsions:
REMARK  status: ('A' for Active; 'I' for Inactive)
REMARK    1  A    between atoms: C_4  and  O_31
REMARK    2  A    between atoms: C_12  and  O_33
REMARK    3  A    between atoms: C_14  and  O_35
REMARK    4  A    between atoms: C_15  and  O_37
REMARK    5  A    between atoms: C_23  and  O_39
REMARK                            x       y       z     vdW  Elec       q    Type
REMARK                         _______ _______ _______ _____ _____    ______ ____
ROOT
ATOM      1  O   UNL     1     -33.739  19.550  -3.261  0.00  0.00    -0.294 OA
ATOM      2  N   UNL     1     -35.489  23.569   4.066  0.00  0.00    +0.390 N 
ATOM      3  C   UNL     1     -35.904  20.250   2.152  0.00  0.00    +0.023 C 
ATOM      4  C   UNL     1     -36.500  19.779   0.803  0.00  0.00    +0.093 C 
ATOM      5  C   UNL     1     -34.210  19.111   0.750  0.00  0.00    +0.006 C 
ATOM      6  C   UNL     1     -35.269  19.817  -0.123  0.00  0.00    +0.059 C 
ATOM      7  C   UNL     1     -35.893  21.792   2.349  0.00  0.00    -0.014 C 
ATOM      8  C   UNL     1     -34.450  19.684   2.154  0.00  0.00    +0.002 C 
ATOM      9  C   UNL     1     -32.784  19.194   0.134  0.00  0.00    +0.007 C 
ATOM     10  C   UNL     1     -37.238  22.450   1.965  0.00  0.00    +0.048 C 
ATOM     11  C   UNL     1     -37.717  20.574   0.331  0.00  0.00    +0.056 C 
ATOM     12  C   UNL     1     -37.613  22.085   0.509  0.00  0.00    +0.115 C 
ATOM     13  C   UNL     1     -32.869  18.494  -1.256  0.00  0.00    +0.062 C 
ATOM     14  C   UNL     1     -35.355  19.190  -1.517  0.00  0.00    +0.170 C 
ATOM     15  C   UNL     1     -37.187  23.987   2.258  0.00  0.00    +0.074 C 
ATOM     16  C   UNL     1     -35.562  22.122   3.816  0.00  0.00    -0.077 C 
ATOM     17  C   UNL     1     -36.771  24.244   3.750  0.00  0.00    -0.033 C 
ATOM     18  C   UNL     1     -31.776  18.407   1.010  0.00  0.00    +0.003 C 
ATOM     19  C   UNL     1     -33.955  19.138  -2.123  0.00  0.00    +0.177 C 
ATOM     20  C   UNL     1     -32.296  20.660   0.000  0.00  0.00    +0.000 C 
ATOM     21  C   UNL     1     -31.509  18.391  -1.947  0.00  0.00    +0.037 C 
ATOM     22  C   UNL     1     -30.409  18.226   0.343  0.00  0.00    +0.029 C 
ATOM     23  C   UNL     1     -30.513  17.637  -1.065  0.00  0.00    +0.111 C 
ATOM     24  C   UNL     1     -36.664  25.757   4.076  0.00  0.00    -0.019 C 
ATOM     25  C   UNL     1     -38.549  24.634   1.945  0.00  0.00    +0.027 C 
ATOM     26  C   UNL     1     -35.083  23.785   5.468  0.00  0.00    -0.077 C 
ATOM     27  C   UNL     1     -34.897  25.266   5.814  0.00  0.00    -0.021 C 
ATOM     28  C   UNL     1     -36.188  26.021   5.502  0.00  0.00    -0.004 C 
ATOM     29  C   UNL     1     -33.688  25.872   5.096  0.00  0.00    -0.002 C 
ATOM     30  H   UNL     1     -34.792  23.985   3.448  0.00  0.00    -0.080 HD
ENDROOT
BRANCH   4  31
ATOM     31  O   UNL     1     -36.928  18.416   0.951  0.00  0.00    -0.387 OA
ATOM     32  H   UNL     1     -36.654  17.904   0.174  0.00  0.00    +0.210 HD
ENDBRANCH   4  31
BRANCH  12  33
ATOM     33  O   UNL     1     -36.685  22.600  -0.438  0.00  0.00    -0.384 OA
ATOM     34  H   UNL     1     -37.131  23.242  -1.011  0.00  0.00    +0.210 HD
ENDBRANCH  12  33
BRANCH  14  35
ATOM     35  O   UNL     1     -35.845  17.864  -1.483  0.00  0.00    -0.377 OA
ATOM     36  H   UNL     1     -36.451  17.762  -0.733  0.00  0.00    +0.211 HD
ENDBRANCH  14  35
BRANCH  15  37
ATOM     37  O   UNL     1     -36.213  24.587   1.395  0.00  0.00    -0.389 OA
ATOM     38  H   UNL     1     -36.148  24.074   0.575  0.00  0.00    +0.210 HD
ENDBRANCH  15  37
BRANCH  23  39
ATOM     39  O   UNL     1     -29.235  17.671  -1.692  0.00  0.00    -0.384 OA
ATOM     40  H   UNL     1     -28.582  17.238  -1.120  0.00  0.00    +0.210 HD
ENDBRANCH  23  39
TORSDOF 5
ENDMDL
MODEL 2
REMARK VINA RESULT:      -7.1      4.148      6.384
REMARK  Name = 195576
REMARK  5 active torsions:
REMARK  status: ('A' for Active; 'I' for Inactive)
REMARK    1  A    between atoms: C_4  and  O_31
REMARK    2  A    between atoms: C_12  and  O_33
REMARK    3  A    between atoms: C_14  and  O_35
REMARK    4  A    between atoms: C_15  and  O_37
REMARK    5  A    between atoms: C_23  and  O_39
REMARK                            x       y       z     vdW  Elec       q    Type
REMARK                         _______ _______ _______ _____ _____    ______ ____
ROOT
ATOM      1  O   UNL     1     -40.438  22.608   1.929  0.00  0.00    -0.294 OA
ATOM      2  N   UNL     1     -33.152  27.005   2.638  0.00  0.00    +0.390 N 
ATOM      3  C   UNL     1     -34.635  23.485   2.122  0.00  0.00    +0.023 C 
ATOM      4  C   UNL     1     -35.609  22.538   2.864  0.00  0.00    +0.093 C 
ATOM      5  C   UNL     1     -36.572  22.872   0.706  0.00  0.00    +0.006 C 
ATOM      6  C   UNL     1     -36.957  22.881   2.201  0.00  0.00    +0.059 C 
ATOM      7  C   UNL     1     -34.503  24.900   2.752  0.00  0.00    -0.014 C 
ATOM      8  C   UNL     1     -35.209  23.578   0.674  0.00  0.00    +0.002 C 
ATOM      9  C   UNL     1     -37.718  23.399  -0.204  0.00  0.00    +0.007 C 
ATOM     10  C   UNL     1     -34.325  24.852   4.287  0.00  0.00    +0.048 C 
ATOM     11  C   UNL     1     -35.567  22.646   4.388  0.00  0.00    +0.056 C 
ATOM     12  C   UNL     1     -35.490  24.067   4.935  0.00  0.00    +0.115 C 
ATOM     13  C   UNL     1     -38.932  22.450   0.031  0.00  0.00    +0.062 C 
ATOM     14  C   UNL     1     -38.176  21.995   2.471  0.00  0.00    +0.170 C 
ATOM     15  C   UNL     1     -34.122  26.299   4.849  0.00  0.00    +0.074 C 
ATOM     16  C   UNL     1     -33.309  25.637   2.121  0.00  0.00    -0.077 C 
ATOM     17  C   UNL     1     -32.938  27.013   4.105  0.00  0.00    -0.033 C 
ATOM     18  C   UNL     1     -37.307  23.297  -1.695  0.00  0.00    +0.003 C 
ATOM     19  C   UNL     1     -39.299  22.394   1.517  0.00  0.00    +0.177 C 
ATOM     20  C   UNL     1     -38.081  24.872   0.119  0.00  0.00    +0.000 C 
ATOM     21  C   UNL     1     -40.114  22.770  -0.884  0.00  0.00    +0.037 C 
ATOM     22  C   UNL     1     -38.468  23.556  -2.660  0.00  0.00    +0.029 C 
ATOM     23  C   UNL     1     -39.693  22.694  -2.353  0.00  0.00    +0.111 C 
ATOM     24  C   UNL     1     -32.727  28.468   4.598  0.00  0.00    -0.019 C 
ATOM     25  C   UNL     1     -33.871  26.250   6.368  0.00  0.00    +0.027 C 
ATOM     26  C   UNL     1     -32.045  27.658   1.914  0.00  0.00    -0.077 C 
ATOM     27  C   UNL     1     -31.848  29.122   2.322  0.00  0.00    -0.021 C 
ATOM     28  C   UNL     1     -31.628  29.198   3.832  0.00  0.00    -0.004 C 
ATOM     29  C   UNL     1     -33.013  30.004   1.865  0.00  0.00    -0.002 C 
ATOM     30  H   UNL     1     -34.012  27.529   2.477  0.00  0.00    -0.080 HD
ENDROOT
BRANCH   4  31
ATOM     31  O   UNL     1     -35.260  21.184   2.535  0.00  0.00    -0.387 OA
ATOM     32  H   UNL     1     -36.058  20.699   2.275  0.00  0.00    +0.210 HD
ENDBRANCH   4  31
BRANCH  12  33
ATOM     33  O   UNL     1     -36.747  24.705   4.745  0.00  0.00    -0.384 OA
ATOM     34  H   UNL     1     -36.826  24.994   3.823  0.00  0.00    +0.210 HD
ENDBRANCH  12  33
BRANCH  14  35
ATOM     35  O   UNL     1     -37.908  20.625   2.250  0.00  0.00    -0.377 OA
ATOM     36  H   UNL     1     -37.491  20.513   1.381  0.00  0.00    +0.211 HD
ENDBRANCH  14  35
BRANCH  15  37
ATOM     37  O   UNL     1     -35.324  27.049   4.632  0.00  0.00    -0.389 OA
ATOM     38  H   UNL     1     -35.870  26.600   3.968  0.00  0.00    +0.210 HD
ENDBRANCH  15  37
BRANCH  23  39
ATOM     39  O   UNL     1     -40.788  23.115  -3.160  0.00  0.00    -0.384 OA
ATOM     40  H   UNL     1     -40.987  24.046  -2.975  0.00  0.00    +0.210 HD
ENDBRANCH  23  39
TORSDOF 5
ENDMDL
MODEL 3
REMARK VINA RESULT:      -6.9      1.806      2.394
REMARK  Name = 195576
REMARK  5 active torsions:
REMARK  status: ('A' for Active; 'I' for Inactive)
REMARK    1  A    between atoms: C_4  and  O_31
REMARK    2  A    between atoms: C_12  and  O_33
REMARK    3  A    between atoms: C_14  and  O_35
REMARK    4  A    between atoms: C_15  and  O_37
REMARK    5  A    between atoms: C_23  and  O_39
REMARK                            x       y       z     vdW  Elec       q    Type
REMARK                         _______ _______ _______ _____ _____    ______ ____
ROOT
ATOM      1  O   UNL     1     -35.745  19.128  -2.368  0.00  0.00    -0.294 OA
ATOM      2  N   UNL     1     -34.537  25.615   3.051  0.00  0.00    +0.390 N 
ATOM      3  C   UNL     1     -36.346  22.245   2.571  0.00  0.00    +0.023 C 
ATOM      4  C   UNL     1     -37.338  21.618   1.563  0.00  0.00    +0.093 C 
ATOM      5  C   UNL     1     -35.427  20.189   1.540  0.00  0.00    +0.006 C 
ATOM      6  C   UNL     1     -36.389  20.912   0.575  0.00  0.00    +0.059 C 
ATOM      7  C   UNL     1     -35.826  23.656   2.174  0.00  0.00    -0.014 C 
ATOM      8  C   UNL     1     -35.167  21.225   2.643  0.00  0.00    +0.002 C 
ATOM      9  C   UNL     1     -34.215  19.552   0.802  0.00  0.00    +0.007 C 
ATOM     10  C   UNL     1     -36.961  24.596   1.705  0.00  0.00    +0.048 C 
ATOM     11  C   UNL     1     -38.332  22.604   0.948  0.00  0.00    +0.056 C 
ATOM     12  C   UNL     1     -37.741  23.947   0.536  0.00  0.00    +0.115 C 
ATOM     13  C   UNL     1     -34.813  18.526  -0.209  0.00  0.00    +0.062 C 
ATOM     14  C   UNL     1     -36.966  19.951  -0.467  0.00  0.00    +0.170 C 
ATOM     15  C   UNL     1     -36.385  26.018   1.394  0.00  0.00    +0.074 C 
ATOM     16  C   UNL     1     -35.096  24.293   3.370  0.00  0.00    -0.077 C 
ATOM     17  C   UNL     1     -35.592  26.569   2.632  0.00  0.00    -0.033 C 
ATOM     18  C   UNL     1     -33.325  18.777   1.806  0.00  0.00    +0.003 C 
ATOM     19  C   UNL     1     -35.818  19.207  -1.144  0.00  0.00    +0.177 C 
ATOM     20  C   UNL     1     -33.351  20.619   0.081  0.00  0.00    +0.000 C 
ATOM     21  C   UNL     1     -33.735  17.726  -0.940  0.00  0.00    +0.037 C 
ATOM     22  C   UNL     1     -32.259  17.913   1.125  0.00  0.00    +0.029 C 
ATOM     23  C   UNL     1     -32.843  16.986   0.058  0.00  0.00    +0.111 C 
ATOM     24  C   UNL     1     -34.965  27.959   2.355  0.00  0.00    -0.019 C 
ATOM     25  C   UNL     1     -37.523  26.977   0.996  0.00  0.00    +0.027 C 
ATOM     26  C   UNL     1     -33.785  26.103   4.223  0.00  0.00    -0.077 C 
ATOM     27  C   UNL     1     -33.090  27.445   3.968  0.00  0.00    -0.021 C 
ATOM     28  C   UNL     1     -34.128  28.473   3.524  0.00  0.00    -0.004 C 
ATOM     29  C   UNL     1     -31.944  27.312   2.961  0.00  0.00    -0.002 C 
ATOM     30  H   UNL     1     -33.902  25.531   2.257  0.00  0.00    -0.080 HD
ENDROOT
BRANCH   4  31
ATOM     31  O   UNL     1     -38.114  20.625   2.252  0.00  0.00    -0.387 OA
ATOM     32  H   UNL     1     -38.846  21.055   2.722  0.00  0.00    +0.210 HD
ENDBRANCH   4  31
BRANCH  12  33
ATOM     33  O   UNL     1     -36.933  23.763  -0.620  0.00  0.00    -0.384 OA
ATOM     34  H   UNL     1     -37.490  23.470  -1.359  0.00  0.00    +0.210 HD
ENDBRANCH  12  33
BRANCH  14  35
ATOM     35  O   UNL     1     -37.813  18.976   0.109  0.00  0.00    -0.377 OA
ATOM     36  H   UNL     1     -38.266  19.355   0.878  0.00  0.00    +0.211 HD
ENDBRANCH  14  35
BRANCH  15  37
ATOM     37  O   UNL     1     -35.491  25.919   0.278  0.00  0.00    -0.389 OA
ATOM     38  H   UNL     1     -35.491  26.757  -0.211  0.00  0.00    +0.210 HD
ENDBRANCH  15  37
BRANCH  23  39
ATOM     39  O   UNL     1     -31.787  16.356  -0.658  0.00  0.00    -0.384 OA
ATOM     40  H   UNL     1     -31.691  15.439  -0.353  0.00  0.00    +0.210 HD
ENDBRANCH  23  39
TORSDOF 5
ENDMDL
MODEL 4
REMARK VINA RESULT:      -6.4      2.724      8.434
REMARK  Name = 195576
REMARK  5 active torsions:
REMARK  status: ('A' for Active; 'I' for Inactive)
REMARK    1  A    between atoms: C_4  and  O_31
REMARK    2  A    between atoms: C_12  and  O_33
REMARK    3  A    between atoms: C_14  and  O_35
REMARK    4  A    between atoms: C_15  and  O_37
REMARK    5  A    between atoms: C_23  and  O_39
REMARK                            x       y       z     vdW  Elec       q    Type
REMARK                         _______ _______ _______ _____ _____    ______ ____
ROOT
ATOM      1  O   UNL     1     -35.993  25.117   3.472  0.00  0.00    -0.294 OA
ATOM      2  N   UNL     1     -36.279  19.893  -3.276  0.00  0.00    +0.390 N 
ATOM      3  C   UNL     1     -36.918  20.128   0.518  0.00  0.00    +0.023 C 
ATOM      4  C   UNL     1     -36.115  20.497   1.788  0.00  0.00    +0.093 C 
ATOM      5  C   UNL     1     -37.960  22.010   1.744  0.00  0.00    +0.006 C 
ATOM      6  C   UNL     1     -36.430  21.998   1.942  0.00  0.00    +0.059 C 
ATOM      7  C   UNL     1     -36.154  20.351  -0.818  0.00  0.00    -0.014 C 
ATOM      8  C   UNL     1     -38.188  21.032   0.583  0.00  0.00    +0.002 C 
ATOM      9  C   UNL     1     -38.532  23.453   1.640  0.00  0.00    +0.007 C 
ATOM     10  C   UNL     1     -34.710  19.799  -0.774  0.00  0.00    +0.048 C 
ATOM     11  C   UNL     1     -34.634  20.126   1.737  0.00  0.00    +0.056 C 
ATOM     12  C   UNL     1     -33.937  20.420   0.413  0.00  0.00    +0.115 C 
ATOM     13  C   UNL     1     -38.171  24.162   2.981  0.00  0.00    +0.062 C 
ATOM     14  C   UNL     1     -36.024  22.725   3.226  0.00  0.00    +0.170 C 
ATOM     15  C   UNL     1     -34.023  19.985  -2.168  0.00  0.00    +0.074 C 
ATOM     16  C   UNL     1     -36.923  19.682  -1.971  0.00  0.00    -0.077 C 
ATOM     17  C   UNL     1     -34.902  19.344  -3.301  0.00  0.00    -0.033 C 
ATOM     18  C   UNL     1     -40.077  23.408   1.520  0.00  0.00    +0.003 C 
ATOM     19  C   UNL     1     -36.660  24.112   3.232  0.00  0.00    +0.177 C 
ATOM     20  C   UNL     1     -37.954  24.218   0.422  0.00  0.00    +0.000 C 
ATOM     21  C   UNL     1     -38.767  25.566   3.083  0.00  0.00    +0.037 C 
ATOM     22  C   UNL     1     -40.734  24.784   1.669  0.00  0.00    +0.029 C 
ATOM     23  C   UNL     1     -40.289  25.516   2.936  0.00  0.00    +0.111 C 
ATOM     24  C   UNL     1     -34.281  19.543  -4.708  0.00  0.00    -0.019 C 
ATOM     25  C   UNL     1     -32.610  19.371  -2.151  0.00  0.00    +0.027 C 
ATOM     26  C   UNL     1     -37.130  19.296  -4.322  0.00  0.00    -0.077 C 
ATOM     27  C   UNL     1     -36.588  19.530  -5.737  0.00  0.00    -0.021 C 
ATOM     28  C   UNL     1     -35.162  18.991  -5.825  0.00  0.00    -0.004 C 
ATOM     29  C   UNL     1     -36.672  21.005  -6.143  0.00  0.00    -0.002 C 
ATOM     30  H   UNL     1     -36.186  20.894  -3.450  0.00  0.00    -0.080 HD
ENDROOT
BRANCH   4  31
ATOM     31  O   UNL     1     -36.681  19.788   2.901  0.00  0.00    -0.387 OA
ATOM     32  H   UNL     1     -36.730  20.378   3.670  0.00  0.00    +0.210 HD
ENDBRANCH   4  31
BRANCH  12  33
ATOM     33  O   UNL     1     -33.774  21.827   0.279  0.00  0.00    -0.384 OA
ATOM     34  H   UNL     1     -34.064  22.265   1.094  0.00  0.00    +0.210 HD
ENDBRANCH  12  33
BRANCH  14  35
ATOM     35  O   UNL     1     -36.471  22.057   4.389  0.00  0.00    -0.377 OA
ATOM     36  H   UNL     1     -35.752  22.024   5.040  0.00  0.00    +0.211 HD
ENDBRANCH  14  35
BRANCH  15  37
ATOM     37  O   UNL     1     -33.883  21.387  -2.428  0.00  0.00    -0.389 OA
ATOM     38  H   UNL     1     -34.728  21.743  -2.746  0.00  0.00    +0.210 HD
ENDBRANCH  15  37
BRANCH  23  39
ATOM     39  O   UNL     1     -40.786  26.850   2.916  0.00  0.00    -0.384 OA
ATOM     40  H   UNL     1     -40.116  27.440   2.537  0.00  0.00    +0.210 HD
ENDBRANCH  23  39
TORSDOF 5
ENDMDL
MODEL 5
REMARK VINA RESULT:      -6.3      2.700      8.665
REMARK  Name = 195576
REMARK  5 active torsions:
REMARK  status: ('A' for Active; 'I' for Inactive)
REMARK    1  A    between atoms: C_4  and  O_31
REMARK    2  A    between atoms: C_12  and  O_33
REMARK    3  A    between atoms: C_14  and  O_35
REMARK    4  A    between atoms: C_15  and  O_37
REMARK    5  A    between atoms: C_23  and  O_39
REMARK                            x       y       z     vdW  Elec       q    Type
REMARK                         _______ _______ _______ _____ _____    ______ ____
ROOT
ATOM      1  O   UNL     1     -37.830  27.738   0.902  0.00  0.00    -0.294 OA
ATOM      2  N   UNL     1     -36.553  19.359  -0.134  0.00  0.00    +0.390 N 
ATOM      3  C   UNL     1     -37.324  22.100   2.463  0.00  0.00    +0.023 C 
ATOM      4  C   UNL     1     -36.678  23.419   2.954  0.00  0.00    +0.093 C 
ATOM      5  C   UNL     1     -38.858  24.026   2.194  0.00  0.00    +0.006 C 
ATOM      6  C   UNL     1     -37.385  24.469   2.074  0.00  0.00    +0.059 C 
ATOM      7  C   UNL     1     -36.614  21.449   1.243  0.00  0.00    -0.014 C 
ATOM      8  C   UNL     1     -38.790  22.495   2.102  0.00  0.00    +0.002 C 
ATOM      9  C   UNL     1     -39.790  24.800   1.220  0.00  0.00    +0.007 C 
ATOM     10  C   UNL     1     -35.077  21.403   1.405  0.00  0.00    +0.048 C 
ATOM     11  C   UNL     1     -35.151  23.434   2.919  0.00  0.00    +0.056 C 
ATOM     12  C   UNL     1     -34.526  22.825   1.668  0.00  0.00    +0.115 C 
ATOM     13  C   UNL     1     -39.663  26.307   1.601  0.00  0.00    +0.062 C 
ATOM     14  C   UNL     1     -37.218  25.956   2.396  0.00  0.00    +0.170 C 
ATOM     15  C   UNL     1     -34.430  20.670   0.183  0.00  0.00    +0.074 C 
ATOM     16  C   UNL     1     -37.149  20.022   1.035  0.00  0.00    -0.077 C 
ATOM     17  C   UNL     1     -35.080  19.253  -0.011  0.00  0.00    -0.033 C 
ATOM     18  C   UNL     1     -41.264  24.372   1.435  0.00  0.00    +0.003 C 
ATOM     19  C   UNL     1     -38.200  26.759   1.547  0.00  0.00    +0.177 C 
ATOM     20  C   UNL     1     -39.407  24.558  -0.263  0.00  0.00    +0.000 C 
ATOM     21  C   UNL     1     -40.613  27.198   0.801  0.00  0.00    +0.037 C 
ATOM     22  C   UNL     1     -42.267  25.265   0.699  0.00  0.00    +0.029 C 
ATOM     23  C   UNL     1     -42.063  26.751   0.997  0.00  0.00    +0.111 C 
ATOM     24  C   UNL     1     -34.501  18.505  -1.239  0.00  0.00    -0.019 C 
ATOM     25  C   UNL     1     -32.906  20.557   0.375  0.00  0.00    +0.027 C 
ATOM     26  C   UNL     1     -37.189  18.039  -0.303  0.00  0.00    -0.077 C 
ATOM     27  C   UNL     1     -36.695  17.294  -1.548  0.00  0.00    -0.021 C 
ATOM     28  C   UNL     1     -35.175  17.159  -1.483  0.00  0.00    -0.004 C 
ATOM     29  C   UNL     1     -37.158  17.972  -2.840  0.00  0.00    -0.002 C 
ATOM     30  H   UNL     1     -36.726  19.922  -0.967  0.00  0.00    -0.080 HD
ENDROOT
BRANCH   4  31
ATOM     31  O   UNL     1     -37.062  23.626   4.323  0.00  0.00    -0.387 OA
ATOM     32  H   UNL     1     -36.364  24.117   4.784  0.00  0.00    +0.210 HD
ENDBRANCH   4  31
BRANCH  12  33
ATOM     33  O   UNL     1     -34.739  23.703   0.570  0.00  0.00    -0.384 OA
ATOM     34  H   UNL     1     -35.046  23.193  -0.196  0.00  0.00    +0.210 HD
ENDBRANCH  12  33
BRANCH  14  35
ATOM     35  O   UNL     1     -37.499  26.250   3.750  0.00  0.00    -0.377 OA
ATOM     36  H   UNL     1     -37.791  27.172   3.827  0.00  0.00    +0.211 HD
ENDBRANCH  14  35
BRANCH  15  37
ATOM     37  O   UNL     1     -34.662  21.450  -0.997  0.00  0.00    -0.389 OA
ATOM     38  H   UNL     1     -34.179  21.060  -1.742  0.00  0.00    +0.210 HD
ENDBRANCH  15  37
BRANCH  23  39
ATOM     39  O   UNL     1     -42.896  27.529   0.144  0.00  0.00    -0.384 OA
ATOM     40  H   UNL     1     -42.639  28.462   0.203  0.00  0.00    +0.210 HD
ENDBRANCH  23  39
TORSDOF 5
ENDMDL
MODEL 6
REMARK VINA RESULT:      -6.2      2.273      3.650
REMARK  Name = 195576
REMARK  5 active torsions:
REMARK  status: ('A' for Active; 'I' for Inactive)
REMARK    1  A    between atoms: C_4  and  O_31
REMARK    2  A    between atoms: C_12  and  O_33
REMARK    3  A    between atoms: C_14  and  O_35
REMARK    4  A    between atoms: C_15  and  O_37
REMARK    5  A    between atoms: C_23  and  O_39
REMARK                            x       y       z     vdW  Elec       q    Type
REMARK                         _______ _______ _______ _____ _____    ______ ____
ROOT
ATOM      1  O   UNL     1     -36.789  20.375  -1.811  0.00  0.00    -0.294 OA
ATOM      2  N   UNL     1     -33.880  26.575   3.288  0.00  0.00    +0.390 N 
ATOM      3  C   UNL     1     -36.310  23.591   3.078  0.00  0.00    +0.023 C 
ATOM      4  C   UNL     1     -37.497  23.148   2.189  0.00  0.00    +0.093 C 
ATOM      5  C   UNL     1     -35.889  21.392   2.017  0.00  0.00    +0.006 C 
ATOM      6  C   UNL     1     -36.797  22.272   1.132  0.00  0.00    +0.059 C 
ATOM      7  C   UNL     1     -35.586  24.879   2.594  0.00  0.00    -0.014 C 
ATOM      8  C   UNL     1     -35.335  22.372   3.062  0.00  0.00    +0.002 C 
ATOM      9  C   UNL     1     -34.895  20.538   1.181  0.00  0.00    +0.007 C 
ATOM     10  C   UNL     1     -36.573  26.006   2.213  0.00  0.00    +0.048 C 
ATOM     11  C   UNL     1     -38.352  24.293   1.649  0.00  0.00    +0.056 C 
ATOM     12  C   UNL     1     -37.572  25.503   1.145  0.00  0.00    +0.115 C 
ATOM     13  C   UNL     1     -35.768  19.630   0.261  0.00  0.00    +0.062 C 
ATOM     14  C   UNL     1     -37.642  21.423   0.178  0.00  0.00    +0.170 C 
ATOM     15  C   UNL     1     -35.783  27.296   1.810  0.00  0.00    +0.074 C 
ATOM     16  C   UNL     1     -34.635  25.381   3.695  0.00  0.00    -0.077 C 
ATOM     17  C   UNL     1     -34.782  27.703   2.949  0.00  0.00    -0.033 C 
ATOM     18  C   UNL     1     -34.063  19.621   2.113  0.00  0.00    +0.003 C 
ATOM     19  C   UNL     1     -36.722  20.476  -0.588  0.00  0.00    +0.177 C 
ATOM     20  C   UNL     1     -33.929  21.422   0.350  0.00  0.00    +0.000 C 
ATOM     21  C   UNL     1     -34.933  18.640  -0.551  0.00  0.00    +0.037 C 
ATOM     22  C   UNL     1     -33.246  18.570   1.354  0.00  0.00    +0.029 C 
ATOM     23  C   UNL     1     -34.094  17.758   0.375  0.00  0.00    +0.111 C 
ATOM     24  C   UNL     1     -33.943  28.952   2.575  0.00  0.00    -0.019 C 
ATOM     25  C   UNL     1     -36.762  28.444   1.500  0.00  0.00    +0.027 C 
ATOM     26  C   UNL     1     -32.938  26.927   4.366  0.00  0.00    -0.077 C 
ATOM     27  C   UNL     1     -32.040  28.116   4.009  0.00  0.00    -0.021 C 
ATOM     28  C   UNL     1     -32.914  29.314   3.641  0.00  0.00    -0.004 C 
ATOM     29  C   UNL     1     -31.045  27.767   2.898  0.00  0.00    -0.002 C 
ATOM     30  H   UNL     1     -33.355  26.370   2.438  0.00  0.00    -0.080 HD
ENDROOT
BRANCH   4  31
ATOM     31  O   UNL     1     -38.366  22.319   2.978  0.00  0.00    -0.387 OA
ATOM     32  H   UNL     1     -37.836  21.792   3.597  0.00  0.00    +0.210 HD
ENDBRANCH   4  31
BRANCH  12  33
ATOM     33  O   UNL     1     -36.933  25.163  -0.080  0.00  0.00    -0.384 OA
ATOM     34  H   UNL     1     -36.843  24.199  -0.141  0.00  0.00    +0.210 HD
ENDBRANCH  12  33
BRANCH  14  35
ATOM     35  O   UNL     1     -38.588  20.625   0.860  0.00  0.00    -0.377 OA
ATOM     36  H   UNL     1     -38.131  20.054   1.498  0.00  0.00    +0.211 HD
ENDBRANCH  14  35
BRANCH  15  37
ATOM     37  O   UNL     1     -35.040  27.026   0.615  0.00  0.00    -0.389 OA
ATOM     38  H   UNL     1     -34.974  26.066   0.485  0.00  0.00    +0.210 HD
ENDBRANCH  15  37
BRANCH  23  39
ATOM     39  O   UNL     1     -33.248  16.938  -0.424  0.00  0.00    -0.384 OA
ATOM     40  H   UNL     1     -32.327  17.226  -0.321  0.00  0.00    +0.210 HD
ENDBRANCH  23  39
TORSDOF 5
ENDMDL
MODEL 7
REMARK VINA RESULT:      -6.2      5.011      7.947
REMARK  Name = 195576
REMARK  5 active torsions:
REMARK  status: ('A' for Active; 'I' for Inactive)
REMARK    1  A    between atoms: C_4  and  O_31
REMARK    2  A    between atoms: C_12  and  O_33
REMARK    3  A    between atoms: C_14  and  O_35
REMARK    4  A    between atoms: C_15  and  O_37
REMARK    5  A    between atoms: C_23  and  O_39
REMARK                            x       y       z     vdW  Elec       q    Type
REMARK                         _______ _______ _______ _____ _____    ______ ____
ROOT
ATOM      1  O   UNL     1     -36.569  24.171   4.969  0.00  0.00    -0.294 OA
ATOM      2  N   UNL     1     -34.918  28.803  -2.011  0.00  0.00    +0.390 N 
ATOM      3  C   UNL     1     -33.303  26.926   0.942  0.00  0.00    +0.023 C 
ATOM      4  C   UNL     1     -33.368  26.962   2.488  0.00  0.00    +0.093 C 
ATOM      5  C   UNL     1     -33.992  24.740   1.881  0.00  0.00    +0.006 C 
ATOM      6  C   UNL     1     -34.446  25.902   2.789  0.00  0.00    +0.059 C 
ATOM      7  C   UNL     1     -34.320  27.863   0.231  0.00  0.00    -0.014 C 
ATOM      8  C   UNL     1     -33.578  25.434   0.575  0.00  0.00    +0.002 C 
ATOM      9  C   UNL     1     -35.037  23.589   1.825  0.00  0.00    +0.007 C 
ATOM     10  C   UNL     1     -34.355  29.279   0.850  0.00  0.00    +0.048 C 
ATOM     11  C   UNL     1     -33.608  28.349   3.085  0.00  0.00    +0.056 C 
ATOM     12  C   UNL     1     -34.655  29.191   2.365  0.00  0.00    +0.115 C 
ATOM     13  C   UNL     1     -35.199  23.078   3.290  0.00  0.00    +0.062 C 
ATOM     14  C   UNL     1     -34.662  25.436   4.231  0.00  0.00    +0.170 C 
ATOM     15  C   UNL     1     -35.338  30.192   0.043  0.00  0.00    +0.074 C 
ATOM     16  C   UNL     1     -33.968  27.966  -1.264  0.00  0.00    -0.077 C 
ATOM     17  C   UNL     1     -34.962  30.187  -1.481  0.00  0.00    -0.033 C 
ATOM     18  C   UNL     1     -34.499  22.419   0.963  0.00  0.00    +0.003 C 
ATOM     19  C   UNL     1     -35.592  24.226   4.225  0.00  0.00    +0.177 C 
ATOM     20  C   UNL     1     -36.392  24.065   1.240  0.00  0.00    +0.000 C 
ATOM     21  C   UNL     1     -36.116  21.860   3.389  0.00  0.00    +0.037 C 
ATOM     22  C   UNL     1     -35.351  21.151   1.067  0.00  0.00    +0.029 C 
ATOM     23  C   UNL     1     -35.594  20.719   2.514  0.00  0.00    +0.111 C 
ATOM     24  C   UNL     1     -35.937  31.045  -2.329  0.00  0.00    -0.019 C 
ATOM     25  C   UNL     1     -35.322  31.624   0.611  0.00  0.00    +0.027 C 
ATOM     26  C   UNL     1     -34.553  28.770  -3.440  0.00  0.00    -0.077 C 
ATOM     27  C   UNL     1     -35.532  29.549  -4.324  0.00  0.00    -0.021 C 
ATOM     28  C   UNL     1     -35.627  30.989  -3.822  0.00  0.00    -0.004 C 
ATOM     29  C   UNL     1     -36.904  28.872  -4.391  0.00  0.00    -0.002 C 
ATOM     30  H   UNL     1     -35.861  28.429  -1.898  0.00  0.00    -0.080 HD
ENDROOT
BRANCH   4  31
ATOM     31  O   UNL     1     -32.108  26.503   3.003  0.00  0.00    -0.387 OA
ATOM     32  H   UNL     1     -32.008  26.795   3.923  0.00  0.00    +0.210 HD
ENDBRANCH   4  31
BRANCH  12  33
ATOM     33  O   UNL     1     -35.945  28.655   2.634  0.00  0.00    -0.384 OA
ATOM     34  H   UNL     1     -36.558  28.920   1.930  0.00  0.00    +0.210 HD
ENDBRANCH  12  33
BRANCH  14  35
ATOM     35  O   UNL     1     -33.458  25.035   4.854  0.00  0.00    -0.377 OA
ATOM     36  H   UNL     1     -33.253  24.120   4.603  0.00  0.00    +0.211 HD
ENDBRANCH  14  35
BRANCH  15  37
ATOM     37  O   UNL     1     -36.669  29.681   0.193  0.00  0.00    -0.389 OA
ATOM     38  H   UNL     1     -36.650  28.712   0.150  0.00  0.00    +0.210 HD
ENDBRANCH  15  37
BRANCH  23  39
ATOM     39  O   UNL     1     -36.539  19.655   2.543  0.00  0.00    -0.384 OA
ATOM     40  H   UNL     1     -37.212  19.839   3.217  0.00  0.00    +0.210 HD
ENDBRANCH  23  39
TORSDOF 5
ENDMDL
MODEL 8
REMARK VINA RESULT:      -6.1      4.639      9.757
REMARK  Name = 195576
REMARK  5 active torsions:
REMARK  status: ('A' for Active; 'I' for Inactive)
REMARK    1  A    between atoms: C_4  and  O_31
REMARK    2  A    between atoms: C_12  and  O_33
REMARK    3  A    between atoms: C_14  and  O_35
REMARK    4  A    between atoms: C_15  and  O_37
REMARK    5  A    between atoms: C_23  and  O_39
REMARK                            x       y       z     vdW  Elec       q    Type
REMARK                         _______ _______ _______ _____ _____    ______ ____
ROOT
ATOM      1  O   UNL     1     -45.016  24.309   1.830  0.00  0.00    -0.294 OA
ATOM      2  N   UNL     1     -36.614  25.397   2.898  0.00  0.00    +0.390 N 
ATOM      3  C   UNL     1     -39.507  25.726   0.373  0.00  0.00    +0.023 C 
ATOM      4  C   UNL     1     -40.587  24.809  -0.250  0.00  0.00    +0.093 C 
ATOM      5  C   UNL     1     -41.793  26.568   0.821  0.00  0.00    +0.006 C 
ATOM      6  C   UNL     1     -41.781  25.029   0.698  0.00  0.00    +0.059 C 
ATOM      7  C   UNL     1     -38.654  25.056   1.487  0.00  0.00    -0.014 C 
ATOM      8  C   UNL     1     -40.308  26.937   0.946  0.00  0.00    +0.002 C 
ATOM      9  C   UNL     1     -42.790  27.068   1.905  0.00  0.00    +0.007 C 
ATOM     10  C   UNL     1     -38.162  23.646   1.090  0.00  0.00    +0.048 C 
ATOM     11  C   UNL     1     -40.151  23.358  -0.452  0.00  0.00    +0.056 C 
ATOM     12  C   UNL     1     -39.363  22.751   0.704  0.00  0.00    +0.115 C 
ATOM     13  C   UNL     1     -44.199  26.566   1.465  0.00  0.00    +0.062 C 
ATOM     14  C   UNL     1     -43.160  24.487   0.312  0.00  0.00    +0.170 C 
ATOM     15  C   UNL     1     -37.249  23.059   2.218  0.00  0.00    +0.074 C 
ATOM     16  C   UNL     1     -37.443  25.948   1.817  0.00  0.00    -0.077 C 
ATOM     17  C   UNL     1     -36.082  24.056   2.551  0.00  0.00    -0.033 C 
ATOM     18  C   UNL     1     -42.817  28.617   1.933  0.00  0.00    +0.003 C 
ATOM     19  C   UNL     1     -44.200  25.045   1.278  0.00  0.00    +0.177 C 
ATOM     20  C   UNL     1     -42.419  26.545   3.317  0.00  0.00    +0.000 C 
ATOM     21  C   UNL     1     -45.315  27.076   2.376  0.00  0.00    +0.037 C 
ATOM     22  C   UNL     1     -43.952  29.186   2.789  0.00  0.00    +0.029 C 
ATOM     23  C   UNL     1     -45.318  28.605   2.420  0.00  0.00    +0.111 C 
ATOM     24  C   UNL     1     -35.175  23.537   3.696  0.00  0.00    -0.019 C 
ATOM     25  C   UNL     1     -36.697  21.685   1.796  0.00  0.00    +0.027 C 
ATOM     26  C   UNL     1     -35.536  26.357   3.201  0.00  0.00    -0.077 C 
ATOM     27  C   UNL     1     -34.657  25.914   4.376  0.00  0.00    -0.021 C 
ATOM     28  C   UNL     1     -34.082  24.530   4.080  0.00  0.00    -0.004 C 
ATOM     29  C   UNL     1     -35.418  25.950   5.704  0.00  0.00    -0.002 C 
ATOM     30  H   UNL     1     -37.188  25.264   3.731  0.00  0.00    -0.080 HD
ENDROOT
BRANCH   4  31
ATOM     31  O   UNL     1     -40.922  25.324  -1.548  0.00  0.00    -0.387 OA
ATOM     32  H   UNL     1     -40.175  25.189  -2.152  0.00  0.00    +0.210 HD
ENDBRANCH   4  31
BRANCH  12  33
ATOM     33  O   UNL     1     -40.245  22.523   1.797  0.00  0.00    -0.384 OA
ATOM     34  H   UNL     1     -39.818  22.805   2.621  0.00  0.00    +0.210 HD
ENDBRANCH  12  33
BRANCH  14  35
ATOM     35  O   UNL     1     -43.548  24.878  -0.990  0.00  0.00    -0.377 OA
ATOM     36  H   UNL     1     -44.225  25.570  -0.932  0.00  0.00    +0.211 HD
ENDBRANCH  14  35
BRANCH  15  37
ATOM     37  O   UNL     1     -38.041  22.865   3.397  0.00  0.00    -0.389 OA
ATOM     38  H   UNL     1     -37.749  22.061   3.854  0.00  0.00    +0.210 HD
ENDBRANCH  15  37
BRANCH  23  39
ATOM     39  O   UNL     1     -46.290  29.030   3.369  0.00  0.00    -0.384 OA
ATOM     40  H   UNL     1     -46.769  29.799   3.020  0.00  0.00    +0.210 HD
ENDBRANCH  23  39
TORSDOF 5
ENDMDL
MODEL 9
REMARK VINA RESULT:      -6.1      4.136      7.402
REMARK  Name = 195576
REMARK  5 active torsions:
REMARK  status: ('A' for Active; 'I' for Inactive)
REMARK    1  A    between atoms: C_4  and  O_31
REMARK    2  A    between atoms: C_12  and  O_33
REMARK    3  A    between atoms: C_14  and  O_35
REMARK    4  A    between atoms: C_15  and  O_37
REMARK    5  A    between atoms: C_23  and  O_39
REMARK                            x       y       z     vdW  Elec       q    Type
REMARK                         _______ _______ _______ _____ _____    ______ ____
ROOT
ATOM      1  O   UNL     1     -34.385  22.739   1.342  0.00  0.00    -0.294 OA
ATOM      2  N   UNL     1     -42.138  25.917  -0.300  0.00  0.00    +0.390 N 
ATOM      3  C   UNL     1     -40.222  23.254   1.722  0.00  0.00    +0.023 C 
ATOM      4  C   UNL     1     -39.258  22.078   1.432  0.00  0.00    +0.093 C 
ATOM      5  C   UNL     1     -38.056  23.536   2.889  0.00  0.00    +0.006 C 
ATOM      6  C   UNL     1     -37.879  22.751   1.573  0.00  0.00    +0.059 C 
ATOM      7  C   UNL     1     -40.592  24.108   0.476  0.00  0.00    -0.014 C 
ATOM      8  C   UNL     1     -39.472  24.120   2.781  0.00  0.00    +0.002 C 
ATOM      9  C   UNL     1     -36.863  24.493   3.173  0.00  0.00    +0.007 C 
ATOM     10  C   UNL     1     -40.969  23.242  -0.747  0.00  0.00    +0.048 C 
ATOM     11  C   UNL     1     -39.517  21.351   0.112  0.00  0.00    +0.056 C 
ATOM     12  C   UNL     1     -39.823  22.256  -1.076  0.00  0.00    +0.115 C 
ATOM     13  C   UNL     1     -35.595  23.591   3.266  0.00  0.00    +0.062 C 
ATOM     14  C   UNL     1     -36.618  21.884   1.601  0.00  0.00    +0.170 C 
ATOM     15  C   UNL     1     -41.404  24.157  -1.940  0.00  0.00    +0.074 C 
ATOM     16  C   UNL     1     -41.764  25.044   0.822  0.00  0.00    -0.077 C 
ATOM     17  C   UNL     1     -42.548  25.134  -1.490  0.00  0.00    -0.033 C 
ATOM     18  C   UNL     1     -37.056  25.197   4.540  0.00  0.00    +0.003 C 
ATOM     19  C   UNL     1     -35.428  22.755   1.993  0.00  0.00    +0.177 C 
ATOM     20  C   UNL     1     -36.711  25.570   2.068  0.00  0.00    +0.000 C 
ATOM     21  C   UNL     1     -34.343  24.376   3.657  0.00  0.00    +0.037 C 
ATOM     22  C   UNL     1     -35.811  25.956   5.009  0.00  0.00    +0.029 C 
ATOM     23  C   UNL     1     -34.551  25.090   4.994  0.00  0.00    +0.111 C 
ATOM     24  C   UNL     1     -42.982  26.093  -2.628  0.00  0.00    -0.019 C 
ATOM     25  C   UNL     1     -41.850  23.297  -3.136  0.00  0.00    +0.027 C 
ATOM     26  C   UNL     1     -43.203  26.833   0.152  0.00  0.00    -0.077 C 
ATOM     27  C   UNL     1     -43.613  27.846  -0.923  0.00  0.00    -0.021 C 
ATOM     28  C   UNL     1     -44.041  27.097  -2.183  0.00  0.00    -0.004 C 
ATOM     29  C   UNL     1     -42.501  28.860  -1.206  0.00  0.00    -0.002 C 
ATOM     30  H   UNL     1     -41.327  26.464  -0.589  0.00  0.00    -0.080 HD
ENDROOT
BRANCH   4  31
ATOM     31  O   UNL     1     -39.409  21.104   2.477  0.00  0.00    -0.387 OA
ATOM     32  H   UNL     1     -40.335  21.081   2.766  0.00  0.00    +0.210 HD
ENDBRANCH   4  31
BRANCH  12  33
ATOM     33  O   UNL     1     -38.629  22.922  -1.470  0.00  0.00    -0.384 OA
ATOM     34  H   UNL     1     -37.863  22.457  -1.100  0.00  0.00    +0.210 HD
ENDBRANCH  12  33
BRANCH  14  35
ATOM     35  O   UNL     1     -36.702  20.840   2.551  0.00  0.00    -0.377 OA
ATOM     36  H   UNL     1     -35.930  20.873   3.138  0.00  0.00    +0.211 HD
ENDBRANCH  14  35
BRANCH  15  37
ATOM     37  O   UNL     1     -40.273  24.932  -2.360  0.00  0.00    -0.389 OA
ATOM     38  H   UNL     1     -39.491  24.663  -1.854  0.00  0.00    +0.210 HD
ENDBRANCH  15  37
BRANCH  23  39
ATOM     39  O   UNL     1     -33.411  25.901   5.257  0.00  0.00    -0.384 OA
ATOM     40  H   UNL     1     -32.675  25.340   5.551  0.00  0.00    +0.210 HD
ENDBRANCH  23  39
TORSDOF 5
ENDMDL
