MODEL 1
REMARK VINA RESULT:      -7.1      0.000      0.000
REMARK  Name = 54602813
REMARK  6 active torsions:
REMARK  status: ('A' for Active; 'I' for Inactive)
REMARK    1  A    between atoms: C_9  and  O_25
REMARK    2  A    between atoms: C_14  and  O_31
REMARK    3  A    between atoms: C_15  and  O_27
REMARK    4  A    between atoms: C_16  and  O_29
REMARK    5  A    between atoms: O_31  and  C_33
REMARK    6  A    between atoms: C_33  and  C_34
REMARK                            x       y       z     vdW  Elec       q    Type
REMARK                         _______ _______ _______ _____ _____    ______ ____
ROOT
ATOM      1  O   UNL     1     -36.936  24.322   4.855  0.00  0.00    -0.332 OA
ATOM      2  O   UNL     1     -33.850  23.732   1.164  0.00  0.00    -0.448 OA
ATOM      3  O   UNL     1     -32.114  25.061   0.662  0.00  0.00    -0.250 OA
ATOM      4  O   UNL     1     -39.856  25.917  -0.746  0.00  0.00    -0.289 OA
ATOM      5  C   UNL     1     -35.281  24.057   3.165  0.00  0.00    +0.073 C 
ATOM      6  C   UNL     1     -36.353  25.053   2.670  0.00  0.00    +0.063 C 
ATOM      7  C   UNL     1     -37.429  24.477   1.638  0.00  0.00    +0.044 C 
ATOM      8  C   UNL     1     -34.049  24.812   3.767  0.00  0.00    +0.020 C 
ATOM      9  C   UNL     1     -36.833  25.531   4.069  0.00  0.00    +0.209 C 
ATOM     10  C   UNL     1     -34.758  23.095   2.110  0.00  0.00    +0.211 C 
ATOM     11  C   UNL     1     -36.723  23.544   0.564  0.00  0.00    +0.065 C 
ATOM     12  C   UNL     1     -36.024  23.351   4.309  0.00  0.00    +0.148 C 
ATOM     13  C   UNL     1     -34.439  25.721   4.971  0.00  0.00    +0.033 C 
ATOM     14  C   UNL     1     -35.867  22.452   1.260  0.00  0.00    +0.212 C 
ATOM     15  C   UNL     1     -35.778  26.449   4.738  0.00  0.00    +0.161 C 
ATOM     16  C   UNL     1     -38.015  25.664   0.796  0.00  0.00    +0.172 C 
ATOM     17  C   UNL     1     -33.272  25.548   2.680  0.00  0.00    +0.110 C 
ATOM     18  C   UNL     1     -38.596  23.722   2.339  0.00  0.00    +0.003 C 
ATOM     19  C   UNL     1     -37.722  23.080  -0.508  0.00  0.00    -0.038 C 
ATOM     20  C   UNL     1     -33.327  26.673   5.421  0.00  0.00    +0.003 C 
ATOM     21  C   UNL     1     -33.011  24.745   1.442  0.00  0.00    +0.317 C 
ATOM     22  C   UNL     1     -38.945  25.211  -0.318  0.00  0.00    +0.199 C 
ATOM     23  C   UNL     1     -38.725  23.874  -0.919  0.00  0.00    +0.032 C 
ATOM     24  C   UNL     1     -37.571  21.737  -1.166  0.00  0.00    +0.027 C 
ENDROOT
BRANCH   9  25
ATOM     25  O   UNL     1     -38.067  26.225   4.037  0.00  0.00    -0.362 OA
ATOM     26  H   UNL     1     -37.914  27.164   4.228  0.00  0.00    +0.213 HD
ENDBRANCH   9  25
BRANCH  15  27
ATOM     27  O   UNL     1     -35.581  27.615   3.941  0.00  0.00    -0.380 OA
ATOM     28  H   UNL     1     -34.635  27.730   3.764  0.00  0.00    +0.211 HD
ENDBRANCH  15  27
BRANCH  16  29
ATOM     29  O   UNL     1     -38.752  26.580   1.584  0.00  0.00    -0.377 OA
ATOM     30  H   UNL     1     -38.868  26.219   2.476  0.00  0.00    +0.211 HD
ENDBRANCH  16  29
BRANCH  14  31
ATOM     31  O   UNL     1     -35.205  21.628   0.298  0.00  0.00    -0.445 OA
BRANCH  31  33
ATOM     32  O   UNL     1     -35.933  19.557   0.994  0.00  0.00    -0.245 OA
ATOM     33  C   UNL     1     -35.042  20.322   0.650  0.00  0.00    +0.337 C 
BRANCH  33  34
ATOM     34  C   UNL     1     -33.596  19.958   0.560  0.00  0.00    +0.049 C 
ATOM     35  C   UNL     1     -32.671  20.889  -0.165  0.00  0.00    +0.037 C 
ATOM     36  C   UNL     1     -33.251  18.785   1.123  0.00  0.00    -0.024 C 
ATOM     37  C   UNL     1     -31.882  18.185   1.195  0.00  0.00    +0.031 C 
ENDBRANCH  33  34
ENDBRANCH  31  33
ENDBRANCH  14  31
TORSDOF 6
ENDMDL
MODEL 2
REMARK VINA RESULT:      -7.0      2.259      6.577
REMARK  Name = 54602813
REMARK  6 active torsions:
REMARK  status: ('A' for Active; 'I' for Inactive)
REMARK    1  A    between atoms: C_9  and  O_25
REMARK    2  A    between atoms: C_14  and  O_31
REMARK    3  A    between atoms: C_15  and  O_27
REMARK    4  A    between atoms: C_16  and  O_29
REMARK    5  A    between atoms: O_31  and  C_33
REMARK    6  A    between atoms: C_33  and  C_34
REMARK                            x       y       z     vdW  Elec       q    Type
REMARK                         _______ _______ _______ _____ _____    ______ ____
ROOT
ATOM      1  O   UNL     1     -37.581  21.075   0.710  0.00  0.00    -0.332 OA
ATOM      2  O   UNL     1     -33.633  23.856   0.303  0.00  0.00    -0.448 OA
ATOM      3  O   UNL     1     -31.607  23.189  -0.391  0.00  0.00    -0.250 OA
ATOM      4  O   UNL     1     -35.188  22.395   6.623  0.00  0.00    -0.289 OA
ATOM      5  C   UNL     1     -35.619  22.370   0.338  0.00  0.00    +0.073 C 
ATOM      6  C   UNL     1     -35.516  21.681   1.717  0.00  0.00    +0.063 C 
ATOM      7  C   UNL     1     -35.821  22.599   2.989  0.00  0.00    +0.044 C 
ATOM      8  C   UNL     1     -34.865  21.546  -0.759  0.00  0.00    +0.020 C 
ATOM      9  C   UNL     1     -36.460  20.486   1.407  0.00  0.00    +0.209 C 
ATOM     10  C   UNL     1     -35.090  23.794   0.287  0.00  0.00    +0.211 C 
ATOM     11  C   UNL     1     -35.152  24.028   2.815  0.00  0.00    +0.065 C 
ATOM     12  C   UNL     1     -37.128  22.277   0.062  0.00  0.00    +0.148 C 
ATOM     13  C   UNL     1     -35.428  20.101  -0.910  0.00  0.00    +0.033 C 
ATOM     14  C   UNL     1     -35.560  24.668   1.462  0.00  0.00    +0.212 C 
ATOM     15  C   UNL     1     -35.781  19.470   0.452  0.00  0.00    +0.161 C 
ATOM     16  C   UNL     1     -35.108  21.986   4.244  0.00  0.00    +0.172 C 
ATOM     17  C   UNL     1     -33.356  21.586  -0.534  0.00  0.00    +0.110 C 
ATOM     18  C   UNL     1     -37.344  22.738   3.283  0.00  0.00    +0.003 C 
ATOM     19  C   UNL     1     -35.331  24.881   4.081  0.00  0.00    -0.038 C 
ATOM     20  C   UNL     1     -34.562  19.180  -1.773  0.00  0.00    +0.003 C 
ATOM     21  C   UNL     1     -32.802  22.946  -0.235  0.00  0.00    +0.317 C 
ATOM     22  C   UNL     1     -35.213  22.860   5.484  0.00  0.00    +0.199 C 
ATOM     23  C   UNL     1     -35.332  24.325   5.305  0.00  0.00    +0.032 C 
ATOM     24  C   UNL     1     -35.460  26.376   3.986  0.00  0.00    +0.027 C 
ENDROOT
BRANCH   9  25
ATOM     25  O   UNL     1     -36.888  19.789   2.563  0.00  0.00    -0.362 OA
ATOM     26  H   UNL     1     -37.709  20.184   2.894  0.00  0.00    +0.213 HD
ENDBRANCH   9  25
BRANCH  15  27
ATOM     27  O   UNL     1     -34.614  18.934   1.072  0.00  0.00    -0.380 OA
ATOM     28  H   UNL     1     -33.828  19.379   0.720  0.00  0.00    +0.211 HD
ENDBRANCH  15  27
BRANCH  16  29
ATOM     29  O   UNL     1     -35.628  20.718   4.603  0.00  0.00    -0.377 OA
ATOM     30  H   UNL     1     -36.578  20.798   4.784  0.00  0.00    +0.211 HD
ENDBRANCH  16  29
BRANCH  14  31
ATOM     31  O   UNL     1     -34.936  25.942   1.286  0.00  0.00    -0.445 OA
BRANCH  31  33
ATOM     32  O   UNL     1     -36.614  26.669  -0.113  0.00  0.00    -0.245 OA
ATOM     33  C   UNL     1     -35.688  26.887   0.656  0.00  0.00    +0.337 C 
BRANCH  33  34
ATOM     34  C   UNL     1     -35.203  28.247   1.040  0.00  0.00    +0.049 C 
ATOM     35  C   UNL     1     -33.726  28.508   1.021  0.00  0.00    +0.037 C 
ATOM     36  C   UNL     1     -36.153  29.126   1.407  0.00  0.00    -0.024 C 
ATOM     37  C   UNL     1     -35.957  30.550   1.821  0.00  0.00    +0.031 C 
ENDBRANCH  33  34
ENDBRANCH  31  33
ENDBRANCH  14  31
TORSDOF 6
ENDMDL
MODEL 3
REMARK VINA RESULT:      -6.9      2.117      5.315
REMARK  Name = 54602813
REMARK  6 active torsions:
REMARK  status: ('A' for Active; 'I' for Inactive)
REMARK    1  A    between atoms: C_9  and  O_25
REMARK    2  A    between atoms: C_14  and  O_31
REMARK    3  A    between atoms: C_15  and  O_27
REMARK    4  A    between atoms: C_16  and  O_29
REMARK    5  A    between atoms: O_31  and  C_33
REMARK    6  A    between atoms: C_33  and  C_34
REMARK                            x       y       z     vdW  Elec       q    Type
REMARK                         _______ _______ _______ _____ _____    ______ ____
ROOT
ATOM      1  O   UNL     1     -35.131  26.479   0.005  0.00  0.00    -0.332 OA
ATOM      2  O   UNL     1     -38.845  24.692   2.556  0.00  0.00    -0.448 OA
ATOM      3  O   UNL     1     -40.798  25.722   2.954  0.00  0.00    -0.250 OA
ATOM      4  O   UNL     1     -33.706  26.591   6.361  0.00  0.00    -0.289 OA
ATOM      5  C   UNL     1     -37.067  25.652   1.116  0.00  0.00    +0.073 C 
ATOM      6  C   UNL     1     -36.257  26.528   2.098  0.00  0.00    +0.063 C 
ATOM      7  C   UNL     1     -35.368  25.746   3.171  0.00  0.00    +0.044 C 
ATOM      8  C   UNL     1     -38.223  26.473   0.453  0.00  0.00    +0.020 C 
ATOM      9  C   UNL     1     -35.549  27.408   1.031  0.00  0.00    +0.209 C 
ATOM     10  C   UNL     1     -37.684  24.402   1.724  0.00  0.00    +0.211 C 
ATOM     11  C   UNL     1     -36.169  24.508   3.760  0.00  0.00    +0.065 C 
ATOM     12  C   UNL     1     -36.014  25.342   0.041  0.00  0.00    +0.148 C 
ATOM     13  C   UNL     1     -37.697  27.707  -0.340  0.00  0.00    +0.033 C 
ATOM     14  C   UNL     1     -36.714  23.610   2.618  0.00  0.00    +0.212 C 
ATOM     15  C   UNL     1     -36.539  28.416   0.391  0.00  0.00    +0.161 C 
ATOM     16  C   UNL     1     -35.127  26.678   4.410  0.00  0.00    +0.172 C 
ATOM     17  C   UNL     1     -39.301  26.826   1.474  0.00  0.00    +0.110 C 
ATOM     18  C   UNL     1     -33.993  25.289   2.600  0.00  0.00    +0.003 C 
ATOM     19  C   UNL     1     -35.376  23.818   4.882  0.00  0.00    -0.038 C 
ATOM     20  C   UNL     1     -38.793  28.681  -0.779  0.00  0.00    +0.003 C 
ATOM     21  C   UNL     1     -39.723  25.692   2.358  0.00  0.00    +0.317 C 
ATOM     22  C   UNL     1     -34.411  25.982   5.557  0.00  0.00    +0.199 C 
ATOM     23  C   UNL     1     -34.590  24.520   5.715  0.00  0.00    +0.032 C 
ATOM     24  C   UNL     1     -35.500  22.337   5.109  0.00  0.00    +0.027 C 
ENDROOT
BRANCH   9  25
ATOM     25  O   UNL     1     -34.445  28.135   1.540  0.00  0.00    -0.362 OA
ATOM     26  H   UNL     1     -33.629  27.633   1.385  0.00  0.00    +0.213 HD
ENDBRANCH   9  25
BRANCH  15  27
ATOM     27  O   UNL     1     -37.044  29.295   1.394  0.00  0.00    -0.380 OA
ATOM     28  H   UNL     1     -36.964  28.874   2.264  0.00  0.00    +0.211 HD
ENDBRANCH  15  27
BRANCH  16  29
ATOM     29  O   UNL     1     -34.354  27.821   4.091  0.00  0.00    -0.377 OA
ATOM     30  H   UNL     1     -34.172  27.832   3.138  0.00  0.00    +0.211 HD
ENDBRANCH  16  29
BRANCH  14  31
ATOM     31  O   UNL     1     -37.463  22.510   3.141  0.00  0.00    -0.445 OA
BRANCH  31  33
ATOM     32  O   UNL     1     -39.060  21.279   2.030  0.00  0.00    -0.245 OA
ATOM     33  C   UNL     1     -37.896  21.600   2.225  0.00  0.00    +0.337 C 
BRANCH  33  34
ATOM     34  C   UNL     1     -36.725  21.039   1.488  0.00  0.00    +0.049 C 
ATOM     35  C   UNL     1     -36.693  21.171  -0.006  0.00  0.00    +0.037 C 
ATOM     36  C   UNL     1     -35.797  20.422   2.243  0.00  0.00    -0.024 C 
ATOM     37  C   UNL     1     -34.524  19.789   1.775  0.00  0.00    +0.031 C 
ENDBRANCH  33  34
ENDBRANCH  31  33
ENDBRANCH  14  31
TORSDOF 6
ENDMDL
MODEL 4
REMARK VINA RESULT:      -6.8      2.476      6.602
REMARK  Name = 54602813
REMARK  6 active torsions:
REMARK  status: ('A' for Active; 'I' for Inactive)
REMARK    1  A    between atoms: C_9  and  O_25
REMARK    2  A    between atoms: C_14  and  O_31
REMARK    3  A    between atoms: C_15  and  O_27
REMARK    4  A    between atoms: C_16  and  O_29
REMARK    5  A    between atoms: O_31  and  C_33
REMARK    6  A    between atoms: C_33  and  C_34
REMARK                            x       y       z     vdW  Elec       q    Type
REMARK                         _______ _______ _______ _____ _____    ______ ____
ROOT
ATOM      1  O   UNL     1     -37.933  25.360   0.980  0.00  0.00    -0.332 OA
ATOM      2  O   UNL     1     -33.104  25.564   1.331  0.00  0.00    -0.448 OA
ATOM      3  O   UNL     1     -31.633  24.447   0.058  0.00  0.00    -0.250 OA
ATOM      4  O   UNL     1     -35.959  22.074   6.247  0.00  0.00    -0.289 OA
ATOM      5  C   UNL     1     -35.556  25.486   0.967  0.00  0.00    +0.073 C 
ATOM      6  C   UNL     1     -35.992  24.246   1.779  0.00  0.00    +0.063 C 
ATOM      7  C   UNL     1     -35.942  24.391   3.370  0.00  0.00    +0.044 C 
ATOM      8  C   UNL     1     -35.198  25.096  -0.506  0.00  0.00    +0.020 C 
ATOM      9  C   UNL     1     -37.366  24.034   1.085  0.00  0.00    +0.209 C 
ATOM     10  C   UNL     1     -34.373  26.250   1.540  0.00  0.00    +0.211 C 
ATOM     11  C   UNL     1     -34.621  25.151   3.816  0.00  0.00    +0.065 C 
ATOM     12  C   UNL     1     -36.853  26.311   0.948  0.00  0.00    +0.148 C 
ATOM     13  C   UNL     1     -36.396  24.439  -1.255  0.00  0.00    +0.033 C 
ATOM     14  C   UNL     1     -34.474  26.495   3.055  0.00  0.00    +0.212 C 
ATOM     15  C   UNL     1     -37.188  23.474  -0.350  0.00  0.00    +0.161 C 
ATOM     16  C   UNL     1     -35.804  22.965   4.008  0.00  0.00    +0.172 C 
ATOM     17  C   UNL     1     -33.922  24.261  -0.557  0.00  0.00    +0.110 C 
ATOM     18  C   UNL     1     -37.204  25.092   3.953  0.00  0.00    +0.003 C 
ATOM     19  C   UNL     1     -34.496  25.191   5.348  0.00  0.00    -0.038 C 
ATOM     20  C   UNL     1     -36.021  23.804  -2.597  0.00  0.00    +0.003 C 
ATOM     21  C   UNL     1     -32.794  24.788   0.277  0.00  0.00    +0.317 C 
ATOM     22  C   UNL     1     -35.602  22.996   5.515  0.00  0.00    +0.199 C 
ATOM     23  C   UNL     1     -34.933  24.175   6.111  0.00  0.00    +0.032 C 
ATOM     24  C   UNL     1     -33.832  26.353   6.032  0.00  0.00    +0.027 C 
ENDROOT
BRANCH   9  25
ATOM     25  O   UNL     1     -38.230  23.165   1.795  0.00  0.00    -0.362 OA
ATOM     26  H   UNL     1     -38.633  22.535   1.177  0.00  0.00    +0.213 HD
ENDBRANCH   9  25
BRANCH  15  27
ATOM     27  O   UNL     1     -36.545  22.202  -0.292  0.00  0.00    -0.380 OA
ATOM     28  H   UNL     1     -36.039  22.132   0.532  0.00  0.00    +0.211 HD
ENDBRANCH  15  27
BRANCH  16  29
ATOM     29  O   UNL     1     -36.938  22.150   3.773  0.00  0.00    -0.377 OA
ATOM     30  H   UNL     1     -37.688  22.707   3.513  0.00  0.00    +0.211 HD
ENDBRANCH  16  29
BRANCH  14  31
ATOM     31  O   UNL     1     -33.271  27.170   3.430  0.00  0.00    -0.445 OA
BRANCH  31  33
ATOM     32  O   UNL     1     -34.375  29.189   3.380  0.00  0.00    -0.245 OA
ATOM     33  C   UNL     1     -33.373  28.519   3.586  0.00  0.00    +0.337 C 
BRANCH  33  34
ATOM     34  C   UNL     1     -32.062  29.069   4.044  0.00  0.00    +0.049 C 
ATOM     35  C   UNL     1     -30.819  28.282   3.752  0.00  0.00    +0.037 C 
ATOM     36  C   UNL     1     -32.117  30.231   4.721  0.00  0.00    -0.024 C 
ATOM     37  C   UNL     1     -30.967  31.009   5.277  0.00  0.00    +0.031 C 
ENDBRANCH  33  34
ENDBRANCH  31  33
ENDBRANCH  14  31
TORSDOF 6
ENDMDL
MODEL 5
REMARK VINA RESULT:      -6.7      1.758      2.422
REMARK  Name = 54602813
REMARK  6 active torsions:
REMARK  status: ('A' for Active; 'I' for Inactive)
REMARK    1  A    between atoms: C_9  and  O_25
REMARK    2  A    between atoms: C_14  and  O_31
REMARK    3  A    between atoms: C_15  and  O_27
REMARK    4  A    between atoms: C_16  and  O_29
REMARK    5  A    between atoms: O_31  and  C_33
REMARK    6  A    between atoms: C_33  and  C_34
REMARK                            x       y       z     vdW  Elec       q    Type
REMARK                         _______ _______ _______ _____ _____    ______ ____
ROOT
ATOM      1  O   UNL     1     -34.323  26.379   4.382  0.00  0.00    -0.332 OA
ATOM      2  O   UNL     1     -34.346  23.315   0.627  0.00  0.00    -0.448 OA
ATOM      3  O   UNL     1     -33.188  23.546  -1.280  0.00  0.00    -0.250 OA
ATOM      4  O   UNL     1     -39.931  26.928   1.114  0.00  0.00    -0.289 OA
ATOM      5  C   UNL     1     -34.147  24.881   2.540  0.00  0.00    +0.073 C 
ATOM      6  C   UNL     1     -35.176  25.982   2.199  0.00  0.00    +0.063 C 
ATOM      7  C   UNL     1     -36.715  25.571   2.324  0.00  0.00    +0.044 C 
ATOM      8  C   UNL     1     -32.739  25.227   1.948  0.00  0.00    +0.020 C 
ATOM      9  C   UNL     1     -34.610  27.075   3.148  0.00  0.00    +0.209 C 
ATOM     10  C   UNL     1     -34.514  23.484   2.065  0.00  0.00    +0.211 C 
ATOM     11  C   UNL     1     -36.951  24.116   1.730  0.00  0.00    +0.065 C 
ATOM     12  C   UNL     1     -34.070  24.997   4.071  0.00  0.00    +0.148 C 
ATOM     13  C   UNL     1     -32.181  26.577   2.488  0.00  0.00    +0.033 C 
ATOM     14  C   UNL     1     -35.971  23.096   2.366  0.00  0.00    +0.212 C 
ATOM     15  C   UNL     1     -33.279  27.654   2.602  0.00  0.00    +0.161 C 
ATOM     16  C   UNL     1     -37.571  26.509   1.403  0.00  0.00    +0.172 C 
ATOM     17  C   UNL     1     -32.750  25.143   0.424  0.00  0.00    +0.110 C 
ATOM     18  C   UNL     1     -37.250  25.661   3.784  0.00  0.00    +0.003 C 
ATOM     19  C   UNL     1     -38.444  23.754   1.729  0.00  0.00    -0.038 C 
ATOM     20  C   UNL     1     -30.942  27.084   1.746  0.00  0.00    +0.003 C 
ATOM     21  C   UNL     1     -33.417  23.922  -0.132  0.00  0.00    +0.317 C 
ATOM     22  C   UNL     1     -39.037  26.113   1.334  0.00  0.00    +0.199 C 
ATOM     23  C   UNL     1     -39.390  24.686   1.520  0.00  0.00    +0.032 C 
ATOM     24  C   UNL     1     -38.887  22.329   1.912  0.00  0.00    +0.027 C 
ENDROOT
BRANCH   9  25
ATOM     25  O   UNL     1     -35.504  28.151   3.367  0.00  0.00    -0.362 OA
ATOM     26  H   UNL     1     -36.241  28.093   2.738  0.00  0.00    +0.213 HD
ENDBRANCH   9  25
BRANCH  15  27
ATOM     27  O   UNL     1     -33.507  28.271   1.337  0.00  0.00    -0.380 OA
ATOM     28  H   UNL     1     -34.446  28.201   1.107  0.00  0.00    +0.211 HD
ENDBRANCH  15  27
BRANCH  16  29
ATOM     29  O   UNL     1     -37.541  27.861   1.825  0.00  0.00    -0.377 OA
ATOM     30  H   UNL     1     -37.974  27.939   2.689  0.00  0.00    +0.211 HD
ENDBRANCH  16  29
BRANCH  14  31
ATOM     31  O   UNL     1     -36.157  21.790   1.813  0.00  0.00    -0.445 OA
BRANCH  31  33
ATOM     32  O   UNL     1     -35.350  20.644   3.639  0.00  0.00    -0.245 OA
ATOM     33  C   UNL     1     -35.480  20.784   2.431  0.00  0.00    +0.337 C 
BRANCH  33  34
ATOM     34  C   UNL     1     -34.903  19.866   1.403  0.00  0.00    +0.049 C 
ATOM     35  C   UNL     1     -35.653  19.676   0.118  0.00  0.00    +0.037 C 
ATOM     36  C   UNL     1     -33.754  19.253   1.742  0.00  0.00    -0.024 C 
ATOM     37  C   UNL     1     -32.955  18.303   0.906  0.00  0.00    +0.031 C 
ENDBRANCH  33  34
ENDBRANCH  31  33
ENDBRANCH  14  31
TORSDOF 6
ENDMDL
MODEL 6
REMARK VINA RESULT:      -6.6      2.885      5.561
REMARK  Name = 54602813
REMARK  6 active torsions:
REMARK  status: ('A' for Active; 'I' for Inactive)
REMARK    1  A    between atoms: C_9  and  O_25
REMARK    2  A    between atoms: C_14  and  O_31
REMARK    3  A    between atoms: C_15  and  O_27
REMARK    4  A    between atoms: C_16  and  O_29
REMARK    5  A    between atoms: O_31  and  C_33
REMARK    6  A    between atoms: C_33  and  C_34
REMARK                            x       y       z     vdW  Elec       q    Type
REMARK                         _______ _______ _______ _____ _____    ______ ____
ROOT
ATOM      1  O   UNL     1     -35.519  23.685   1.725  0.00  0.00    -0.332 OA
ATOM      2  O   UNL     1     -32.853  26.882   4.207  0.00  0.00    -0.448 OA
ATOM      3  O   UNL     1     -32.987  27.295   6.408  0.00  0.00    -0.250 OA
ATOM      4  O   UNL     1     -37.531  29.739   0.405  0.00  0.00    -0.289 OA
ATOM      5  C   UNL     1     -34.177  25.119   3.068  0.00  0.00    +0.073 C 
ATOM      6  C   UNL     1     -35.497  25.842   2.722  0.00  0.00    +0.063 C 
ATOM      7  C   UNL     1     -35.418  26.937   1.560  0.00  0.00    +0.044 C 
ATOM      8  C   UNL     1     -34.259  24.446   4.480  0.00  0.00    +0.020 C 
ATOM      9  C   UNL     1     -36.360  24.570   2.499  0.00  0.00    +0.209 C 
ATOM     10  C   UNL     1     -32.936  25.998   3.051  0.00  0.00    +0.211 C 
ATOM     11  C   UNL     1     -34.103  27.814   1.714  0.00  0.00    +0.065 C 
ATOM     12  C   UNL     1     -34.145  24.011   2.004  0.00  0.00    +0.148 C 
ATOM     13  C   UNL     1     -35.408  23.399   4.573  0.00  0.00    +0.033 C 
ATOM     14  C   UNL     1     -32.846  26.911   1.817  0.00  0.00    +0.212 C 
ATOM     15  C   UNL     1     -36.683  23.870   3.844  0.00  0.00    +0.161 C 
ATOM     16  C   UNL     1     -36.592  27.961   1.743  0.00  0.00    +0.172 C 
ATOM     17  C   UNL     1     -34.306  25.497   5.586  0.00  0.00    +0.110 C 
ATOM     18  C   UNL     1     -35.500  26.315   0.135  0.00  0.00    +0.003 C 
ATOM     19  C   UNL     1     -34.072  28.951   0.679  0.00  0.00    -0.038 C 
ATOM     20  C   UNL     1     -35.696  22.912   5.996  0.00  0.00    +0.003 C 
ATOM     21  C   UNL     1     -33.308  26.605   5.442  0.00  0.00    +0.317 C 
ATOM     22  C   UNL     1     -36.527  29.132   0.775  0.00  0.00    +0.199 C 
ATOM     23  C   UNL     1     -35.200  29.562   0.278  0.00  0.00    +0.032 C 
ATOM     24  C   UNL     1     -32.765  29.446   0.124  0.00  0.00    +0.027 C 
ENDROOT
BRANCH   9  25
ATOM     25  O   UNL     1     -37.582  24.825   1.830  0.00  0.00    -0.362 OA
ATOM     26  H   UNL     1     -37.790  24.083   1.240  0.00  0.00    +0.213 HD
ENDBRANCH   9  25
BRANCH  15  27
ATOM     27  O   UNL     1     -37.437  24.750   4.675  0.00  0.00    -0.380 OA
ATOM     28  H   UNL     1     -38.383  24.629   4.500  0.00  0.00    +0.211 HD
ENDBRANCH  15  27
BRANCH  16  29
ATOM     29  O   UNL     1     -37.866  27.368   1.569  0.00  0.00    -0.377 OA
ATOM     30  H   UNL     1     -37.999  26.685   2.244  0.00  0.00    +0.211 HD
ENDBRANCH  16  29
BRANCH  14  31
ATOM     31  O   UNL     1     -31.662  27.694   1.986  0.00  0.00    -0.445 OA
BRANCH  31  33
ATOM     32  O   UNL     1     -30.240  26.250   0.893  0.00  0.00    -0.245 OA
ATOM     33  C   UNL     1     -30.485  27.035   1.799  0.00  0.00    +0.337 C 
BRANCH  33  34
ATOM     34  C   UNL     1     -29.526  27.409   2.882  0.00  0.00    +0.049 C 
ATOM     35  C   UNL     1     -29.826  28.624   3.710  0.00  0.00    +0.037 C 
ATOM     36  C   UNL     1     -28.439  26.625   3.000  0.00  0.00    -0.024 C 
ATOM     37  C   UNL     1     -27.333  26.756   4.000  0.00  0.00    +0.031 C 
ENDBRANCH  33  34
ENDBRANCH  31  33
ENDBRANCH  14  31
TORSDOF 6
ENDMDL
MODEL 7
REMARK VINA RESULT:      -6.6      3.839      7.369
REMARK  Name = 54602813
REMARK  6 active torsions:
REMARK  status: ('A' for Active; 'I' for Inactive)
REMARK    1  A    between atoms: C_9  and  O_25
REMARK    2  A    between atoms: C_14  and  O_31
REMARK    3  A    between atoms: C_15  and  O_27
REMARK    4  A    between atoms: C_16  and  O_29
REMARK    5  A    between atoms: O_31  and  C_33
REMARK    6  A    between atoms: C_33  and  C_34
REMARK                            x       y       z     vdW  Elec       q    Type
REMARK                         _______ _______ _______ _____ _____    ______ ____
ROOT
ATOM      1  O   UNL     1     -34.377  25.877   1.586  0.00  0.00    -0.332 OA
ATOM      2  O   UNL     1     -32.201  27.661   5.532  0.00  0.00    -0.448 OA
ATOM      3  O   UNL     1     -32.864  27.376   7.656  0.00  0.00    -0.250 OA
ATOM      4  O   UNL     1     -35.507  32.277   2.031  0.00  0.00    -0.289 OA
ATOM      5  C   UNL     1     -33.319  26.582   3.598  0.00  0.00    +0.073 C 
ATOM      6  C   UNL     1     -34.446  27.578   3.245  0.00  0.00    +0.063 C 
ATOM      7  C   UNL     1     -33.986  28.956   2.578  0.00  0.00    +0.044 C 
ATOM      8  C   UNL     1     -33.814  25.521   4.638  0.00  0.00    +0.020 C 
ATOM      9  C   UNL     1     -35.319  26.595   2.416  0.00  0.00    +0.209 C 
ATOM     10  C   UNL     1     -32.051  27.212   4.154  0.00  0.00    +0.211 C 
ATOM     11  C   UNL     1     -32.691  29.518   3.305  0.00  0.00    +0.065 C 
ATOM     12  C   UNL     1     -33.101  25.875   2.251  0.00  0.00    +0.148 C 
ATOM     13  C   UNL     1     -35.026  24.694   4.114  0.00  0.00    +0.033 C 
ATOM     14  C   UNL     1     -31.576  28.440   3.360  0.00  0.00    +0.212 C 
ATOM     15  C   UNL     1     -36.030  25.568   3.334  0.00  0.00    +0.161 C 
ATOM     16  C   UNL     1     -35.084  30.043   2.844  0.00  0.00    +0.172 C 
ATOM     17  C   UNL     1     -34.062  26.163   6.000  0.00  0.00    +0.110 C 
ATOM     18  C   UNL     1     -33.746  28.835   1.044  0.00  0.00    +0.003 C 
ATOM     19  C   UNL     1     -32.307  30.902   2.758  0.00  0.00    -0.038 C 
ATOM     20  C   UNL     1     -35.707  23.837   5.184  0.00  0.00    +0.003 C 
ATOM     21  C   UNL     1     -32.978  27.085   6.466  0.00  0.00    +0.317 C 
ATOM     22  C   UNL     1     -34.682  31.433   2.376  0.00  0.00    +0.199 C 
ATOM     23  C   UNL     1     -33.242  31.780   2.358  0.00  0.00    +0.032 C 
ATOM     24  C   UNL     1     -30.867  31.332   2.704  0.00  0.00    +0.027 C 
ENDROOT
BRANCH   9  25
ATOM     25  O   UNL     1     -36.303  27.240   1.629  0.00  0.00    -0.362 OA
ATOM     26  H   UNL     1     -37.039  26.629   1.467  0.00  0.00    +0.213 HD
ENDBRANCH   9  25
BRANCH  15  27
ATOM     27  O   UNL     1     -36.902  26.250   4.233  0.00  0.00    -0.380 OA
ATOM     28  H   UNL     1     -37.517  26.804   3.729  0.00  0.00    +0.211 HD
ENDBRANCH  15  27
BRANCH  16  29
ATOM     29  O   UNL     1     -36.313  29.746   2.205  0.00  0.00    -0.377 OA
ATOM     30  H   UNL     1     -36.957  29.448   2.866  0.00  0.00    +0.211 HD
ENDBRANCH  16  29
BRANCH  14  31
ATOM     31  O   UNL     1     -30.419  28.931   4.040  0.00  0.00    -0.445 OA
BRANCH  31  33
ATOM     32  O   UNL     1     -28.923  27.585   2.921  0.00  0.00    -0.245 OA
ATOM     33  C   UNL     1     -29.299  28.164   3.931  0.00  0.00    +0.337 C 
BRANCH  33  34
ATOM     34  C   UNL     1     -28.590  28.125   5.245  0.00  0.00    +0.049 C 
ATOM     35  C   UNL     1     -27.548  27.068   5.461  0.00  0.00    +0.037 C 
ATOM     36  C   UNL     1     -28.982  29.041   6.150  0.00  0.00    -0.024 C 
ATOM     37  C   UNL     1     -28.437  29.240   7.530  0.00  0.00    +0.031 C 
ENDBRANCH  33  34
ENDBRANCH  31  33
ENDBRANCH  14  31
TORSDOF 6
ENDMDL
MODEL 8
REMARK VINA RESULT:      -6.4      1.864      5.865
REMARK  Name = 54602813
REMARK  6 active torsions:
REMARK  status: ('A' for Active; 'I' for Inactive)
REMARK    1  A    between atoms: C_9  and  O_25
REMARK    2  A    between atoms: C_14  and  O_31
REMARK    3  A    between atoms: C_15  and  O_27
REMARK    4  A    between atoms: C_16  and  O_29
REMARK    5  A    between atoms: O_31  and  C_33
REMARK    6  A    between atoms: C_33  and  C_34
REMARK                            x       y       z     vdW  Elec       q    Type
REMARK                         _______ _______ _______ _____ _____    ______ ____
ROOT
ATOM      1  O   UNL     1     -35.267  21.845  -1.109  0.00  0.00    -0.332 OA
ATOM      2  O   UNL     1     -35.823  22.894   3.590  0.00  0.00    -0.448 OA
ATOM      3  O   UNL     1     -35.596  21.464   5.304  0.00  0.00    -0.250 OA
ATOM      4  O   UNL     1     -41.594  22.575   0.260  0.00  0.00    -0.289 OA
ATOM      5  C   UNL     1     -35.377  22.274   1.230  0.00  0.00    +0.073 C 
ATOM      6  C   UNL     1     -36.729  21.695   0.758  0.00  0.00    +0.063 C 
ATOM      7  C   UNL     1     -37.916  22.747   0.559  0.00  0.00    +0.044 C 
ATOM      8  C   UNL     1     -34.465  21.151   1.829  0.00  0.00    +0.020 C 
ATOM      9  C   UNL     1     -36.189  20.927  -0.480  0.00  0.00    +0.209 C 
ATOM     10  C   UNL     1     -35.475  23.385   2.263  0.00  0.00    +0.211 C 
ATOM     11  C   UNL     1     -37.926  23.802   1.747  0.00  0.00    +0.065 C 
ATOM     12  C   UNL     1     -34.762  22.738  -0.100  0.00  0.00    +0.148 C 
ATOM     13  C   UNL     1     -34.161  20.019   0.802  0.00  0.00    +0.033 C 
ATOM     14  C   UNL     1     -36.528  24.452   1.920  0.00  0.00    +0.212 C 
ATOM     15  C   UNL     1     -35.395  19.666  -0.053  0.00  0.00    +0.161 C 
ATOM     16  C   UNL     1     -39.288  22.000   0.691  0.00  0.00    +0.172 C 
ATOM     17  C   UNL     1     -35.028  20.634   3.150  0.00  0.00    +0.110 C 
ATOM     18  C   UNL     1     -37.858  23.471  -0.818  0.00  0.00    +0.003 C 
ATOM     19  C   UNL     1     -39.134  24.746   1.637  0.00  0.00    -0.038 C 
ATOM     20  C   UNL     1     -33.501  18.781   1.414  0.00  0.00    +0.003 C 
ATOM     21  C   UNL     1     -35.471  21.702   4.104  0.00  0.00    +0.317 C 
ATOM     22  C   UNL     1     -40.488  22.934   0.662  0.00  0.00    +0.199 C 
ATOM     23  C   UNL     1     -40.314  24.319   1.157  0.00  0.00    +0.032 C 
ATOM     24  C   UNL     1     -39.041  26.169   2.116  0.00  0.00    +0.027 C 
ENDROOT
BRANCH   9  25
ATOM     25  O   UNL     1     -37.204  20.525  -1.383  0.00  0.00    -0.362 OA
ATOM     26  H   UNL     1     -37.662  19.747  -1.029  0.00  0.00    +0.213 HD
ENDBRANCH   9  25
BRANCH  15  27
ATOM     27  O   UNL     1     -36.254  18.774   0.655  0.00  0.00    -0.380 OA
ATOM     28  H   UNL     1     -37.070  19.236   0.900  0.00  0.00    +0.211 HD
ENDBRANCH  15  27
BRANCH  16  29
ATOM     29  O   UNL     1     -39.495  21.052  -0.340  0.00  0.00    -0.377 OA
ATOM     30  H   UNL     1     -39.922  20.262   0.028  0.00  0.00    +0.211 HD
ENDBRANCH  16  29
BRANCH  14  31
ATOM     31  O   UNL     1     -36.523  25.380   3.007  0.00  0.00    -0.445 OA
BRANCH  31  33
ATOM     32  O   UNL     1     -34.779  26.665   2.228  0.00  0.00    -0.245 OA
ATOM     33  C   UNL     1     -35.394  26.130   3.140  0.00  0.00    +0.337 C 
BRANCH  33  34
ATOM     34  C   UNL     1     -35.007  26.197   4.581  0.00  0.00    +0.049 C 
ATOM     35  C   UNL     1     -36.010  25.765   5.609  0.00  0.00    +0.037 C 
ATOM     36  C   UNL     1     -33.777  26.681   4.836  0.00  0.00    -0.024 C 
ATOM     37  C   UNL     1     -33.128  26.842   6.175  0.00  0.00    +0.031 C 
ENDBRANCH  33  34
ENDBRANCH  31  33
ENDBRANCH  14  31
TORSDOF 6
ENDMDL
MODEL 9
REMARK VINA RESULT:      -6.4      2.305      5.487
REMARK  Name = 54602813
REMARK  6 active torsions:
REMARK  status: ('A' for Active; 'I' for Inactive)
REMARK    1  A    between atoms: C_9  and  O_25
REMARK    2  A    between atoms: C_14  and  O_31
REMARK    3  A    between atoms: C_15  and  O_27
REMARK    4  A    between atoms: C_16  and  O_29
REMARK    5  A    between atoms: O_31  and  C_33
REMARK    6  A    between atoms: C_33  and  C_34
REMARK                            x       y       z     vdW  Elec       q    Type
REMARK                         _______ _______ _______ _____ _____    ______ ____
ROOT
ATOM      1  O   UNL     1     -40.561  21.657   0.846  0.00  0.00    -0.332 OA
ATOM      2  O   UNL     1     -36.971  24.590   2.259  0.00  0.00    -0.448 OA
ATOM      3  O   UNL     1     -37.009  26.833   2.247  0.00  0.00    -0.250 OA
ATOM      4  O   UNL     1     -35.816  21.653  -3.618  0.00  0.00    -0.289 OA
ATOM      5  C   UNL     1     -38.924  23.191   1.641  0.00  0.00    +0.073 C 
ATOM      6  C   UNL     1     -38.788  23.057   0.108  0.00  0.00    +0.063 C 
ATOM      7  C   UNL     1     -37.594  22.131  -0.415  0.00  0.00    +0.044 C 
ATOM      8  C   UNL     1     -39.782  24.444   2.021  0.00  0.00    +0.020 C 
ATOM      9  C   UNL     1     -40.253  22.629  -0.179  0.00  0.00    +0.209 C 
ATOM     10  C   UNL     1     -37.610  23.288   2.401  0.00  0.00    +0.211 C 
ATOM     11  C   UNL     1     -36.277  22.392   0.433  0.00  0.00    +0.065 C 
ATOM     12  C   UNL     1     -39.729  21.929   1.989  0.00  0.00    +0.148 C 
ATOM     13  C   UNL     1     -41.220  24.385   1.423  0.00  0.00    +0.033 C 
ATOM     14  C   UNL     1     -36.563  22.255   1.952  0.00  0.00    +0.212 C 
ATOM     15  C   UNL     1     -41.228  23.824  -0.014  0.00  0.00    +0.161 C 
ATOM     16  C   UNL     1     -37.211  22.568  -1.872  0.00  0.00    +0.172 C 
ATOM     17  C   UNL     1     -39.042  25.736   1.688  0.00  0.00    +0.110 C 
ATOM     18  C   UNL     1     -37.958  20.617  -0.415  0.00  0.00    +0.003 C 
ATOM     19  C   UNL     1     -35.088  21.602  -0.135  0.00  0.00    -0.038 C 
ATOM     20  C   UNL     1     -42.001  25.695   1.543  0.00  0.00    +0.003 C 
ATOM     21  C   UNL     1     -37.607  25.766   2.118  0.00  0.00    +0.317 C 
ATOM     22  C   UNL     1     -35.988  21.847  -2.415  0.00  0.00    +0.199 C 
ATOM     23  C   UNL     1     -34.960  21.382  -1.455  0.00  0.00    +0.032 C 
ATOM     24  C   UNL     1     -34.002  21.093   0.772  0.00  0.00    +0.027 C 
ENDROOT
BRANCH   9  25
ATOM     25  O   UNL     1     -40.440  22.082  -1.472  0.00  0.00    -0.362 OA
ATOM     26  H   UNL     1     -39.579  21.837  -1.846  0.00  0.00    +0.213 HD
ENDBRANCH   9  25
BRANCH  15  27
ATOM     27  O   UNL     1     -40.896  24.847  -0.951  0.00  0.00    -0.380 OA
ATOM     28  H   UNL     1     -41.595  25.519  -0.957  0.00  0.00    +0.211 HD
ENDBRANCH  15  27
BRANCH  16  29
ATOM     29  O   UNL     1     -38.255  22.342  -2.802  0.00  0.00    -0.377 OA
ATOM     30  H   UNL     1     -37.896  21.906  -3.591  0.00  0.00    +0.211 HD
ENDBRANCH  16  29
BRANCH  14  31
ATOM     31  O   UNL     1     -35.388  22.518   2.722  0.00  0.00    -0.445 OA
BRANCH  31  33
ATOM     32  O   UNL     1     -35.312  20.604   4.000  0.00  0.00    -0.245 OA
ATOM     33  C   UNL     1     -35.276  21.822   3.887  0.00  0.00    +0.337 C 
BRANCH  33  34
ATOM     34  C   UNL     1     -35.108  22.776   5.024  0.00  0.00    +0.049 C 
ATOM     35  C   UNL     1     -35.412  22.291   6.411  0.00  0.00    +0.037 C 
ATOM     36  C   UNL     1     -34.722  24.021   4.693  0.00  0.00    -0.024 C 
ATOM     37  C   UNL     1     -34.463  25.166   5.622  0.00  0.00    +0.031 C 
ENDBRANCH  33  34
ENDBRANCH  31  33
ENDBRANCH  14  31
TORSDOF 6
ENDMDL
