MODEL 1
REMARK VINA RESULT:      -7.3      0.000      0.000
REMARK  Name = 21252312
REMARK  8 active torsions:
REMARK  status: ('A' for Active; 'I' for Inactive)
REMARK    1  A    between atoms: C_6  and  C_22
REMARK    2  A    between atoms: C_10  and  O_20
REMARK    3  A    between atoms: C_19  and  O_30
REMARK    4  A    between atoms: C_22  and  C_24
REMARK    5  A    between atoms: C_24  and  C_25
REMARK    6  A    between atoms: C_25  and  C_27
REMARK    7  A    between atoms: C_27  and  O_28
REMARK    8  A    between atoms: O_30  and  S_31
REMARK                            x       y       z     vdW  Elec       q    Type
REMARK                         _______ _______ _______ _____ _____    ______ ____
ROOT
ATOM      1  C   UNL     1     -37.170  21.679   1.841  0.00  0.00    +0.002 C 
ATOM      2  C   UNL     1     -35.809  21.897   2.533  0.00  0.00    +0.000 C 
ATOM      3  C   UNL     1     -37.042  21.070   0.437  0.00  0.00    +0.027 C 
ATOM      4  C   UNL     1     -36.323  19.683   0.558  0.00  0.00    +0.002 C 
ATOM      5  C   UNL     1     -36.152  18.989  -0.846  0.00  0.00    +0.000 C 
ATOM      6  C   UNL     1     -36.301  22.561   3.844  0.00  0.00    +0.000 C 
ATOM      7  C   UNL     1     -37.552  18.855  -1.531  0.00  0.00    +0.005 C 
ATOM      8  C   UNL     1     -35.157  20.521   2.718  0.00  0.00    +0.000 C 
ATOM      9  C   UNL     1     -35.006  19.780   1.378  0.00  0.00    +0.000 C 
ATOM     10  C   UNL     1     -38.402  20.953  -0.278  0.00  0.00    +0.110 C 
ATOM     11  C   UNL     1     -37.872  23.026   1.995  0.00  0.00    +0.000 C 
ATOM     12  C   UNL     1     -37.397  23.542   3.367  0.00  0.00    +0.000 C 
ATOM     13  C   UNL     1     -38.301  20.201  -1.609  0.00  0.00    +0.029 C 
ATOM     14  C   UNL     1     -35.509  17.574  -0.742  0.00  0.00    +0.003 C 
ATOM     15  C   UNL     1     -34.846  22.832   1.763  0.00  0.00    +0.000 C 
ATOM     16  C   UNL     1     -38.434  17.765  -0.887  0.00  0.00    +0.032 C 
ATOM     17  C   UNL     1     -35.210  19.812  -1.766  0.00  0.00    +0.000 C 
ATOM     18  C   UNL     1     -36.400  16.534  -0.078  0.00  0.00    +0.032 C 
ATOM     19  C   UNL     1     -37.729  16.414  -0.811  0.00  0.00    +0.147 C 
ENDROOT
BRANCH  10  20
ATOM     20  O   UNL     1     -39.356  20.324   0.571  0.00  0.00    -0.384 OA
ATOM     21  H   UNL     1     -40.140  20.081   0.053  0.00  0.00    +0.210 HD
ENDBRANCH  10  20
BRANCH   6  22
ATOM     22  C   UNL     1     -35.243  23.232   4.708  0.00  0.00    +0.001 C 
ATOM     23  C   UNL     1     -34.942  22.364   5.937  0.00  0.00    +0.000 C 
BRANCH  22  24
ATOM     24  C   UNL     1     -35.699  24.652   5.100  0.00  0.00    +0.012 C 
BRANCH  24  25
ATOM     25  C   UNL     1     -34.573  25.532   5.647  0.00  0.00    +0.109 C 
BRANCH  25  27
ATOM     26  O   UNL     1     -32.971  26.640   4.184  0.00  0.00    -0.250 OA
ATOM     27  C   UNL     1     -34.107  26.547   4.627  0.00  0.00    +0.314 C 
BRANCH  27  28
ATOM     28  O   UNL     1     -35.119  27.373   4.251  0.00  0.00    -0.480 OA
ATOM     29  H   UNL     1     -35.946  27.329   4.689  0.00  0.00    +0.295 HD
ENDBRANCH  27  28
ENDBRANCH  25  27
ENDBRANCH  24  25
ENDBRANCH  22  24
ENDBRANCH   6  22
BRANCH  19  30
ATOM     30  O   UNL     1     -38.549  15.484  -0.113  0.00  0.00    -0.203 OA
BRANCH  30  31
ATOM     31  S   UNL     1     -39.814  14.787  -0.878  0.00  0.00    +0.239 S 
ATOM     32  O   UNL     1     -39.889  13.298  -0.216  0.00  0.00    -0.022 OA
ATOM     33  O   UNL     1     -41.012  15.504  -0.479  0.00  0.00    -0.116 OA
ATOM     34  O   UNL     1     -39.491  14.635  -2.284  0.00  0.00    -0.116 OA
ENDBRANCH  30  31
ENDBRANCH  19  30
TORSDOF 8
ENDMDL
MODEL 2
REMARK VINA RESULT:      -6.6      3.506      9.738
REMARK  Name = 21252312
REMARK  8 active torsions:
REMARK  status: ('A' for Active; 'I' for Inactive)
REMARK    1  A    between atoms: C_6  and  C_22
REMARK    2  A    between atoms: C_10  and  O_20
REMARK    3  A    between atoms: C_19  and  O_30
REMARK    4  A    between atoms: C_22  and  C_24
REMARK    5  A    between atoms: C_24  and  C_25
REMARK    6  A    between atoms: C_25  and  C_27
REMARK    7  A    between atoms: C_27  and  O_28
REMARK    8  A    between atoms: O_30  and  S_31
REMARK                            x       y       z     vdW  Elec       q    Type
REMARK                         _______ _______ _______ _____ _____    ______ ____
ROOT
ATOM      1  C   UNL     1     -35.074  22.474   0.692  0.00  0.00    +0.002 C 
ATOM      2  C   UNL     1     -35.456  21.087   1.250  0.00  0.00    +0.000 C 
ATOM      3  C   UNL     1     -35.798  23.629   1.400  0.00  0.00    +0.027 C 
ATOM      4  C   UNL     1     -35.430  23.591   2.922  0.00  0.00    +0.002 C 
ATOM      5  C   UNL     1     -36.136  24.750   3.723  0.00  0.00    +0.000 C 
ATOM      6  C   UNL     1     -34.624  20.198   0.293  0.00  0.00    +0.000 C 
ATOM      7  C   UNL     1     -35.769  26.125   3.074  0.00  0.00    +0.005 C 
ATOM      8  C   UNL     1     -35.013  21.039   2.717  0.00  0.00    +0.000 C 
ATOM      9  C   UNL     1     -35.643  22.179   3.537  0.00  0.00    +0.000 C 
ATOM     10  C   UNL     1     -35.482  24.996   0.765  0.00  0.00    +0.110 C 
ATOM     11  C   UNL     1     -35.246  22.314  -0.817  0.00  0.00    +0.000 C 
ATOM     12  C   UNL     1     -34.827  20.857  -1.091  0.00  0.00    +0.000 C 
ATOM     13  C   UNL     1     -36.072  26.163   1.562  0.00  0.00    +0.029 C 
ATOM     14  C   UNL     1     -35.724  24.779   5.225  0.00  0.00    +0.003 C 
ATOM     15  C   UNL     1     -36.965  20.754   1.148  0.00  0.00    +0.000 C 
ATOM     16  C   UNL     1     -34.315  26.555   3.362  0.00  0.00    +0.032 C 
ATOM     17  C   UNL     1     -37.679  24.577   3.714  0.00  0.00    +0.000 C 
ATOM     18  C   UNL     1     -34.276  25.183   5.464  0.00  0.00    +0.032 C 
ATOM     19  C   UNL     1     -33.987  26.546   4.851  0.00  0.00    +0.147 C 
ENDROOT
BRANCH  10  20
ATOM     20  O   UNL     1     -34.075  25.162   0.618  0.00  0.00    -0.384 OA
ATOM     21  H   UNL     1     -33.869  25.378  -0.305  0.00  0.00    +0.210 HD
ENDBRANCH  10  20
BRANCH   6  22
ATOM     22  C   UNL     1     -34.945  18.710   0.291  0.00  0.00    +0.001 C 
ATOM     23  C   UNL     1     -33.710  17.906   0.717  0.00  0.00    +0.000 C 
BRANCH  22  24
ATOM     24  C   UNL     1     -35.465  18.279  -1.095  0.00  0.00    +0.012 C 
BRANCH  24  25
ATOM     25  C   UNL     1     -35.994  16.845  -1.137  0.00  0.00    +0.109 C 
BRANCH  25  27
ATOM     26  O   UNL     1     -38.291  17.330  -0.489  0.00  0.00    -0.250 OA
ATOM     27  C   UNL     1     -37.263  16.690  -0.328  0.00  0.00    +0.314 C 
BRANCH  27  28
ATOM     28  O   UNL     1     -37.126  15.735   0.630  0.00  0.00    -0.480 OA
ATOM     29  H   UNL     1     -36.970  14.845   0.385  0.00  0.00    +0.295 HD
ENDBRANCH  27  28
ENDBRANCH  25  27
ENDBRANCH  24  25
ENDBRANCH  22  24
ENDBRANCH   6  22
BRANCH  19  30
ATOM     30  O   UNL     1     -32.609  26.846   5.040  0.00  0.00    -0.203 OA
BRANCH  30  31
ATOM     31  S   UNL     1     -32.162  27.903   6.203  0.00  0.00    +0.239 S 
ATOM     32  O   UNL     1     -30.544  27.719   6.288  0.00  0.00    -0.022 OA
ATOM     33  O   UNL     1     -32.424  29.239   5.700  0.00  0.00    -0.116 OA
ATOM     34  O   UNL     1     -32.728  27.479   7.470  0.00  0.00    -0.116 OA
ENDBRANCH  30  31
ENDBRANCH  19  30
TORSDOF 8
ENDMDL
MODEL 3
REMARK VINA RESULT:      -6.5      6.666     11.674
REMARK  Name = 21252312
REMARK  8 active torsions:
REMARK  status: ('A' for Active; 'I' for Inactive)
REMARK    1  A    between atoms: C_6  and  C_22
REMARK    2  A    between atoms: C_10  and  O_20
REMARK    3  A    between atoms: C_19  and  O_30
REMARK    4  A    between atoms: C_22  and  C_24
REMARK    5  A    between atoms: C_24  and  C_25
REMARK    6  A    between atoms: C_25  and  C_27
REMARK    7  A    between atoms: C_27  and  O_28
REMARK    8  A    between atoms: O_30  and  S_31
REMARK                            x       y       z     vdW  Elec       q    Type
REMARK                         _______ _______ _______ _____ _____    ______ ____
ROOT
ATOM      1  C   UNL     1     -35.567  27.916   2.613  0.00  0.00    +0.002 C 
ATOM      2  C   UNL     1     -35.976  26.658   1.819  0.00  0.00    +0.000 C 
ATOM      3  C   UNL     1     -35.339  29.145   1.721  0.00  0.00    +0.027 C 
ATOM      4  C   UNL     1     -36.667  29.457   0.952  0.00  0.00    +0.002 C 
ATOM      5  C   UNL     1     -36.516  30.711   0.009  0.00  0.00    +0.000 C 
ATOM      6  C   UNL     1     -36.050  25.641   2.985  0.00  0.00    +0.000 C 
ATOM      7  C   UNL     1     -36.036  31.938   0.854  0.00  0.00    +0.005 C 
ATOM      8  C   UNL     1     -37.319  26.954   1.140  0.00  0.00    +0.000 C 
ATOM      9  C   UNL     1     -37.237  28.199   0.239  0.00  0.00    +0.000 C 
ATOM     10  C   UNL     1     -34.835  30.363   2.518  0.00  0.00    +0.110 C 
ATOM     11  C   UNL     1     -34.422  27.426   3.497  0.00  0.00    +0.000 C 
ATOM     12  C   UNL     1     -34.807  25.975   3.842  0.00  0.00    +0.000 C 
ATOM     13  C   UNL     1     -34.760  31.631   1.664  0.00  0.00    +0.029 C 
ATOM     14  C   UNL     1     -37.846  31.088  -0.707  0.00  0.00    +0.003 C 
ATOM     15  C   UNL     1     -34.940  26.212   0.758  0.00  0.00    +0.000 C 
ATOM     16  C   UNL     1     -37.145  32.514   1.760  0.00  0.00    +0.032 C 
ATOM     17  C   UNL     1     -35.490  30.439  -1.124  0.00  0.00    +0.000 C 
ATOM     18  C   UNL     1     -38.923  31.628   0.224  0.00  0.00    +0.032 C 
ATOM     19  C   UNL     1     -38.417  32.845   0.986  0.00  0.00    +0.147 C 
ENDROOT
BRANCH  10  20
ATOM     20  O   UNL     1     -35.660  30.586   3.658  0.00  0.00    -0.384 OA
ATOM     21  H   UNL     1     -35.382  29.999   4.378  0.00  0.00    +0.210 HD
ENDBRANCH  10  20
BRANCH   6  22
ATOM     22  C   UNL     1     -36.128  24.170   2.605  0.00  0.00    +0.001 C 
ATOM     23  C   UNL     1     -37.537  23.630   2.879  0.00  0.00    +0.000 C 
BRANCH  22  24
ATOM     24  C   UNL     1     -35.045  23.368   3.356  0.00  0.00    +0.012 C 
BRANCH  24  25
ATOM     25  C   UNL     1     -35.518  21.996   3.839  0.00  0.00    +0.109 C 
BRANCH  25  27
ATOM     26  O   UNL     1     -35.877  22.830   6.098  0.00  0.00    -0.250 OA
ATOM     27  C   UNL     1     -35.567  21.916   5.348  0.00  0.00    +0.314 C 
BRANCH  27  28
ATOM     28  O   UNL     1     -35.212  20.681   5.791  0.00  0.00    -0.480 OA
ATOM     29  H   UNL     1     -34.521  20.589   6.416  0.00  0.00    +0.295 HD
ENDBRANCH  27  28
ENDBRANCH  25  27
ENDBRANCH  24  25
ENDBRANCH  22  24
ENDBRANCH   6  22
BRANCH  19  30
ATOM     30  O   UNL     1     -39.431  33.268   1.890  0.00  0.00    -0.203 OA
BRANCH  30  31
ATOM     31  S   UNL     1     -39.965  34.811   1.843  0.00  0.00    +0.239 S 
ATOM     32  O   UNL     1     -41.440  34.728   2.533  0.00  0.00    -0.022 OA
ATOM     33  O   UNL     1     -39.114  35.593   2.722  0.00  0.00    -0.116 OA
ATOM     34  O   UNL     1     -40.141  35.209   0.458  0.00  0.00    -0.116 OA
ENDBRANCH  30  31
ENDBRANCH  19  30
TORSDOF 8
ENDMDL
MODEL 4
REMARK VINA RESULT:      -6.4      3.841      6.121
REMARK  Name = 21252312
REMARK  8 active torsions:
REMARK  status: ('A' for Active; 'I' for Inactive)
REMARK    1  A    between atoms: C_6  and  C_22
REMARK    2  A    between atoms: C_10  and  O_20
REMARK    3  A    between atoms: C_19  and  O_30
REMARK    4  A    between atoms: C_22  and  C_24
REMARK    5  A    between atoms: C_24  and  C_25
REMARK    6  A    between atoms: C_25  and  C_27
REMARK    7  A    between atoms: C_27  and  O_28
REMARK    8  A    between atoms: O_30  and  S_31
REMARK                            x       y       z     vdW  Elec       q    Type
REMARK                         _______ _______ _______ _____ _____    ______ ____
ROOT
ATOM      1  C   UNL     1     -34.064  25.330   4.443  0.00  0.00    +0.002 C 
ATOM      2  C   UNL     1     -33.549  26.556   3.660  0.00  0.00    +0.000 C 
ATOM      3  C   UNL     1     -35.137  24.536   3.684  0.00  0.00    +0.027 C 
ATOM      4  C   UNL     1     -34.524  24.036   2.332  0.00  0.00    +0.002 C 
ATOM      5  C   UNL     1     -35.567  23.208   1.489  0.00  0.00    +0.000 C 
ATOM      6  C   UNL     1     -32.571  27.132   4.715  0.00  0.00    +0.000 C 
ATOM      7  C   UNL     1     -36.105  22.020   2.354  0.00  0.00    +0.005 C 
ATOM      8  C   UNL     1     -32.879  26.040   2.380  0.00  0.00    +0.000 C 
ATOM      9  C   UNL     1     -33.845  25.188   1.539  0.00  0.00    +0.000 C 
ATOM     10  C   UNL     1     -35.710  23.377   4.521  0.00  0.00    +0.110 C 
ATOM     11  C   UNL     1     -34.407  25.900   5.818  0.00  0.00    +0.000 C 
ATOM     12  C   UNL     1     -33.347  26.995   6.046  0.00  0.00    +0.000 C 
ATOM     13  C   UNL     1     -36.661  22.488   3.714  0.00  0.00    +0.029 C 
ATOM     14  C   UNL     1     -34.957  22.634   0.176  0.00  0.00    +0.003 C 
ATOM     15  C   UNL     1     -34.646  27.586   3.298  0.00  0.00    +0.000 C 
ATOM     16  C   UNL     1     -35.068  20.892   2.534  0.00  0.00    +0.032 C 
ATOM     17  C   UNL     1     -36.760  24.098   1.045  0.00  0.00    +0.000 C 
ATOM     18  C   UNL     1     -33.920  21.541   0.397  0.00  0.00    +0.032 C 
ATOM     19  C   UNL     1     -34.511  20.393   1.204  0.00  0.00    +0.147 C 
ENDROOT
BRANCH  10  20
ATOM     20  O   UNL     1     -34.656  22.595   5.074  0.00  0.00    -0.384 OA
ATOM     21  H   UNL     1     -33.819  23.077   4.992  0.00  0.00    +0.210 HD
ENDBRANCH  10  20
BRANCH   6  22
ATOM     22  C   UNL     1     -32.059  28.544   4.472  0.00  0.00    +0.001 C 
ATOM     23  C   UNL     1     -30.847  28.508   3.532  0.00  0.00    +0.000 C 
BRANCH  22  24
ATOM     24  C   UNL     1     -31.729  29.228   5.814  0.00  0.00    +0.012 C 
BRANCH  24  25
ATOM     25  C   UNL     1     -30.292  29.743   5.907  0.00  0.00    +0.109 C 
BRANCH  25  27
ATOM     26  O   UNL     1     -28.798  29.486   7.814  0.00  0.00    -0.250 OA
ATOM     27  C   UNL     1     -29.487  28.984   6.938  0.00  0.00    +0.314 C 
BRANCH  27  28
ATOM     28  O   UNL     1     -29.614  27.640   6.774  0.00  0.00    -0.480 OA
ATOM     29  H   UNL     1     -28.854  27.093   6.790  0.00  0.00    +0.295 HD
ENDBRANCH  27  28
ENDBRANCH  25  27
ENDBRANCH  24  25
ENDBRANCH  22  24
ENDBRANCH   6  22
BRANCH  19  30
ATOM     30  O   UNL     1     -33.487  19.434   1.443  0.00  0.00    -0.203 OA
BRANCH  30  31
ATOM     31  S   UNL     1     -33.222  18.245   0.355  0.00  0.00    +0.239 S 
ATOM     32  O   UNL     1     -32.327  17.160   1.182  0.00  0.00    -0.022 OA
ATOM     33  O   UNL     1     -34.503  17.626   0.066  0.00  0.00    -0.116 OA
ATOM     34  O   UNL     1     -32.405  18.767  -0.725  0.00  0.00    -0.116 OA
ENDBRANCH  30  31
ENDBRANCH  19  30
TORSDOF 8
ENDMDL
MODEL 5
REMARK VINA RESULT:      -6.4      6.931     12.857
REMARK  Name = 21252312
REMARK  8 active torsions:
REMARK  status: ('A' for Active; 'I' for Inactive)
REMARK    1  A    between atoms: C_6  and  C_22
REMARK    2  A    between atoms: C_10  and  O_20
REMARK    3  A    between atoms: C_19  and  O_30
REMARK    4  A    between atoms: C_22  and  C_24
REMARK    5  A    between atoms: C_24  and  C_25
REMARK    6  A    between atoms: C_25  and  C_27
REMARK    7  A    between atoms: C_27  and  O_28
REMARK    8  A    between atoms: O_30  and  S_31
REMARK                            x       y       z     vdW  Elec       q    Type
REMARK                         _______ _______ _______ _____ _____    ______ ____
ROOT
ATOM      1  C   UNL     1     -33.367  27.527   4.722  0.00  0.00    +0.002 C 
ATOM      2  C   UNL     1     -34.012  26.714   3.580  0.00  0.00    +0.000 C 
ATOM      3  C   UNL     1     -31.974  28.066   4.365  0.00  0.00    +0.027 C 
ATOM      4  C   UNL     1     -32.105  28.996   3.111  0.00  0.00    +0.002 C 
ATOM      5  C   UNL     1     -30.712  29.593   2.678  0.00  0.00    +0.000 C 
ATOM      6  C   UNL     1     -35.322  26.287   4.290  0.00  0.00    +0.000 C 
ATOM      7  C   UNL     1     -30.073  30.347   3.892  0.00  0.00    +0.005 C 
ATOM      8  C   UNL     1     -34.209  27.661   2.390  0.00  0.00    +0.000 C 
ATOM      9  C   UNL     1     -32.881  28.306   1.954  0.00  0.00    +0.000 C 
ATOM     10  C   UNL     1     -31.304  28.788   5.549  0.00  0.00    +0.110 C 
ATOM     11  C   UNL     1     -33.512  26.615   5.938  0.00  0.00    +0.000 C 
ATOM     12  C   UNL     1     -34.857  25.899   5.713  0.00  0.00    +0.000 C 
ATOM     13  C   UNL     1     -29.988  29.465   5.154  0.00  0.00    +0.029 C 
ATOM     14  C   UNL     1     -30.828  30.582   1.481  0.00  0.00    +0.003 C 
ATOM     15  C   UNL     1     -33.192  25.479   3.136  0.00  0.00    +0.000 C 
ATOM     16  C   UNL     1     -30.769  31.690   4.197  0.00  0.00    +0.032 C 
ATOM     17  C   UNL     1     -29.745  28.473   2.207  0.00  0.00    +0.000 C 
ATOM     18  C   UNL     1     -31.544  31.883   1.816  0.00  0.00    +0.032 C 
ATOM     19  C   UNL     1     -30.854  32.595   2.972  0.00  0.00    +0.147 C 
ENDROOT
BRANCH  10  20
ATOM     20  O   UNL     1     -32.195  29.742   6.119  0.00  0.00    -0.384 OA
ATOM     21  H   UNL     1     -31.826  30.632   6.015  0.00  0.00    +0.210 HD
ENDBRANCH  10  20
BRANCH   6  22
ATOM     22  C   UNL     1     -36.138  25.193   3.616  0.00  0.00    +0.001 C 
ATOM     23  C   UNL     1     -37.449  25.776   3.074  0.00  0.00    +0.000 C 
BRANCH  22  24
ATOM     24  C   UNL     1     -36.385  24.031   4.600  0.00  0.00    +0.012 C 
BRANCH  24  25
ATOM     25  C   UNL     1     -35.534  22.792   4.317  0.00  0.00    +0.109 C 
BRANCH  25  27
ATOM     26  O   UNL     1     -35.263  22.400   6.705  0.00  0.00    -0.250 OA
ATOM     27  C   UNL     1     -35.311  21.966   5.563  0.00  0.00    +0.314 C 
BRANCH  27  28
ATOM     28  O   UNL     1     -35.158  20.648   5.264  0.00  0.00    -0.480 OA
ATOM     29  H   UNL     1     -35.156  20.010   5.950  0.00  0.00    +0.295 HD
ENDBRANCH  27  28
ENDBRANCH  25  27
ENDBRANCH  24  25
ENDBRANCH  22  24
ENDBRANCH   6  22
BRANCH  19  30
ATOM     30  O   UNL     1     -31.598  33.766   3.292  0.00  0.00    -0.203 OA
BRANCH  30  31
ATOM     31  S   UNL     1     -30.975  35.238   2.953  0.00  0.00    +0.239 S 
ATOM     32  O   UNL     1     -29.476  35.177   3.595  0.00  0.00    -0.022 OA
ATOM     33  O   UNL     1     -30.830  35.328   1.512  0.00  0.00    -0.116 OA
ATOM     34  O   UNL     1     -31.729  36.247   3.674  0.00  0.00    -0.116 OA
ENDBRANCH  30  31
ENDBRANCH  19  30
TORSDOF 8
ENDMDL
MODEL 6
REMARK VINA RESULT:      -6.0      6.986     10.176
REMARK  Name = 21252312
REMARK  8 active torsions:
REMARK  status: ('A' for Active; 'I' for Inactive)
REMARK    1  A    between atoms: C_6  and  C_22
REMARK    2  A    between atoms: C_10  and  O_20
REMARK    3  A    between atoms: C_19  and  O_30
REMARK    4  A    between atoms: C_22  and  C_24
REMARK    5  A    between atoms: C_24  and  C_25
REMARK    6  A    between atoms: C_25  and  C_27
REMARK    7  A    between atoms: C_27  and  O_28
REMARK    8  A    between atoms: O_30  and  S_31
REMARK                            x       y       z     vdW  Elec       q    Type
REMARK                         _______ _______ _______ _____ _____    ______ ____
ROOT
ATOM      1  C   UNL     1     -38.419  25.749   2.796  0.00  0.00    +0.002 C 
ATOM      2  C   UNL     1     -38.840  26.013   1.335  0.00  0.00    +0.000 C 
ATOM      3  C   UNL     1     -37.030  25.105   2.916  0.00  0.00    +0.027 C 
ATOM      4  C   UNL     1     -35.977  26.065   2.266  0.00  0.00    +0.002 C 
ATOM      5  C   UNL     1     -34.519  25.474   2.348  0.00  0.00    +0.000 C 
ATOM      6  C   UNL     1     -40.261  26.579   1.584  0.00  0.00    +0.000 C 
ATOM      7  C   UNL     1     -34.171  25.163   3.842  0.00  0.00    +0.005 C 
ATOM      8  C   UNL     1     -37.846  27.019   0.740  0.00  0.00    +0.000 C 
ATOM      9  C   UNL     1     -36.397  26.507   0.836  0.00  0.00    +0.000 C 
ATOM     10  C   UNL     1     -36.670  24.758   4.373  0.00  0.00    +0.110 C 
ATOM     11  C   UNL     1     -39.622  25.019   3.389  0.00  0.00    +0.000 C 
ATOM     12  C   UNL     1     -40.834  25.656   2.684  0.00  0.00    +0.000 C 
ATOM     13  C   UNL     1     -35.227  24.265   4.517  0.00  0.00    +0.029 C 
ATOM     14  C   UNL     1     -33.444  26.446   1.778  0.00  0.00    +0.003 C 
ATOM     15  C   UNL     1     -38.894  24.745   0.449  0.00  0.00    +0.000 C 
ATOM     16  C   UNL     1     -33.908  26.435   4.675  0.00  0.00    +0.032 C 
ATOM     17  C   UNL     1     -34.394  24.172   1.513  0.00  0.00    +0.000 C 
ATOM     18  C   UNL     1     -33.233  27.701   2.614  0.00  0.00    +0.032 C 
ATOM     19  C   UNL     1     -32.853  27.338   4.043  0.00  0.00    +0.147 C 
ENDROOT
BRANCH  10  20
ATOM     20  O   UNL     1     -36.894  25.879   5.221  0.00  0.00    -0.384 OA
ATOM     21  H   UNL     1     -37.352  25.590   6.026  0.00  0.00    +0.210 HD
ENDBRANCH  10  20
BRANCH   6  22
ATOM     22  C   UNL     1     -41.173  26.692   0.371  0.00  0.00    +0.001 C 
ATOM     23  C   UNL     1     -40.878  27.991  -0.388  0.00  0.00    +0.000 C 
BRANCH  22  24
ATOM     24  C   UNL     1     -42.650  26.599   0.807  0.00  0.00    +0.012 C 
BRANCH  24  25
ATOM     25  C   UNL     1     -43.333  27.959   0.964  0.00  0.00    +0.109 C 
BRANCH  25  27
ATOM     26  O   UNL     1     -42.352  29.003   2.933  0.00  0.00    -0.250 OA
ATOM     27  C   UNL     1     -43.297  28.445   2.395  0.00  0.00    +0.314 C 
BRANCH  27  28
ATOM     28  O   UNL     1     -44.465  28.178   3.039  0.00  0.00    -0.480 OA
ATOM     29  H   UNL     1     -44.451  27.826   3.907  0.00  0.00    +0.295 HD
ENDBRANCH  27  28
ENDBRANCH  25  27
ENDBRANCH  24  25
ENDBRANCH  22  24
ENDBRANCH   6  22
BRANCH  19  30
ATOM     30  O   UNL     1     -32.736  28.539   4.799  0.00  0.00    -0.203 OA
BRANCH  30  31
ATOM     31  S   UNL     1     -31.821  28.557   6.152  0.00  0.00    +0.239 S 
ATOM     32  O   UNL     1     -31.673  30.145   6.494  0.00  0.00    -0.022 OA
ATOM     33  O   UNL     1     -32.603  27.952   7.214  0.00  0.00    -0.116 OA
ATOM     34  O   UNL     1     -30.500  28.044   5.837  0.00  0.00    -0.116 OA
ENDBRANCH  30  31
ENDBRANCH  19  30
TORSDOF 8
ENDMDL
MODEL 7
REMARK VINA RESULT:      -6.0     11.869     13.609
REMARK  Name = 21252312
REMARK  8 active torsions:
REMARK  status: ('A' for Active; 'I' for Inactive)
REMARK    1  A    between atoms: C_6  and  C_22
REMARK    2  A    between atoms: C_10  and  O_20
REMARK    3  A    between atoms: C_19  and  O_30
REMARK    4  A    between atoms: C_22  and  C_24
REMARK    5  A    between atoms: C_24  and  C_25
REMARK    6  A    between atoms: C_25  and  C_27
REMARK    7  A    between atoms: C_27  and  O_28
REMARK    8  A    between atoms: O_30  and  S_31
REMARK                            x       y       z     vdW  Elec       q    Type
REMARK                         _______ _______ _______ _____ _____    ______ ____
ROOT
ATOM      1  C   UNL     1     -32.728  32.385   2.981  0.00  0.00    +0.002 C 
ATOM      2  C   UNL     1     -32.614  30.909   3.417  0.00  0.00    +0.000 C 
ATOM      3  C   UNL     1     -33.525  32.570   1.681  0.00  0.00    +0.027 C 
ATOM      4  C   UNL     1     -34.971  32.008   1.899  0.00  0.00    +0.002 C 
ATOM      5  C   UNL     1     -35.858  32.161   0.606  0.00  0.00    +0.000 C 
ATOM      6  C   UNL     1     -31.724  31.090   4.672  0.00  0.00    +0.000 C 
ATOM      7  C   UNL     1     -35.882  33.663   0.170  0.00  0.00    +0.005 C 
ATOM      8  C   UNL     1     -34.033  30.401   3.706  0.00  0.00    +0.000 C 
ATOM      9  C   UNL     1     -34.954  30.568   2.484  0.00  0.00    +0.000 C 
ATOM     10  C   UNL     1     -33.542  34.035   1.207  0.00  0.00    +0.110 C 
ATOM     11  C   UNL     1     -31.287  32.887   3.036  0.00  0.00    +0.000 C 
ATOM     12  C   UNL     1     -30.670  32.129   4.226  0.00  0.00    +0.000 C 
ATOM     13  C   UNL     1     -34.466  34.251   0.005  0.00  0.00    +0.029 C 
ATOM     14  C   UNL     1     -37.324  31.680   0.822  0.00  0.00    +0.003 C 
ATOM     15  C   UNL     1     -31.930  29.989   2.377  0.00  0.00    +0.000 C 
ATOM     16  C   UNL     1     -36.746  34.543   1.097  0.00  0.00    +0.032 C 
ATOM     17  C   UNL     1     -35.301  31.300  -0.560  0.00  0.00    +0.000 C 
ATOM     18  C   UNL     1     -38.134  32.560   1.763  0.00  0.00    +0.032 C 
ATOM     19  C   UNL     1     -38.161  33.999   1.267  0.00  0.00    +0.147 C 
ENDROOT
BRANCH  10  20
ATOM     20  O   UNL     1     -33.917  34.899   2.276  0.00  0.00    -0.384 OA
ATOM     21  H   UNL     1     -34.470  34.412   2.907  0.00  0.00    +0.210 HD
ENDBRANCH  10  20
BRANCH   6  22
ATOM     22  C   UNL     1     -31.102  29.829   5.255  0.00  0.00    +0.001 C 
ATOM     23  C   UNL     1     -31.775  29.480   6.588  0.00  0.00    +0.000 C 
BRANCH  22  24
ATOM     24  C   UNL     1     -29.578  30.009   5.407  0.00  0.00    +0.012 C 
BRANCH  24  25
ATOM     25  C   UNL     1     -29.002  29.354   6.663  0.00  0.00    +0.109 C 
BRANCH  25  27
ATOM     26  O   UNL     1     -27.468  27.782   5.612  0.00  0.00    -0.250 OA
ATOM     27  C   UNL     1     -28.405  27.997   6.367  0.00  0.00    +0.314 C 
BRANCH  27  28
ATOM     28  O   UNL     1     -29.048  27.012   7.049  0.00  0.00    -0.480 OA
ATOM     29  H   UNL     1     -28.667  26.655   7.826  0.00  0.00    +0.295 HD
ENDBRANCH  27  28
ENDBRANCH  25  27
ENDBRANCH  24  25
ENDBRANCH  22  24
ENDBRANCH   6  22
BRANCH  19  30
ATOM     30  O   UNL     1     -38.869  34.791   2.213  0.00  0.00    -0.203 OA
BRANCH  30  31
ATOM     31  S   UNL     1     -40.432  35.179   1.937  0.00  0.00    +0.239 S 
ATOM     32  O   UNL     1     -40.389  35.940   0.495  0.00  0.00    -0.022 OA
ATOM     33  O   UNL     1     -41.162  33.937   1.755  0.00  0.00    -0.116 OA
ATOM     34  O   UNL     1     -40.865  36.138   2.936  0.00  0.00    -0.116 OA
ENDBRANCH  30  31
ENDBRANCH  19  30
TORSDOF 8
ENDMDL
MODEL 8
REMARK VINA RESULT:      -6.0      5.281      9.167
REMARK  Name = 21252312
REMARK  8 active torsions:
REMARK  status: ('A' for Active; 'I' for Inactive)
REMARK    1  A    between atoms: C_6  and  C_22
REMARK    2  A    between atoms: C_10  and  O_20
REMARK    3  A    between atoms: C_19  and  O_30
REMARK    4  A    between atoms: C_22  and  C_24
REMARK    5  A    between atoms: C_24  and  C_25
REMARK    6  A    between atoms: C_25  and  C_27
REMARK    7  A    between atoms: C_27  and  O_28
REMARK    8  A    between atoms: O_30  and  S_31
REMARK                            x       y       z     vdW  Elec       q    Type
REMARK                         _______ _______ _______ _____ _____    ______ ____
ROOT
ATOM      1  C   UNL     1     -31.347  19.971  -0.391  0.00  0.00    +0.002 C 
ATOM      2  C   UNL     1     -31.207  18.472  -0.055  0.00  0.00    +0.000 C 
ATOM      3  C   UNL     1     -32.808  20.425  -0.525  0.00  0.00    +0.027 C 
ATOM      4  C   UNL     1     -33.541  20.154   0.833  0.00  0.00    +0.002 C 
ATOM      5  C   UNL     1     -35.053  20.594   0.778  0.00  0.00    +0.000 C 
ATOM      6  C   UNL     1     -29.662  18.359  -0.065  0.00  0.00    +0.000 C 
ATOM      7  C   UNL     1     -35.138  22.102   0.368  0.00  0.00    +0.005 C 
ATOM      8  C   UNL     1     -31.857  18.241   1.315  0.00  0.00    +0.000 C 
ATOM      9  C   UNL     1     -33.327  18.696   1.329  0.00  0.00    +0.000 C 
ATOM     10  C   UNL     1     -32.927  21.898  -0.959  0.00  0.00    +0.110 C 
ATOM     11  C   UNL     1     -30.407  20.162  -1.579  0.00  0.00    +0.000 C 
ATOM     12  C   UNL     1     -29.242  19.195  -1.296  0.00  0.00    +0.000 C 
ATOM     13  C   UNL     1     -34.374  22.400  -0.938  0.00  0.00    +0.029 C 
ATOM     14  C   UNL     1     -35.783  20.406   2.141  0.00  0.00    +0.003 C 
ATOM     15  C   UNL     1     -31.841  17.523  -1.101  0.00  0.00    +0.000 C 
ATOM     16  C   UNL     1     -34.703  23.057   1.498  0.00  0.00    +0.032 C 
ATOM     17  C   UNL     1     -35.849  19.740  -0.246  0.00  0.00    +0.000 C 
ATOM     18  C   UNL     1     -35.307  21.349   3.237  0.00  0.00    +0.032 C 
ATOM     19  C   UNL     1     -35.454  22.801   2.801  0.00  0.00    +0.147 C 
ENDROOT
BRANCH  10  20
ATOM     20  O   UNL     1     -32.108  22.725  -0.138  0.00  0.00    -0.384 OA
ATOM     21  H   UNL     1     -31.248  22.297  -0.003  0.00  0.00    +0.210 HD
ENDBRANCH  10  20
BRANCH   6  22
ATOM     22  C   UNL     1     -29.080  16.953  -0.079  0.00  0.00    +0.001 C 
ATOM     23  C   UNL     1     -28.190  16.741   1.152  0.00  0.00    +0.000 C 
BRANCH  22  24
ATOM     24  C   UNL     1     -28.315  16.707  -1.395  0.00  0.00    +0.012 C 
BRANCH  24  25
ATOM     25  C   UNL     1     -28.875  15.552  -2.227  0.00  0.00    +0.109 C 
BRANCH  25  27
ATOM     26  O   UNL     1     -27.530  13.887  -1.064  0.00  0.00    -0.250 OA
ATOM     27  C   UNL     1     -28.583  14.210  -1.594  0.00  0.00    +0.314 C 
BRANCH  27  28
ATOM     28  O   UNL     1     -29.652  13.375  -1.689  0.00  0.00    -0.480 OA
ATOM     29  H   UNL     1     -30.499  13.665  -1.413  0.00  0.00    +0.295 HD
ENDBRANCH  27  28
ENDBRANCH  25  27
ENDBRANCH  24  25
ENDBRANCH  22  24
ENDBRANCH   6  22
BRANCH  19  30
ATOM     30  O   UNL     1     -34.933  23.638   3.827  0.00  0.00    -0.203 OA
BRANCH  30  31
ATOM     31  S   UNL     1     -35.904  24.117   5.051  0.00  0.00    +0.239 S 
ATOM     32  O   UNL     1     -37.369  24.254   4.347  0.00  0.00    -0.022 OA
ATOM     33  O   UNL     1     -35.976  23.024   6.003  0.00  0.00    -0.116 OA
ATOM     34  O   UNL     1     -35.494  25.439   5.489  0.00  0.00    -0.116 OA
ENDBRANCH  30  31
ENDBRANCH  19  30
TORSDOF 8
ENDMDL
MODEL 9
REMARK VINA RESULT:      -5.9     10.013     13.175
REMARK  Name = 21252312
REMARK  8 active torsions:
REMARK  status: ('A' for Active; 'I' for Inactive)
REMARK    1  A    between atoms: C_6  and  C_22
REMARK    2  A    between atoms: C_10  and  O_20
REMARK    3  A    between atoms: C_19  and  O_30
REMARK    4  A    between atoms: C_22  and  C_24
REMARK    5  A    between atoms: C_24  and  C_25
REMARK    6  A    between atoms: C_25  and  C_27
REMARK    7  A    between atoms: C_27  and  O_28
REMARK    8  A    between atoms: O_30  and  S_31
REMARK                            x       y       z     vdW  Elec       q    Type
REMARK                         _______ _______ _______ _____ _____    ______ ____
ROOT
ATOM      1  C   UNL     1     -36.966  31.969   0.927  0.00  0.00    +0.002 C 
ATOM      2  C   UNL     1     -36.828  33.475   0.624  0.00  0.00    +0.000 C 
ATOM      3  C   UNL     1     -35.692  31.170   0.614  0.00  0.00    +0.027 C 
ATOM      4  C   UNL     1     -34.519  31.742   1.482  0.00  0.00    +0.002 C 
ATOM      5  C   UNL     1     -33.169  30.974   1.218  0.00  0.00    +0.000 C 
ATOM      6  C   UNL     1     -38.265  33.933   0.978  0.00  0.00    +0.000 C 
ATOM      7  C   UNL     1     -33.386  29.445   1.475  0.00  0.00    +0.005 C 
ATOM      8  C   UNL     1     -35.733  34.034   1.541  0.00  0.00    +0.000 C 
ATOM      9  C   UNL     1     -34.400  33.287   1.353  0.00  0.00    +0.000 C 
ATOM     10  C   UNL     1     -35.881  29.657   0.827  0.00  0.00    +0.110 C 
ATOM     11  C   UNL     1     -38.267  31.580   0.228  0.00  0.00    +0.000 C 
ATOM     12  C   UNL     1     -39.160  32.826   0.376  0.00  0.00    +0.000 C 
ATOM     13  C   UNL     1     -34.573  28.876   0.672  0.00  0.00    +0.029 C 
ATOM     14  C   UNL     1     -32.007  31.473   2.126  0.00  0.00    +0.003 C 
ATOM     15  C   UNL     1     -36.489  33.798  -0.852  0.00  0.00    +0.000 C 
ATOM     16  C   UNL     1     -33.510  29.101   2.974  0.00  0.00    +0.032 C 
ATOM     17  C   UNL     1     -32.682  31.182  -0.242  0.00  0.00    +0.000 C 
ATOM     18  C   UNL     1     -32.180  31.136   3.600  0.00  0.00    +0.032 C 
ATOM     19  C   UNL     1     -32.341  29.635   3.795  0.00  0.00    +0.147 C 
ENDROOT
BRANCH  10  20
ATOM     20  O   UNL     1     -36.456  29.404   2.105  0.00  0.00    -0.384 OA
ATOM     21  H   UNL     1     -36.186  28.524   2.413  0.00  0.00    +0.210 HD
ENDBRANCH  10  20
BRANCH   6  22
ATOM     22  C   UNL     1     -38.667  35.330   0.528  0.00  0.00    +0.001 C 
ATOM     23  C   UNL     1     -38.124  36.375   1.511  0.00  0.00    +0.000 C 
BRANCH  22  24
ATOM     24  C   UNL     1     -40.199  35.419   0.377  0.00  0.00    +0.012 C 
BRANCH  24  25
ATOM     25  C   UNL     1     -40.896  36.101   1.555  0.00  0.00    +0.109 C 
BRANCH  25  27
ATOM     26  O   UNL     1     -41.870  33.972   2.227  0.00  0.00    -0.250 OA
ATOM     27  C   UNL     1     -41.487  35.096   2.518  0.00  0.00    +0.314 C 
BRANCH  27  28
ATOM     28  O   UNL     1     -41.553  35.597   3.780  0.00  0.00    -0.480 OA
ATOM     29  H   UNL     1     -41.091  35.173   4.477  0.00  0.00    +0.295 HD
ENDBRANCH  27  28
ENDBRANCH  25  27
ENDBRANCH  24  25
ENDBRANCH  22  24
ENDBRANCH   6  22
BRANCH  19  30
ATOM     30  O   UNL     1     -32.569  29.379   5.176  0.00  0.00    -0.203 OA
BRANCH  30  31
ATOM     31  S   UNL     1     -31.362  28.777   6.098  0.00  0.00    +0.239 S 
ATOM     32  O   UNL     1     -31.893  27.288   6.501  0.00  0.00    -0.022 OA
ATOM     33  O   UNL     1     -30.202  28.610   5.241  0.00  0.00    -0.116 OA
ATOM     34  O   UNL     1     -31.261  29.560   7.315  0.00  0.00    -0.116 OA
ENDBRANCH  30  31
ENDBRANCH  19  30
TORSDOF 8
ENDMDL
