MODEL 1
REMARK VINA RESULT:      -7.4      0.000      0.000
REMARK  Name = 5489114
REMARK  8 active torsions:
REMARK  status: ('A' for Active; 'I' for Inactive)
REMARK    1  A    between atoms: C_3  and  C_26
REMARK    2  A    between atoms: C_4  and  C_36
REMARK    3  A    between atoms: C_8  and  C_13
REMARK    4  A    between atoms: C_18  and  O_22
REMARK    5  A    between atoms: C_20  and  O_24
REMARK    6  A    between atoms: C_29  and  O_32
REMARK    7  A    between atoms: C_31  and  O_34
REMARK    8  A    between atoms: C_36  and  O_37
REMARK                            x       y       z     vdW  Elec       q    Type
REMARK                         _______ _______ _______ _____ _____    ______ ____
ROOT
ATOM      1  O   UNL     1     -36.073  26.271   1.787  0.00  0.00    -0.468 OA
ATOM      2  O   UNL     1     -34.585  27.990   3.553  0.00  0.00    -0.469 OA
ATOM      3  C   UNL     1     -34.957  25.801   2.564  0.00  0.00    +0.230 C 
ATOM      4  C   UNL     1     -34.849  26.611   3.867  0.00  0.00    +0.239 C 
ATOM      5  C   UNL     1     -35.404  28.469   2.567  0.00  0.00    +0.172 C 
ATOM      6  C   UNL     1     -36.133  27.636   1.719  0.00  0.00    +0.173 C 
ATOM      7  C   UNL     1     -35.481  29.854   2.422  0.00  0.00    +0.043 C 
ATOM      8  C   UNL     1     -36.312  30.406   1.447  0.00  0.00    +0.038 C 
ATOM      9  C   UNL     1     -36.974  28.187   0.752  0.00  0.00    +0.040 C 
ATOM     10  C   UNL     1     -37.063  29.573   0.617  0.00  0.00    +0.006 C 
ENDROOT
BRANCH   8  13
ATOM     11  O   UNL     1     -37.639  32.399   1.635  0.00  0.00    -0.453 OA
ATOM     12  O   UNL     1     -34.573  34.773   0.388  0.00  0.00    -0.286 OA
ATOM     13  C   UNL     1     -36.402  31.872   1.296  0.00  0.00    +0.149 C 
ATOM     14  C   UNL     1     -35.355  32.605   0.885  0.00  0.00    +0.080 C 
ATOM     15  C   UNL     1     -37.823  33.754   1.534  0.00  0.00    +0.154 C 
ATOM     16  C   UNL     1     -36.816  34.623   1.113  0.00  0.00    +0.107 C 
ATOM     17  C   UNL     1     -35.500  34.070   0.761  0.00  0.00    +0.205 C 
ATOM     18  C   UNL     1     -37.059  35.997   1.030  0.00  0.00    +0.143 C 
ATOM     19  C   UNL     1     -39.078  34.254   1.875  0.00  0.00    +0.074 C 
ATOM     20  C   UNL     1     -39.325  35.626   1.793  0.00  0.00    +0.140 C 
ATOM     21  C   UNL     1     -38.318  36.494   1.371  0.00  0.00    +0.073 C 
BRANCH  18  22
ATOM     22  O   UNL     1     -36.110  36.886   0.627  0.00  0.00    -0.505 OA
ATOM     23  H   UNL     1     -36.326  37.793   0.535  0.00  0.00    +0.292 HD
ENDBRANCH  18  22
BRANCH  20  24
ATOM     24  O   UNL     1     -40.551  36.116   2.124  0.00  0.00    -0.505 OA
ATOM     25  H   UNL     1     -40.691  37.041   2.161  0.00  0.00    +0.292 HD
ENDBRANCH  20  24
ENDBRANCH   8  13
BRANCH   3  26
ATOM     26  C   UNL     1     -35.169  24.319   2.782  0.00  0.00    +0.024 C 
ATOM     27  C   UNL     1     -35.563  23.848   4.035  0.00  0.00    +0.039 C 
ATOM     28  C   UNL     1     -34.969  23.424   1.732  0.00  0.00    +0.003 C 
ATOM     29  C   UNL     1     -35.757  22.481   4.236  0.00  0.00    +0.172 C 
ATOM     30  C   UNL     1     -35.163  22.058   1.932  0.00  0.00    +0.040 C 
ATOM     31  C   UNL     1     -35.557  21.587   3.185  0.00  0.00    +0.168 C 
BRANCH  29  32
ATOM     32  O   UNL     1     -36.143  22.033   5.464  0.00  0.00    -0.468 OA
ATOM     33  C   UNL     1     -35.188  22.125   6.517  0.00  0.00    +0.253 C 
ENDBRANCH  29  32
BRANCH  31  34
ATOM     34  O   UNL     1     -35.746  20.250   3.369  0.00  0.00    -0.503 OA
ATOM     35  H   UNL     1     -36.066  19.721   2.665  0.00  0.00    +0.292 HD
ENDBRANCH  31  34
ENDBRANCH   3  26
BRANCH   4  36
ATOM     36  C   UNL     1     -33.702  26.148   4.762  0.00  0.00    +0.185 C 
BRANCH  36  37
ATOM     37  O   UNL     1     -33.935  26.625   6.075  0.00  0.00    -0.378 OA
ATOM     38  H   UNL     1     -34.509  26.002   6.547  0.00  0.00    +0.211 HD
ENDBRANCH  36  37
ENDBRANCH   4  36
TORSDOF 8
ENDMDL
MODEL 2
REMARK VINA RESULT:      -7.4      5.256      7.357
REMARK  Name = 5489114
REMARK  8 active torsions:
REMARK  status: ('A' for Active; 'I' for Inactive)
REMARK    1  A    between atoms: C_3  and  C_26
REMARK    2  A    between atoms: C_4  and  C_36
REMARK    3  A    between atoms: C_8  and  C_13
REMARK    4  A    between atoms: C_18  and  O_22
REMARK    5  A    between atoms: C_20  and  O_24
REMARK    6  A    between atoms: C_29  and  O_32
REMARK    7  A    between atoms: C_31  and  O_34
REMARK    8  A    between atoms: C_36  and  O_37
REMARK                            x       y       z     vdW  Elec       q    Type
REMARK                         _______ _______ _______ _____ _____    ______ ____
ROOT
ATOM      1  O   UNL     1     -35.691  25.030   2.510  0.00  0.00    -0.468 OA
ATOM      2  O   UNL     1     -34.086  24.344   4.798  0.00  0.00    -0.469 OA
ATOM      3  C   UNL     1     -35.586  23.683   3.005  0.00  0.00    +0.230 C 
ATOM      4  C   UNL     1     -35.343  23.702   4.523  0.00  0.00    +0.239 C 
ATOM      5  C   UNL     1     -33.935  25.517   4.112  0.00  0.00    +0.172 C 
ATOM      6  C   UNL     1     -34.720  25.854   3.009  0.00  0.00    +0.173 C 
ATOM      7  C   UNL     1     -32.936  26.387   4.550  0.00  0.00    +0.043 C 
ATOM      8  C   UNL     1     -32.744  27.608   3.903  0.00  0.00    +0.038 C 
ATOM      9  C   UNL     1     -34.537  27.080   2.369  0.00  0.00    +0.040 C 
ATOM     10  C   UNL     1     -33.548  27.956   2.817  0.00  0.00    +0.006 C 
ENDROOT
BRANCH   8  13
ATOM     11  O   UNL     1     -30.828  27.981   5.301  0.00  0.00    -0.453 OA
ATOM     12  O   UNL     1     -30.393  31.813   3.990  0.00  0.00    -0.286 OA
ATOM     13  C   UNL     1     -31.693  28.534   4.369  0.00  0.00    +0.149 C 
ATOM     14  C   UNL     1     -31.594  29.786   3.897  0.00  0.00    +0.080 C 
ATOM     15  C   UNL     1     -29.812  28.760   5.794  0.00  0.00    +0.154 C 
ATOM     16  C   UNL     1     -29.607  30.078   5.389  0.00  0.00    +0.107 C 
ATOM     17  C   UNL     1     -30.516  30.665   4.392  0.00  0.00    +0.205 C 
ATOM     18  C   UNL     1     -28.554  30.825   5.923  0.00  0.00    +0.143 C 
ATOM     19  C   UNL     1     -28.963  28.180   6.735  0.00  0.00    +0.074 C 
ATOM     20  C   UNL     1     -27.910  28.922   7.271  0.00  0.00    +0.140 C 
ATOM     21  C   UNL     1     -27.706  30.242   6.866  0.00  0.00    +0.073 C 
BRANCH  18  22
ATOM     22  O   UNL     1     -28.311  32.114   5.559  0.00  0.00    -0.505 OA
ATOM     23  H   UNL     1     -27.728  32.644   6.067  0.00  0.00    +0.292 HD
ENDBRANCH  18  22
BRANCH  20  24
ATOM     24  O   UNL     1     -27.082  28.358   8.192  0.00  0.00    -0.505 OA
ATOM     25  H   UNL     1     -26.176  28.229   7.991  0.00  0.00    +0.292 HD
ENDBRANCH  20  24
ENDBRANCH   8  13
BRANCH   3  26
ATOM     26  C   UNL     1     -36.856  22.968   2.599  0.00  0.00    +0.024 C 
ATOM     27  C   UNL     1     -38.078  23.641   2.634  0.00  0.00    +0.039 C 
ATOM     28  C   UNL     1     -36.806  21.635   2.191  0.00  0.00    +0.003 C 
ATOM     29  C   UNL     1     -39.249  22.982   2.261  0.00  0.00    +0.172 C 
ATOM     30  C   UNL     1     -37.977  20.975   1.817  0.00  0.00    +0.040 C 
ATOM     31  C   UNL     1     -39.197  21.649   1.852  0.00  0.00    +0.168 C 
BRANCH  29  32
ATOM     32  O   UNL     1     -40.435  23.650   2.298  0.00  0.00    -0.468 OA
ATOM     33  C   UNL     1     -40.387  25.040   2.614  0.00  0.00    +0.253 C 
ENDBRANCH  29  32
BRANCH  31  34
ATOM     34  O   UNL     1     -40.334  20.995   1.483  0.00  0.00    -0.503 OA
ATOM     35  H   UNL     1     -40.473  20.108   1.751  0.00  0.00    +0.292 HD
ENDBRANCH  31  34
ENDBRANCH   3  26
BRANCH   4  36
ATOM     36  C   UNL     1     -35.252  22.303   5.128  0.00  0.00    +0.185 C 
BRANCH  36  37
ATOM     37  O   UNL     1     -36.263  22.171   6.111  0.00  0.00    -0.378 OA
ATOM     38  H   UNL     1     -35.876  22.290   6.992  0.00  0.00    +0.211 HD
ENDBRANCH  36  37
ENDBRANCH   4  36
TORSDOF 8
ENDMDL
MODEL 3
REMARK VINA RESULT:      -7.3      2.568      3.947
REMARK  Name = 5489114
REMARK  8 active torsions:
REMARK  status: ('A' for Active; 'I' for Inactive)
REMARK    1  A    between atoms: C_3  and  C_26
REMARK    2  A    between atoms: C_4  and  C_36
REMARK    3  A    between atoms: C_8  and  C_13
REMARK    4  A    between atoms: C_18  and  O_22
REMARK    5  A    between atoms: C_20  and  O_24
REMARK    6  A    between atoms: C_29  and  O_32
REMARK    7  A    between atoms: C_31  and  O_34
REMARK    8  A    between atoms: C_36  and  O_37
REMARK                            x       y       z     vdW  Elec       q    Type
REMARK                         _______ _______ _______ _____ _____    ______ ____
ROOT
ATOM      1  O   UNL     1     -34.376  26.720   3.946  0.00  0.00    -0.468 OA
ATOM      2  O   UNL     1     -36.472  27.843   2.324  0.00  0.00    -0.469 OA
ATOM      3  C   UNL     1     -35.702  26.164   3.902  0.00  0.00    +0.230 C 
ATOM      4  C   UNL     1     -36.334  26.426   2.524  0.00  0.00    +0.239 C 
ATOM      5  C   UNL     1     -35.335  28.532   2.648  0.00  0.00    +0.172 C 
ATOM      6  C   UNL     1     -34.315  27.983   3.425  0.00  0.00    +0.173 C 
ATOM      7  C   UNL     1     -35.228  29.840   2.176  0.00  0.00    +0.043 C 
ATOM      8  C   UNL     1     -34.084  30.589   2.458  0.00  0.00    +0.038 C 
ATOM      9  C   UNL     1     -33.166  28.727   3.696  0.00  0.00    +0.040 C 
ATOM     10  C   UNL     1     -33.052  30.030   3.212  0.00  0.00    +0.006 C 
ENDROOT
BRANCH   8  13
ATOM     11  O   UNL     1     -33.098  32.766   2.690  0.00  0.00    -0.453 OA
ATOM     12  O   UNL     1     -35.054  34.199  -0.584  0.00  0.00    -0.286 OA
ATOM     13  C   UNL     1     -33.964  31.972   1.954  0.00  0.00    +0.149 C 
ATOM     14  C   UNL     1     -34.630  32.387   0.865  0.00  0.00    +0.080 C 
ATOM     15  C   UNL     1     -32.913  34.068   2.299  0.00  0.00    +0.154 C 
ATOM     16  C   UNL     1     -33.551  34.621   1.190  0.00  0.00    +0.107 C 
ATOM     17  C   UNL     1     -34.463  33.780   0.401  0.00  0.00    +0.205 C 
ATOM     18  C   UNL     1     -33.324  35.954   0.837  0.00  0.00    +0.143 C 
ATOM     19  C   UNL     1     -32.042  34.844   3.062  0.00  0.00    +0.074 C 
ATOM     20  C   UNL     1     -31.812  36.176   2.713  0.00  0.00    +0.140 C 
ATOM     21  C   UNL     1     -32.452  36.729   1.604  0.00  0.00    +0.073 C 
BRANCH  18  22
ATOM     22  O   UNL     1     -33.922  36.540  -0.237  0.00  0.00    -0.505 OA
ATOM     23  H   UNL     1     -33.575  37.336  -0.590  0.00  0.00    +0.292 HD
ENDBRANCH  18  22
BRANCH  20  24
ATOM     24  O   UNL     1     -30.964  36.936   3.458  0.00  0.00    -0.505 OA
ATOM     25  H   UNL     1     -31.061  36.971   4.389  0.00  0.00    +0.292 HD
ENDBRANCH  20  24
ENDBRANCH   8  13
BRANCH   3  26
ATOM     26  C   UNL     1     -35.572  24.696   4.244  0.00  0.00    +0.024 C 
ATOM     27  C   UNL     1     -35.509  23.744   3.226  0.00  0.00    +0.039 C 
ATOM     28  C   UNL     1     -35.517  24.294   5.579  0.00  0.00    +0.003 C 
ATOM     29  C   UNL     1     -35.391  22.391   3.542  0.00  0.00    +0.172 C 
ATOM     30  C   UNL     1     -35.398  22.940   5.896  0.00  0.00    +0.040 C 
ATOM     31  C   UNL     1     -35.335  21.990   4.877  0.00  0.00    +0.168 C 
BRANCH  29  32
ATOM     32  O   UNL     1     -35.329  21.472   2.539  0.00  0.00    -0.468 OA
ATOM     33  C   UNL     1     -36.567  21.035   1.982  0.00  0.00    +0.253 C 
ENDBRANCH  29  32
BRANCH  31  34
ATOM     34  O   UNL     1     -35.217  20.671   5.198  0.00  0.00    -0.503 OA
ATOM     35  H   UNL     1     -35.454  20.014   4.573  0.00  0.00    +0.292 HD
ENDBRANCH  31  34
ENDBRANCH   3  26
BRANCH   4  36
ATOM     36  C   UNL     1     -37.736  25.836   2.391  0.00  0.00    +0.185 C 
BRANCH  36  37
ATOM     37  O   UNL     1     -38.560  26.403   3.393  0.00  0.00    -0.378 OA
ATOM     38  H   UNL     1     -38.659  25.773   4.124  0.00  0.00    +0.211 HD
ENDBRANCH  36  37
ENDBRANCH   4  36
TORSDOF 8
ENDMDL
MODEL 4
REMARK VINA RESULT:      -7.1      2.187      3.503
REMARK  Name = 5489114
REMARK  8 active torsions:
REMARK  status: ('A' for Active; 'I' for Inactive)
REMARK    1  A    between atoms: C_3  and  C_26
REMARK    2  A    between atoms: C_4  and  C_36
REMARK    3  A    between atoms: C_8  and  C_13
REMARK    4  A    between atoms: C_18  and  O_22
REMARK    5  A    between atoms: C_20  and  O_24
REMARK    6  A    between atoms: C_29  and  O_32
REMARK    7  A    between atoms: C_31  and  O_34
REMARK    8  A    between atoms: C_36  and  O_37
REMARK                            x       y       z     vdW  Elec       q    Type
REMARK                         _______ _______ _______ _____ _____    ______ ____
ROOT
ATOM      1  O   UNL     1     -34.055  26.633   4.270  0.00  0.00    -0.468 OA
ATOM      2  O   UNL     1     -35.967  27.907   2.536  0.00  0.00    -0.469 OA
ATOM      3  C   UNL     1     -35.399  26.144   4.108  0.00  0.00    +0.230 C 
ATOM      4  C   UNL     1     -35.912  26.479   2.698  0.00  0.00    +0.239 C 
ATOM      5  C   UNL     1     -34.827  28.528   2.967  0.00  0.00    +0.172 C 
ATOM      6  C   UNL     1     -33.896  27.907   3.798  0.00  0.00    +0.173 C 
ATOM      7  C   UNL     1     -34.624  29.844   2.549  0.00  0.00    +0.043 C 
ATOM      8  C   UNL     1     -33.471  30.526   2.940  0.00  0.00    +0.038 C 
ATOM      9  C   UNL     1     -32.738  28.585   4.179  0.00  0.00    +0.040 C 
ATOM     10  C   UNL     1     -32.527  29.895   3.749  0.00  0.00    +0.006 C 
ENDROOT
BRANCH   8  13
ATOM     11  O   UNL     1     -34.393  32.549   2.031  0.00  0.00    -0.453 OA
ATOM     12  O   UNL     1     -30.796  34.456   2.154  0.00  0.00    -0.286 OA
ATOM     13  C   UNL     1     -33.249  31.916   2.493  0.00  0.00    +0.149 C 
ATOM     14  C   UNL     1     -32.040  32.496   2.563  0.00  0.00    +0.080 C 
ATOM     15  C   UNL     1     -34.293  33.847   1.597  0.00  0.00    +0.154 C 
ATOM     16  C   UNL     1     -33.093  34.557   1.612  0.00  0.00    +0.107 C 
ATOM     17  C   UNL     1     -31.880  33.893   2.111  0.00  0.00    +0.205 C 
ATOM     18  C   UNL     1     -33.049  35.879   1.159  0.00  0.00    +0.143 C 
ATOM     19  C   UNL     1     -35.457  34.455   1.131  0.00  0.00    +0.074 C 
ATOM     20  C   UNL     1     -35.418  35.774   0.679  0.00  0.00    +0.140 C 
ATOM     21  C   UNL     1     -34.217  36.484   0.692  0.00  0.00    +0.073 C 
BRANCH  18  22
ATOM     22  O   UNL     1     -31.904  36.614   1.155  0.00  0.00    -0.505 OA
ATOM     23  H   UNL     1     -31.724  37.207   1.858  0.00  0.00    +0.292 HD
ENDBRANCH  18  22
BRANCH  20  24
ATOM     24  O   UNL     1     -36.554  36.369   0.221  0.00  0.00    -0.505 OA
ATOM     25  H   UNL     1     -37.367  36.231   0.665  0.00  0.00    +0.292 HD
ENDBRANCH  20  24
ENDBRANCH   8  13
BRANCH   3  26
ATOM     26  C   UNL     1     -35.364  24.662   4.410  0.00  0.00    +0.024 C 
ATOM     27  C   UNL     1     -35.389  23.737   3.366  0.00  0.00    +0.039 C 
ATOM     28  C   UNL     1     -35.309  24.220   5.732  0.00  0.00    +0.003 C 
ATOM     29  C   UNL     1     -35.358  22.370   3.644  0.00  0.00    +0.172 C 
ATOM     30  C   UNL     1     -35.277  22.854   6.011  0.00  0.00    +0.040 C 
ATOM     31  C   UNL     1     -35.302  21.930   4.966  0.00  0.00    +0.168 C 
BRANCH  29  32
ATOM     32  O   UNL     1     -35.381  21.477   2.616  0.00  0.00    -0.468 OA
ATOM     33  C   UNL     1     -36.642  21.232   1.998  0.00  0.00    +0.253 C 
ENDBRANCH  29  32
BRANCH  31  34
ATOM     34  O   UNL     1     -35.269  20.597   5.250  0.00  0.00    -0.503 OA
ATOM     35  H   UNL     1     -34.486  20.105   5.100  0.00  0.00    +0.292 HD
ENDBRANCH  31  34
ENDBRANCH   3  26
BRANCH   4  36
ATOM     36  C   UNL     1     -37.325  25.962   2.440  0.00  0.00    +0.185 C 
BRANCH  36  37
ATOM     37  O   UNL     1     -38.183  26.482   3.440  0.00  0.00    -0.378 OA
ATOM     38  H   UNL     1     -38.449  25.769   4.041  0.00  0.00    +0.211 HD
ENDBRANCH  36  37
ENDBRANCH   4  36
TORSDOF 8
ENDMDL
MODEL 5
REMARK VINA RESULT:      -7.1      1.793      2.751
REMARK  Name = 5489114
REMARK  8 active torsions:
REMARK  status: ('A' for Active; 'I' for Inactive)
REMARK    1  A    between atoms: C_3  and  C_26
REMARK    2  A    between atoms: C_4  and  C_36
REMARK    3  A    between atoms: C_8  and  C_13
REMARK    4  A    between atoms: C_18  and  O_22
REMARK    5  A    between atoms: C_20  and  O_24
REMARK    6  A    between atoms: C_29  and  O_32
REMARK    7  A    between atoms: C_31  and  O_34
REMARK    8  A    between atoms: C_36  and  O_37
REMARK                            x       y       z     vdW  Elec       q    Type
REMARK                         _______ _______ _______ _____ _____    ______ ____
ROOT
ATOM      1  O   UNL     1     -34.539  26.817   3.210  0.00  0.00    -0.468 OA
ATOM      2  O   UNL     1     -36.673  28.213   1.872  0.00  0.00    -0.469 OA
ATOM      3  C   UNL     1     -35.879  26.296   3.138  0.00  0.00    +0.230 C 
ATOM      4  C   UNL     1     -36.559  26.779   1.846  0.00  0.00    +0.239 C 
ATOM      5  C   UNL     1     -35.509  28.824   2.250  0.00  0.00    +0.172 C 
ATOM      6  C   UNL     1     -34.471  28.145   2.888  0.00  0.00    +0.173 C 
ATOM      7  C   UNL     1     -35.391  30.188   1.982  0.00  0.00    +0.043 C 
ATOM      8  C   UNL     1     -34.221  30.865   2.325  0.00  0.00    +0.038 C 
ATOM      9  C   UNL     1     -33.296  28.819   3.221  0.00  0.00    +0.040 C 
ATOM     10  C   UNL     1     -33.172  30.180   2.939  0.00  0.00    +0.006 C 
ENDROOT
BRANCH   8  13
ATOM     11  O   UNL     1     -35.206  32.864   1.432  0.00  0.00    -0.453 OA
ATOM     12  O   UNL     1     -31.924  35.102   2.334  0.00  0.00    -0.286 OA
ATOM     13  C   UNL     1     -34.090  32.308   2.036  0.00  0.00    +0.149 C 
ATOM     14  C   UNL     1     -32.984  32.996   2.362  0.00  0.00    +0.080 C 
ATOM     15  C   UNL     1     -35.186  34.202   1.126  0.00  0.00    +0.154 C 
ATOM     16  C   UNL     1     -34.096  35.024   1.407  0.00  0.00    +0.107 C 
ATOM     17  C   UNL     1     -32.914  34.439   2.057  0.00  0.00    +0.205 C 
ATOM     18  C   UNL     1     -34.131  36.381   1.075  0.00  0.00    +0.143 C 
ATOM     19  C   UNL     1     -36.320  34.732   0.513  0.00  0.00    +0.074 C 
ATOM     20  C   UNL     1     -36.359  36.087   0.180  0.00  0.00    +0.140 C 
ATOM     21  C   UNL     1     -35.267  36.909   0.460  0.00  0.00    +0.073 C 
BRANCH  18  22
ATOM     22  O   UNL     1     -33.094  37.225   1.330  0.00  0.00    -0.505 OA
ATOM     23  H   UNL     1     -32.374  37.277   0.732  0.00  0.00    +0.292 HD
ENDBRANCH  18  22
BRANCH  20  24
ATOM     24  O   UNL     1     -37.464  36.606  -0.422  0.00  0.00    -0.505 OA
ATOM     25  H   UNL     1     -37.831  37.411  -0.113  0.00  0.00    +0.292 HD
ENDBRANCH  20  24
ENDBRANCH   8  13
BRANCH   3  26
ATOM     26  C   UNL     1     -35.768  24.791   3.244  0.00  0.00    +0.024 C 
ATOM     27  C   UNL     1     -36.051  24.154   4.452  0.00  0.00    +0.039 C 
ATOM     28  C   UNL     1     -35.381  24.040   2.134  0.00  0.00    +0.003 C 
ATOM     29  C   UNL     1     -35.947  22.767   4.551  0.00  0.00    +0.172 C 
ATOM     30  C   UNL     1     -35.278  22.653   2.231  0.00  0.00    +0.040 C 
ATOM     31  C   UNL     1     -35.561  22.017   3.440  0.00  0.00    +0.168 C 
BRANCH  29  32
ATOM     32  O   UNL     1     -36.227  22.156   5.736  0.00  0.00    -0.468 OA
ATOM     33  C   UNL     1     -35.187  22.125   6.711  0.00  0.00    +0.253 C 
ENDBRANCH  29  32
BRANCH  31  34
ATOM     34  O   UNL     1     -35.458  20.660   3.523  0.00  0.00    -0.503 OA
ATOM     35  H   UNL     1     -35.162  20.261   4.317  0.00  0.00    +0.292 HD
ENDBRANCH  31  34
ENDBRANCH   3  26
BRANCH   4  36
ATOM     36  C   UNL     1     -37.978  26.239   1.683  0.00  0.00    +0.185 C 
BRANCH  36  37
ATOM     37  O   UNL     1     -38.738  26.626   2.814  0.00  0.00    -0.378 OA
ATOM     38  H   UNL     1     -38.251  27.296   3.318  0.00  0.00    +0.211 HD
ENDBRANCH  36  37
ENDBRANCH   4  36
TORSDOF 8
ENDMDL
MODEL 6
REMARK VINA RESULT:      -7.0      1.239      2.373
REMARK  Name = 5489114
REMARK  8 active torsions:
REMARK  status: ('A' for Active; 'I' for Inactive)
REMARK    1  A    between atoms: C_3  and  C_26
REMARK    2  A    between atoms: C_4  and  C_36
REMARK    3  A    between atoms: C_8  and  C_13
REMARK    4  A    between atoms: C_18  and  O_22
REMARK    5  A    between atoms: C_20  and  O_24
REMARK    6  A    between atoms: C_29  and  O_32
REMARK    7  A    between atoms: C_31  and  O_34
REMARK    8  A    between atoms: C_36  and  O_37
REMARK                            x       y       z     vdW  Elec       q    Type
REMARK                         _______ _______ _______ _____ _____    ______ ____
ROOT
ATOM      1  O   UNL     1     -36.014  26.634   1.780  0.00  0.00    -0.468 OA
ATOM      2  O   UNL     1     -34.407  28.354   3.437  0.00  0.00    -0.469 OA
ATOM      3  C   UNL     1     -34.884  26.152   2.528  0.00  0.00    +0.230 C 
ATOM      4  C   UNL     1     -34.701  26.994   3.801  0.00  0.00    +0.239 C 
ATOM      5  C   UNL     1     -35.249  28.831   2.470  0.00  0.00    +0.172 C 
ATOM      6  C   UNL     1     -36.035  27.998   1.674  0.00  0.00    +0.173 C 
ATOM      7  C   UNL     1     -35.289  30.213   2.287  0.00  0.00    +0.043 C 
ATOM      8  C   UNL     1     -36.141  30.763   1.329  0.00  0.00    +0.038 C 
ATOM      9  C   UNL     1     -36.896  28.548   0.724  0.00  0.00    +0.040 C 
ATOM     10  C   UNL     1     -36.948  29.932   0.553  0.00  0.00    +0.006 C 
ENDROOT
BRANCH   8  13
ATOM     11  O   UNL     1     -34.967  32.858   1.295  0.00  0.00    -0.453 OA
ATOM     12  O   UNL     1     -38.339  34.938   0.345  0.00  0.00    -0.286 OA
ATOM     13  C   UNL     1     -36.192  32.227   1.138  0.00  0.00    +0.149 C 
ATOM     14  C   UNL     1     -37.333  32.859   0.820  0.00  0.00    +0.080 C 
ATOM     15  C   UNL     1     -34.908  34.219   1.133  0.00  0.00    +0.154 C 
ATOM     16  C   UNL     1     -36.023  34.991   0.809  0.00  0.00    +0.107 C 
ATOM     17  C   UNL     1     -37.321  34.324   0.632  0.00  0.00    +0.205 C 
ATOM     18  C   UNL     1     -35.903  36.374   0.654  0.00  0.00    +0.143 C 
ATOM     19  C   UNL     1     -33.665  34.827   1.304  0.00  0.00    +0.074 C 
ATOM     20  C   UNL     1     -33.541  36.208   1.150  0.00  0.00    +0.140 C 
ATOM     21  C   UNL     1     -34.658  36.980   0.827  0.00  0.00    +0.073 C 
BRANCH  18  22
ATOM     22  O   UNL     1     -36.961  37.171   0.336  0.00  0.00    -0.505 OA
ATOM     23  H   UNL     1     -37.836  36.857   0.456  0.00  0.00    +0.292 HD
ENDBRANCH  18  22
BRANCH  20  24
ATOM     24  O   UNL     1     -32.329  36.804   1.319  0.00  0.00    -0.505 OA
ATOM     25  H   UNL     1     -31.630  36.621   0.722  0.00  0.00    +0.292 HD
ENDBRANCH  20  24
ENDBRANCH   8  13
BRANCH   3  26
ATOM     26  C   UNL     1     -35.132  24.684   2.797  0.00  0.00    +0.024 C 
ATOM     27  C   UNL     1     -35.603  24.273   4.044  0.00  0.00    +0.039 C 
ATOM     28  C   UNL     1     -34.889  23.741   1.799  0.00  0.00    +0.003 C 
ATOM     29  C   UNL     1     -35.831  22.919   4.293  0.00  0.00    +0.172 C 
ATOM     30  C   UNL     1     -35.116  22.387   2.046  0.00  0.00    +0.040 C 
ATOM     31  C   UNL     1     -35.587  21.977   3.293  0.00  0.00    +0.168 C 
BRANCH  29  32
ATOM     32  O   UNL     1     -36.292  22.531   5.515  0.00  0.00    -0.468 OA
ATOM     33  C   UNL     1     -35.317  22.195   6.499  0.00  0.00    +0.253 C 
ENDBRANCH  29  32
BRANCH  31  34
ATOM     34  O   UNL     1     -35.808  20.653   3.524  0.00  0.00    -0.503 OA
ATOM     35  H   UNL     1     -36.465  20.387   4.136  0.00  0.00    +0.292 HD
ENDBRANCH  31  34
ENDBRANCH   3  26
BRANCH   4  36
ATOM     36  C   UNL     1     -33.534  26.521   4.665  0.00  0.00    +0.185 C 
BRANCH  36  37
ATOM     37  O   UNL     1     -33.901  26.651   6.027  0.00  0.00    -0.378 OA
ATOM     38  H   UNL     1     -34.725  26.165   6.187  0.00  0.00    +0.211 HD
ENDBRANCH  36  37
ENDBRANCH   4  36
TORSDOF 8
ENDMDL
MODEL 7
REMARK VINA RESULT:      -7.0      6.253      7.345
REMARK  Name = 5489114
REMARK  8 active torsions:
REMARK  status: ('A' for Active; 'I' for Inactive)
REMARK    1  A    between atoms: C_3  and  C_26
REMARK    2  A    between atoms: C_4  and  C_36
REMARK    3  A    between atoms: C_8  and  C_13
REMARK    4  A    between atoms: C_18  and  O_22
REMARK    5  A    between atoms: C_20  and  O_24
REMARK    6  A    between atoms: C_29  and  O_32
REMARK    7  A    between atoms: C_31  and  O_34
REMARK    8  A    between atoms: C_36  and  O_37
REMARK                            x       y       z     vdW  Elec       q    Type
REMARK                         _______ _______ _______ _____ _____    ______ ____
ROOT
ATOM      1  O   UNL     1     -37.257  22.718   1.016  0.00  0.00    -0.468 OA
ATOM      2  O   UNL     1     -37.563  23.812   3.661  0.00  0.00    -0.469 OA
ATOM      3  C   UNL     1     -36.156  22.839   1.936  0.00  0.00    +0.230 C 
ATOM      4  C   UNL     1     -36.667  22.722   3.381  0.00  0.00    +0.239 C 
ATOM      5  C   UNL     1     -38.486  24.000   2.670  0.00  0.00    +0.172 C 
ATOM      6  C   UNL     1     -38.342  23.461   1.392  0.00  0.00    +0.173 C 
ATOM      7  C   UNL     1     -39.601  24.779   2.978  0.00  0.00    +0.043 C 
ATOM      8  C   UNL     1     -40.588  24.993   2.016  0.00  0.00    +0.038 C 
ATOM      9  C   UNL     1     -39.335  23.664   0.432  0.00  0.00    +0.040 C 
ATOM     10  C   UNL     1     -40.458  24.431   0.745  0.00  0.00    +0.006 C 
ENDROOT
BRANCH   8  13
ATOM     11  O   UNL     1     -41.538  26.786   3.298  0.00  0.00    -0.453 OA
ATOM     12  O   UNL     1     -45.195  26.330   1.563  0.00  0.00    -0.286 OA
ATOM     13  C   UNL     1     -41.773  25.811   2.341  0.00  0.00    +0.149 C 
ATOM     14  C   UNL     1     -42.954  25.619   1.732  0.00  0.00    +0.080 C 
ATOM     15  C   UNL     1     -42.577  27.604   3.667  0.00  0.00    +0.154 C 
ATOM     16  C   UNL     1     -43.852  27.501   3.114  0.00  0.00    +0.107 C 
ATOM     17  C   UNL     1     -44.103  26.475   2.091  0.00  0.00    +0.205 C 
ATOM     18  C   UNL     1     -44.872  28.363   3.527  0.00  0.00    +0.143 C 
ATOM     19  C   UNL     1     -42.313  28.570   4.637  0.00  0.00    +0.074 C 
ATOM     20  C   UNL     1     -43.329  29.432   5.052  0.00  0.00    +0.140 C 
ATOM     21  C   UNL     1     -44.605  29.328   4.498  0.00  0.00    +0.073 C 
BRANCH  18  22
ATOM     22  O   UNL     1     -46.133  28.303   3.016  0.00  0.00    -0.505 OA
ATOM     23  H   UNL     1     -46.435  28.973   2.435  0.00  0.00    +0.292 HD
ENDBRANCH  18  22
BRANCH  20  24
ATOM     24  O   UNL     1     -43.074  30.375   6.000  0.00  0.00    -0.505 OA
ATOM     25  H   UNL     1     -43.196  31.283   5.803  0.00  0.00    +0.292 HD
ENDBRANCH  20  24
ENDBRANCH   8  13
BRANCH   3  26
ATOM     26  C   UNL     1     -35.151  21.775   1.555  0.00  0.00    +0.024 C 
ATOM     27  C   UNL     1     -34.098  22.085   0.694  0.00  0.00    +0.039 C 
ATOM     28  C   UNL     1     -35.277  20.482   2.064  0.00  0.00    +0.003 C 
ATOM     29  C   UNL     1     -33.172  21.103   0.342  0.00  0.00    +0.172 C 
ATOM     30  C   UNL     1     -34.351  19.500   1.713  0.00  0.00    +0.040 C 
ATOM     31  C   UNL     1     -33.299  19.811   0.852  0.00  0.00    +0.168 C 
BRANCH  29  32
ATOM     32  O   UNL     1     -32.148  21.420  -0.499  0.00  0.00    -0.468 OA
ATOM     33  C   UNL     1     -32.400  21.311  -1.898  0.00  0.00    +0.253 C 
ENDBRANCH  29  32
BRANCH  31  34
ATOM     34  O   UNL     1     -32.399  18.845   0.517  0.00  0.00    -0.503 OA
ATOM     35  H   UNL     1     -32.363  18.047   1.008  0.00  0.00    +0.292 HD
ENDBRANCH  31  34
ENDBRANCH   3  26
BRANCH   4  36
ATOM     36  C   UNL     1     -35.548  22.810   4.416  0.00  0.00    +0.185 C 
BRANCH  36  37
ATOM     37  O   UNL     1     -35.962  22.125   5.585  0.00  0.00    -0.378 OA
ATOM     38  H   UNL     1     -36.919  21.974   5.549  0.00  0.00    +0.211 HD
ENDBRANCH  36  37
ENDBRANCH   4  36
TORSDOF 8
ENDMDL
MODEL 8
REMARK VINA RESULT:      -6.9      6.496     14.767
REMARK  Name = 5489114
REMARK  8 active torsions:
REMARK  status: ('A' for Active; 'I' for Inactive)
REMARK    1  A    between atoms: C_3  and  C_26
REMARK    2  A    between atoms: C_4  and  C_36
REMARK    3  A    between atoms: C_8  and  C_13
REMARK    4  A    between atoms: C_18  and  O_22
REMARK    5  A    between atoms: C_20  and  O_24
REMARK    6  A    between atoms: C_29  and  O_32
REMARK    7  A    between atoms: C_31  and  O_34
REMARK    8  A    between atoms: C_36  and  O_37
REMARK                            x       y       z     vdW  Elec       q    Type
REMARK                         _______ _______ _______ _____ _____    ______ ____
ROOT
ATOM      1  O   UNL     1     -34.671  20.883   1.822  0.00  0.00    -0.468 OA
ATOM      2  O   UNL     1     -36.772  19.426   0.499  0.00  0.00    -0.469 OA
ATOM      3  C   UNL     1     -35.898  21.506   1.402  0.00  0.00    +0.230 C 
ATOM      4  C   UNL     1     -37.044  20.481   1.438  0.00  0.00    +0.239 C 
ATOM      5  C   UNL     1     -35.491  18.957   0.595  0.00  0.00    +0.172 C 
ATOM      6  C   UNL     1     -34.476  19.658   1.245  0.00  0.00    +0.173 C 
ATOM      7  C   UNL     1     -35.217  17.727  -0.005  0.00  0.00    +0.043 C 
ATOM      8  C   UNL     1     -33.934  17.186   0.073  0.00  0.00    +0.038 C 
ATOM      9  C   UNL     1     -33.195  19.111   1.335  0.00  0.00    +0.040 C 
ATOM     10  C   UNL     1     -32.925  17.874   0.748  0.00  0.00    +0.006 C 
ENDROOT
BRANCH   8  13
ATOM     11  O   UNL     1     -34.773  15.175  -0.935  0.00  0.00    -0.453 OA
ATOM     12  O   UNL     1     -31.024  13.717  -1.578  0.00  0.00    -0.286 OA
ATOM     13  C   UNL     1     -33.643  15.881  -0.554  0.00  0.00    +0.149 C 
ATOM     14  C   UNL     1     -32.385  15.454  -0.746  0.00  0.00    +0.080 C 
ATOM     15  C   UNL     1     -34.609  13.951  -1.533  0.00  0.00    +0.154 C 
ATOM     16  C   UNL     1     -33.355  13.394  -1.782  0.00  0.00    +0.107 C 
ATOM     17  C   UNL     1     -32.154  14.144  -1.388  0.00  0.00    +0.205 C 
ATOM     18  C   UNL     1     -33.248  12.143  -2.396  0.00  0.00    +0.143 C 
ATOM     19  C   UNL     1     -35.764  13.261  -1.899  0.00  0.00    +0.074 C 
ATOM     20  C   UNL     1     -35.660  12.012  -2.512  0.00  0.00    +0.140 C 
ATOM     21  C   UNL     1     -34.406  11.454  -2.760  0.00  0.00    +0.073 C 
BRANCH  18  22
ATOM     22  O   UNL     1     -32.047  11.558  -2.661  0.00  0.00    -0.505 OA
ATOM     23  H   UNL     1     -32.016  10.730  -3.099  0.00  0.00    +0.292 HD
ENDBRANCH  18  22
BRANCH  20  24
ATOM     24  O   UNL     1     -36.787  11.335  -2.868  0.00  0.00    -0.505 OA
ATOM     25  H   UNL     1     -37.358  11.686  -3.523  0.00  0.00    +0.292 HD
ENDBRANCH  20  24
ENDBRANCH   8  13
BRANCH   3  26
ATOM     26  C   UNL     1     -36.116  22.697   2.308  0.00  0.00    +0.024 C 
ATOM     27  C   UNL     1     -35.931  22.570   3.685  0.00  0.00    +0.039 C 
ATOM     28  C   UNL     1     -36.503  23.923   1.767  0.00  0.00    +0.003 C 
ATOM     29  C   UNL     1     -36.133  23.668   4.521  0.00  0.00    +0.172 C 
ATOM     30  C   UNL     1     -36.705  25.022   2.602  0.00  0.00    +0.040 C 
ATOM     31  C   UNL     1     -36.520  24.894   3.979  0.00  0.00    +0.168 C 
BRANCH  29  32
ATOM     32  O   UNL     1     -35.948  23.531   5.864  0.00  0.00    -0.468 OA
ATOM     33  C   UNL     1     -35.444  22.279   6.324  0.00  0.00    +0.253 C 
ENDBRANCH  29  32
BRANCH  31  34
ATOM     34  O   UNL     1     -36.718  25.974   4.785  0.00  0.00    -0.503 OA
ATOM     35  H   UNL     1     -36.161  26.116   5.525  0.00  0.00    +0.292 HD
ENDBRANCH  31  34
ENDBRANCH   3  26
BRANCH   4  36
ATOM     36  C   UNL     1     -38.389  21.079   1.033  0.00  0.00    +0.185 C 
BRANCH  36  37
ATOM     37  O   UNL     1     -39.244  21.070   2.162  0.00  0.00    -0.378 OA
ATOM     38  H   UNL     1     -40.119  20.742   1.903  0.00  0.00    +0.211 HD
ENDBRANCH  36  37
ENDBRANCH   4  36
TORSDOF 8
ENDMDL
MODEL 9
REMARK VINA RESULT:      -6.9      5.546     11.672
REMARK  Name = 5489114
REMARK  8 active torsions:
REMARK  status: ('A' for Active; 'I' for Inactive)
REMARK    1  A    between atoms: C_3  and  C_26
REMARK    2  A    between atoms: C_4  and  C_36
REMARK    3  A    between atoms: C_8  and  C_13
REMARK    4  A    between atoms: C_18  and  O_22
REMARK    5  A    between atoms: C_20  and  O_24
REMARK    6  A    between atoms: C_29  and  O_32
REMARK    7  A    between atoms: C_31  and  O_34
REMARK    8  A    between atoms: C_36  and  O_37
REMARK                            x       y       z     vdW  Elec       q    Type
REMARK                         _______ _______ _______ _____ _____    ______ ____
ROOT
ATOM      1  O   UNL     1     -43.683  29.075   2.301  0.00  0.00    -0.468 OA
ATOM      2  O   UNL     1     -42.717  28.159   4.853  0.00  0.00    -0.469 OA
ATOM      3  C   UNL     1     -44.380  29.338   3.531  0.00  0.00    +0.230 C 
ATOM      4  C   UNL     1     -43.376  29.427   4.693  0.00  0.00    +0.239 C 
ATOM      5  C   UNL     1     -42.277  27.643   3.665  0.00  0.00    +0.172 C 
ATOM      6  C   UNL     1     -42.737  28.094   2.429  0.00  0.00    +0.173 C 
ATOM      7  C   UNL     1     -41.337  26.614   3.728  0.00  0.00    +0.043 C 
ATOM      8  C   UNL     1     -40.835  26.058   2.551  0.00  0.00    +0.038 C 
ATOM      9  C   UNL     1     -42.227  27.547   1.251  0.00  0.00    +0.040 C 
ATOM     10  C   UNL     1     -41.275  26.528   1.313  0.00  0.00    +0.006 C 
ENDROOT
BRANCH   8  13
ATOM     11  O   UNL     1     -38.673  25.317   3.288  0.00  0.00    -0.453 OA
ATOM     12  O   UNL     1     -39.204  21.604   1.699  0.00  0.00    -0.286 OA
ATOM     13  C   UNL     1     -39.835  24.973   2.614  0.00  0.00    +0.149 C 
ATOM     14  C   UNL     1     -40.067  23.766   2.076  0.00  0.00    +0.080 C 
ATOM     15  C   UNL     1     -37.682  24.376   3.406  0.00  0.00    +0.154 C 
ATOM     16  C   UNL     1     -37.799  23.088   2.885  0.00  0.00    +0.107 C 
ATOM     17  C   UNL     1     -39.034  22.716   2.178  0.00  0.00    +0.205 C 
ATOM     18  C   UNL     1     -36.757  22.168   3.036  0.00  0.00    +0.143 C 
ATOM     19  C   UNL     1     -36.523  24.752   4.082  0.00  0.00    +0.074 C 
ATOM     20  C   UNL     1     -35.481  23.837   4.235  0.00  0.00    +0.140 C 
ATOM     21  C   UNL     1     -35.598  22.548   3.713  0.00  0.00    +0.073 C 
BRANCH  18  22
ATOM     22  O   UNL     1     -36.824  20.899   2.548  0.00  0.00    -0.505 OA
ATOM     23  H   UNL     1     -36.058  20.493   2.192  0.00  0.00    +0.292 HD
ENDBRANCH  18  22
BRANCH  20  24
ATOM     24  O   UNL     1     -34.347  24.203   4.893  0.00  0.00    -0.505 OA
ATOM     25  H   UNL     1     -34.007  25.071   4.794  0.00  0.00    +0.292 HD
ENDBRANCH  20  24
ENDBRANCH   8  13
BRANCH   3  26
ATOM     26  C   UNL     1     -45.180  30.604   3.317  0.00  0.00    +0.024 C 
ATOM     27  C   UNL     1     -44.559  31.745   2.811  0.00  0.00    +0.039 C 
ATOM     28  C   UNL     1     -46.540  30.630   3.629  0.00  0.00    +0.003 C 
ATOM     29  C   UNL     1     -45.296  32.913   2.615  0.00  0.00    +0.172 C 
ATOM     30  C   UNL     1     -47.278  31.797   3.433  0.00  0.00    +0.040 C 
ATOM     31  C   UNL     1     -46.656  32.938   2.926  0.00  0.00    +0.168 C 
BRANCH  29  32
ATOM     32  O   UNL     1     -44.678  34.020   2.118  0.00  0.00    -0.468 OA
ATOM     33  C   UNL     1     -43.404  33.832   1.505  0.00  0.00    +0.253 C 
ENDBRANCH  29  32
BRANCH  31  34
ATOM     34  O   UNL     1     -47.387  34.072   2.737  0.00  0.00    -0.503 OA
ATOM     35  H   UNL     1     -48.058  34.305   3.349  0.00  0.00    +0.292 HD
ENDBRANCH  31  34
ENDBRANCH   3  26
BRANCH   4  36
ATOM     36  C   UNL     1     -44.042  29.736   6.032  0.00  0.00    +0.185 C 
BRANCH  36  37
ATOM     37  O   UNL     1     -43.204  30.619   6.757  0.00  0.00    -0.378 OA
ATOM     38  H   UNL     1     -42.846  30.160   7.532  0.00  0.00    +0.211 HD
ENDBRANCH  36  37
ENDBRANCH   4  36
TORSDOF 8
ENDMDL
