MODEL 1
REMARK VINA RESULT:      -6.2      0.000      0.000
REMARK  Name = 194772
REMARK  10 active torsions:
REMARK  status: ('A' for Active; 'I' for Inactive)
REMARK    1  A    between atoms: N_1  and  S_10
REMARK    2  A    between atoms: C_3  and  C_28
REMARK    3  A    between atoms: S_10  and  C_13
REMARK    4  A    between atoms: C_14  and  C_19
REMARK    5  A    between atoms: C_15  and  C_22
REMARK    6  A    between atoms: C_16  and  C_25
REMARK    7  A    between atoms: C_28  and  CA_29
REMARK    8  A    between atoms: CA_29  and  N_30
REMARK    9  A    between atoms: CA_29  and  C_35
REMARK   10  A    between atoms: C_35  and  O_36
REMARK                            x       y       z     vdW  Elec       q    Type
REMARK                         _______ _______ _______ _____ _____    ______ ____
ROOT
ATOM      1  N   UNL     1     -34.536  21.052   1.401  0.00  0.00    -0.168 N 
ATOM      2  C   UNL     1     -33.531  20.160   1.097  0.00  0.00    +0.073 C 
ATOM      3  C   UNL     1     -33.198  22.101  -0.028  0.00  0.00    -0.006 C 
ATOM      4  C   UNL     1     -32.675  20.797   0.197  0.00  0.00    +0.013 C 
ATOM      5  C   UNL     1     -34.342  22.228   0.726  0.00  0.00    +0.085 C 
ATOM      6  C   UNL     1     -33.319  18.852   1.545  0.00  0.00    +0.017 C 
ATOM      7  C   UNL     1     -31.550  20.095  -0.280  0.00  0.00    +0.001 C 
ATOM      8  C   UNL     1     -32.197  18.175   1.059  0.00  0.00    +0.001 C 
ATOM      9  C   UNL     1     -31.325  18.786   0.160  0.00  0.00    +0.000 C 
ENDROOT
BRANCH   1  10
ATOM     10  S   UNL     1     -35.812  20.770   2.434  0.00  0.00    +0.080 S 
ATOM     11  O   UNL     1     -35.208  20.537   3.745  0.00  0.00    -0.149 OA
ATOM     12  O   UNL     1     -36.687  19.766   1.825  0.00  0.00    -0.149 OA
BRANCH  10  13
ATOM     13  C   UNL     1     -36.759  22.268   2.513  0.00  0.00    +0.118 C 
ATOM     14  C   UNL     1     -36.419  23.238   3.440  0.00  0.00    -0.004 C 
ATOM     15  C   UNL     1     -37.825  22.442   1.644  0.00  0.00    -0.004 C 
ATOM     16  C   UNL     1     -38.240  24.606   2.634  0.00  0.00    -0.023 C 
ATOM     17  C   UNL     1     -37.165  24.416   3.501  0.00  0.00    -0.007 C 
ATOM     18  C   UNL     1     -38.570  23.619   1.705  0.00  0.00    -0.007 C 
BRANCH  14  19
ATOM     19  C   UNL     1     -35.274  23.069   4.385  0.00  0.00    +0.024 C 
ATOM     20  C   UNL     1     -34.284  24.247   4.323  0.00  0.00    +0.005 C 
ATOM     21  C   UNL     1     -35.739  22.851   5.836  0.00  0.00    +0.005 C 
ENDBRANCH  14  19
BRANCH  15  22
ATOM     22  C   UNL     1     -38.208  21.406   0.637  0.00  0.00    +0.024 C 
ATOM     23  C   UNL     1     -39.725  21.148   0.610  0.00  0.00    +0.005 C 
ATOM     24  C   UNL     1     -37.709  21.752  -0.777  0.00  0.00    +0.005 C 
ENDBRANCH  15  22
BRANCH  16  25
ATOM     25  C   UNL     1     -39.037  25.865   2.699  0.00  0.00    +0.022 C 
ATOM     26  C   UNL     1     -40.472  25.628   3.205  0.00  0.00    +0.005 C 
ATOM     27  C   UNL     1     -39.075  26.609   1.351  0.00  0.00    +0.005 C 
ENDBRANCH  16  25
ENDBRANCH  10  13
ENDBRANCH   1  10
BRANCH   3  28
ATOM     28  C   UNL     1     -32.625  23.138  -0.908  0.00  0.00    +0.017 C 
BRANCH  28  29
ATOM     29  CA  UNL     1     -33.102  24.575  -0.596  0.00  0.00    +0.040 C 
BRANCH  29  30
ATOM     30  N   UNL     1     -33.020  25.412  -1.796  0.00  0.00    +0.389 N 
ATOM     31  H1  UNL     1     -33.597  26.243  -1.671  0.00  0.00    -0.088 HD
ATOM     32  H2  UNL     1     -33.355  24.884  -2.602  0.00  0.00    -0.088 HD
ATOM     33  H3  UNL     1     -32.050  25.691  -1.950  0.00  0.00    -0.088 HD
ENDBRANCH  29  30
BRANCH  29  35
ATOM     34  OXT UNL     1     -32.608  25.699   1.511  0.00  0.00    -0.253 OA
ATOM     35  C   UNL     1     -32.217  25.227   0.452  0.00  0.00    +0.293 C 
BRANCH  35  36
ATOM     36  O   UNL     1     -30.904  25.210   0.100  0.00  0.00    -0.482 OA
ATOM     37  H   UNL     1     -30.561  24.489  -0.392  0.00  0.00    +0.295 HD
ENDBRANCH  35  36
ENDBRANCH  29  35
ENDBRANCH  28  29
ENDBRANCH   3  28
TORSDOF 10
ENDMDL
MODEL 2
REMARK VINA RESULT:      -6.2      0.026      2.902
REMARK  Name = 194772
REMARK  10 active torsions:
REMARK  status: ('A' for Active; 'I' for Inactive)
REMARK    1  A    between atoms: N_1  and  S_10
REMARK    2  A    between atoms: C_3  and  C_28
REMARK    3  A    between atoms: S_10  and  C_13
REMARK    4  A    between atoms: C_14  and  C_19
REMARK    5  A    between atoms: C_15  and  C_22
REMARK    6  A    between atoms: C_16  and  C_25
REMARK    7  A    between atoms: C_28  and  CA_29
REMARK    8  A    between atoms: CA_29  and  N_30
REMARK    9  A    between atoms: CA_29  and  C_35
REMARK   10  A    between atoms: C_35  and  O_36
REMARK                            x       y       z     vdW  Elec       q    Type
REMARK                         _______ _______ _______ _____ _____    ______ ____
ROOT
ATOM      1  N   UNL     1     -34.541  21.051   1.388  0.00  0.00    -0.168 N 
ATOM      2  C   UNL     1     -33.535  20.158   1.089  0.00  0.00    +0.073 C 
ATOM      3  C   UNL     1     -33.205  22.094  -0.046  0.00  0.00    -0.006 C 
ATOM      4  C   UNL     1     -32.679  20.793   0.186  0.00  0.00    +0.013 C 
ATOM      5  C   UNL     1     -34.349  22.223   0.707  0.00  0.00    +0.085 C 
ATOM      6  C   UNL     1     -33.320  18.853   1.543  0.00  0.00    +0.017 C 
ATOM      7  C   UNL     1     -31.553  20.090  -0.288  0.00  0.00    +0.001 C 
ATOM      8  C   UNL     1     -32.197  18.176   1.061  0.00  0.00    +0.001 C 
ATOM      9  C   UNL     1     -31.325  18.783   0.158  0.00  0.00    +0.000 C 
ENDROOT
BRANCH   1  10
ATOM     10  S   UNL     1     -35.816  20.771   2.422  0.00  0.00    +0.080 S 
ATOM     11  O   UNL     1     -35.213  20.544   3.734  0.00  0.00    -0.149 OA
ATOM     12  O   UNL     1     -36.691  19.764   1.816  0.00  0.00    -0.149 OA
BRANCH  10  13
ATOM     13  C   UNL     1     -36.765  22.268   2.495  0.00  0.00    +0.118 C 
ATOM     14  C   UNL     1     -37.830  22.440   1.626  0.00  0.00    -0.004 C 
ATOM     15  C   UNL     1     -36.425  23.242   3.420  0.00  0.00    -0.004 C 
ATOM     16  C   UNL     1     -38.247  24.607   2.609  0.00  0.00    -0.023 C 
ATOM     17  C   UNL     1     -38.576  23.617   1.683  0.00  0.00    -0.007 C 
ATOM     18  C   UNL     1     -37.171  24.419   3.478  0.00  0.00    -0.007 C 
BRANCH  14  19
ATOM     19  C   UNL     1     -38.212  21.402   0.621  0.00  0.00    +0.024 C 
ATOM     20  C   UNL     1     -39.730  21.143   0.594  0.00  0.00    +0.005 C 
ATOM     21  C   UNL     1     -37.712  21.744  -0.794  0.00  0.00    +0.005 C 
ENDBRANCH  14  19
BRANCH  15  22
ATOM     22  C   UNL     1     -35.280  23.077   4.366  0.00  0.00    +0.024 C 
ATOM     23  C   UNL     1     -34.281  24.245   4.287  0.00  0.00    +0.005 C 
ATOM     24  C   UNL     1     -35.745  22.880   5.819  0.00  0.00    +0.005 C 
ENDBRANCH  15  22
BRANCH  16  25
ATOM     25  C   UNL     1     -39.044  25.866   2.671  0.00  0.00    +0.022 C 
ATOM     26  C   UNL     1     -40.477  25.630   3.187  0.00  0.00    +0.005 C 
ATOM     27  C   UNL     1     -39.091  26.601   1.319  0.00  0.00    +0.005 C 
ENDBRANCH  16  25
ENDBRANCH  10  13
ENDBRANCH   1  10
BRANCH   3  28
ATOM     28  C   UNL     1     -32.633  23.128  -0.931  0.00  0.00    +0.017 C 
BRANCH  28  29
ATOM     29  CA  UNL     1     -33.102  24.567  -0.618  0.00  0.00    +0.040 C 
BRANCH  29  30
ATOM     30  N   UNL     1     -33.038  25.398  -1.823  0.00  0.00    +0.389 N 
ATOM     31  H1  UNL     1     -33.131  26.381  -1.564  0.00  0.00    -0.088 HD
ATOM     32  H2  UNL     1     -33.797  25.141  -2.454  0.00  0.00    -0.088 HD
ATOM     33  H3  UNL     1     -32.142  25.253  -2.289  0.00  0.00    -0.088 HD
ENDBRANCH  29  30
BRANCH  29  35
ATOM     34  OXT UNL     1     -32.571  25.697   1.477  0.00  0.00    -0.253 OA
ATOM     35  C   UNL     1     -32.198  25.222   0.412  0.00  0.00    +0.293 C 
BRANCH  35  36
ATOM     36  O   UNL     1     -30.892  25.204   0.036  0.00  0.00    -0.482 OA
ATOM     37  H   UNL     1     -30.280  25.786   0.442  0.00  0.00    +0.295 HD
ENDBRANCH  35  36
ENDBRANCH  29  35
ENDBRANCH  28  29
ENDBRANCH   3  28
TORSDOF 10
ENDMDL
MODEL 3
REMARK VINA RESULT:      -6.1      2.508      6.367
REMARK  Name = 194772
REMARK  10 active torsions:
REMARK  status: ('A' for Active; 'I' for Inactive)
REMARK    1  A    between atoms: N_1  and  S_10
REMARK    2  A    between atoms: C_3  and  C_28
REMARK    3  A    between atoms: S_10  and  C_13
REMARK    4  A    between atoms: C_14  and  C_19
REMARK    5  A    between atoms: C_15  and  C_22
REMARK    6  A    between atoms: C_16  and  C_25
REMARK    7  A    between atoms: C_28  and  CA_29
REMARK    8  A    between atoms: CA_29  and  N_30
REMARK    9  A    between atoms: CA_29  and  C_35
REMARK   10  A    between atoms: C_35  and  O_36
REMARK                            x       y       z     vdW  Elec       q    Type
REMARK                         _______ _______ _______ _____ _____    ______ ____
ROOT
ATOM      1  N   UNL     1     -37.294  21.981   1.846  0.00  0.00    -0.168 N 
ATOM      2  C   UNL     1     -37.818  21.862   0.578  0.00  0.00    +0.073 C 
ATOM      3  C   UNL     1     -39.116  23.249   1.816  0.00  0.00    -0.006 C 
ATOM      4  C   UNL     1     -38.968  22.652   0.533  0.00  0.00    +0.013 C 
ATOM      5  C   UNL     1     -38.072  22.818   2.601  0.00  0.00    +0.085 C 
ATOM      6  C   UNL     1     -37.366  21.123  -0.521  0.00  0.00    +0.017 C 
ATOM      7  C   UNL     1     -39.705  22.709  -0.667  0.00  0.00    +0.001 C 
ATOM      8  C   UNL     1     -38.113  21.195  -1.700  0.00  0.00    +0.001 C 
ATOM      9  C   UNL     1     -39.265  21.975  -1.774  0.00  0.00    +0.000 C 
ENDROOT
BRANCH   1  10
ATOM     10  S   UNL     1     -35.918  21.229   2.407  0.00  0.00    +0.080 S 
ATOM     11  O   UNL     1     -36.187  19.795   2.305  0.00  0.00    -0.149 OA
ATOM     12  O   UNL     1     -35.552  21.831   3.691  0.00  0.00    -0.149 OA
BRANCH  10  13
ATOM     13  C   UNL     1     -34.607  21.634   1.282  0.00  0.00    +0.118 C 
ATOM     14  C   UNL     1     -34.337  22.963   1.005  0.00  0.00    -0.004 C 
ATOM     15  C   UNL     1     -33.875  20.612   0.698  0.00  0.00    -0.004 C 
ATOM     16  C   UNL     1     -32.561  22.265  -0.475  0.00  0.00    -0.023 C 
ATOM     17  C   UNL     1     -33.306  23.281   0.120  0.00  0.00    -0.007 C 
ATOM     18  C   UNL     1     -32.844  20.930  -0.186  0.00  0.00    -0.007 C 
BRANCH  14  19
ATOM     19  C   UNL     1     -35.115  24.079   1.625  0.00  0.00    +0.024 C 
ATOM     20  C   UNL     1     -34.262  24.924   2.589  0.00  0.00    +0.005 C 
ATOM     21  C   UNL     1     -35.774  24.989   0.572  0.00  0.00    +0.005 C 
ENDBRANCH  14  19
BRANCH  15  22
ATOM     22  C   UNL     1     -34.151  19.171   0.983  0.00  0.00    +0.024 C 
ATOM     23  C   UNL     1     -34.741  18.436  -0.233  0.00  0.00    +0.005 C 
ATOM     24  C   UNL     1     -32.905  18.426   1.494  0.00  0.00    +0.005 C 
ENDBRANCH  15  22
BRANCH  16  25
ATOM     25  C   UNL     1     -31.458  22.605  -1.421  0.00  0.00    +0.022 C 
ATOM     26  C   UNL     1     -30.221  21.706  -1.230  0.00  0.00    +0.005 C 
ATOM     27  C   UNL     1     -31.046  24.086  -1.337  0.00  0.00    +0.005 C 
ENDBRANCH  16  25
ENDBRANCH  10  13
ENDBRANCH   1  10
BRANCH   3  28
ATOM     28  C   UNL     1     -40.192  24.168   2.239  0.00  0.00    +0.017 C 
BRANCH  28  29
ATOM     29  CA  UNL     1     -39.780  25.166   3.346  0.00  0.00    +0.040 C 
BRANCH  29  30
ATOM     30  N   UNL     1     -40.924  25.993   3.738  0.00  0.00    +0.389 N 
ATOM     31  H1  UNL     1     -41.137  26.654   2.991  0.00  0.00    -0.088 HD
ATOM     32  H2  UNL     1     -40.696  26.506   4.590  0.00  0.00    -0.088 HD
ATOM     33  H3  UNL     1     -41.734  25.396   3.906  0.00  0.00    -0.088 HD
ENDBRANCH  29  30
BRANCH  29  35
ATOM     34  OXT UNL     1     -38.757  26.762   1.812  0.00  0.00    -0.253 OA
ATOM     35  C   UNL     1     -38.703  26.116   2.850  0.00  0.00    +0.293 C 
BRANCH  35  36
ATOM     36  O   UNL     1     -37.655  26.200   3.711  0.00  0.00    -0.482 OA
ATOM     37  H   UNL     1     -37.418  27.029   4.080  0.00  0.00    +0.295 HD
ENDBRANCH  35  36
ENDBRANCH  29  35
ENDBRANCH  28  29
ENDBRANCH   3  28
TORSDOF 10
ENDMDL
MODEL 4
REMARK VINA RESULT:      -6.0      9.881     13.932
REMARK  Name = 194772
REMARK  10 active torsions:
REMARK  status: ('A' for Active; 'I' for Inactive)
REMARK    1  A    between atoms: N_1  and  S_10
REMARK    2  A    between atoms: C_3  and  C_28
REMARK    3  A    between atoms: S_10  and  C_13
REMARK    4  A    between atoms: C_14  and  C_19
REMARK    5  A    between atoms: C_15  and  C_22
REMARK    6  A    between atoms: C_16  and  C_25
REMARK    7  A    between atoms: C_28  and  CA_29
REMARK    8  A    between atoms: CA_29  and  N_30
REMARK    9  A    between atoms: CA_29  and  C_35
REMARK   10  A    between atoms: C_35  and  O_36
REMARK                            x       y       z     vdW  Elec       q    Type
REMARK                         _______ _______ _______ _____ _____    ______ ____
ROOT
ATOM      1  N   UNL     1     -44.960  30.864   5.139  0.00  0.00    -0.168 N 
ATOM      2  C   UNL     1     -45.822  31.768   5.720  0.00  0.00    +0.073 C 
ATOM      3  C   UNL     1     -45.546  32.273   3.526  0.00  0.00    -0.006 C 
ATOM      4  C   UNL     1     -46.205  32.668   4.723  0.00  0.00    +0.013 C 
ATOM      5  C   UNL     1     -44.788  31.161   3.814  0.00  0.00    +0.085 C 
ATOM      6  C   UNL     1     -46.285  31.857   7.037  0.00  0.00    +0.017 C 
ATOM      7  C   UNL     1     -47.095  33.709   5.056  0.00  0.00    +0.001 C 
ATOM      8  C   UNL     1     -47.167  32.897   7.344  0.00  0.00    +0.001 C 
ATOM      9  C   UNL     1     -47.567  33.810   6.370  0.00  0.00    +0.000 C 
ENDROOT
BRANCH   1  10
ATOM     10  S   UNL     1     -44.221  29.587   5.912  0.00  0.00    +0.080 S 
ATOM     11  O   UNL     1     -44.679  29.652   7.299  0.00  0.00    -0.149 OA
ATOM     12  O   UNL     1     -42.791  29.619   5.594  0.00  0.00    -0.149 OA
BRANCH  10  13
ATOM     13  C   UNL     1     -44.855  28.099   5.182  0.00  0.00    +0.118 C 
ATOM     14  C   UNL     1     -46.070  27.596   5.614  0.00  0.00    -0.004 C 
ATOM     15  C   UNL     1     -44.123  27.465   4.191  0.00  0.00    -0.004 C 
ATOM     16  C   UNL     1     -45.844  25.776   4.041  0.00  0.00    -0.023 C 
ATOM     17  C   UNL     1     -46.568  26.426   5.039  0.00  0.00    -0.007 C 
ATOM     18  C   UNL     1     -44.621  26.296   3.616  0.00  0.00    -0.007 C 
BRANCH  14  19
ATOM     19  C   UNL     1     -46.875  28.265   6.681  0.00  0.00    +0.024 C 
ATOM     20  C   UNL     1     -48.168  28.895   6.132  0.00  0.00    +0.005 C 
ATOM     21  C   UNL     1     -47.208  27.315   7.846  0.00  0.00    +0.005 C 
ENDBRANCH  14  19
BRANCH  15  22
ATOM     22  C   UNL     1     -42.809  27.992   3.711  0.00  0.00    +0.024 C 
ATOM     23  C   UNL     1     -41.686  26.945   3.812  0.00  0.00    +0.005 C 
ATOM     24  C   UNL     1     -42.887  28.542   2.276  0.00  0.00    +0.005 C 
ENDBRANCH  15  22
BRANCH  16  25
ATOM     25  C   UNL     1     -46.376  24.526   3.426  0.00  0.00    +0.022 C 
ATOM     26  C   UNL     1     -45.961  24.372   1.951  0.00  0.00    +0.005 C 
ATOM     27  C   UNL     1     -47.907  24.413   3.553  0.00  0.00    +0.005 C 
ENDBRANCH  16  25
ENDBRANCH  10  13
ENDBRANCH   1  10
BRANCH   3  28
ATOM     28  C   UNL     1     -45.650  32.929   2.208  0.00  0.00    +0.017 C 
BRANCH  28  29
ATOM     29  CA  UNL     1     -44.708  34.142   2.023  0.00  0.00    +0.040 C 
BRANCH  29  30
ATOM     30  N   UNL     1     -44.880  34.721   0.687  0.00  0.00    +0.389 N 
ATOM     31  H1  UNL     1     -45.139  33.986   0.029  0.00  0.00    -0.088 HD
ATOM     32  H2  UNL     1     -44.005  35.151   0.389  0.00  0.00    -0.088 HD
ATOM     33  H3  UNL     1     -45.616  35.428   0.716  0.00  0.00    -0.088 HD
ENDBRANCH  29  30
BRANCH  29  35
ATOM     34  OXT UNL     1     -42.677  32.965   1.364  0.00  0.00    -0.253 OA
ATOM     35  C   UNL     1     -43.253  33.723   2.133  0.00  0.00    +0.293 C 
BRANCH  35  36
ATOM     36  O   UNL     1     -42.626  34.311   3.186  0.00  0.00    -0.482 OA
ATOM     37  H   UNL     1     -42.266  33.783   3.871  0.00  0.00    +0.295 HD
ENDBRANCH  35  36
ENDBRANCH  29  35
ENDBRANCH  28  29
ENDBRANCH   3  28
TORSDOF 10
ENDMDL
MODEL 5
REMARK VINA RESULT:      -6.0      9.879     13.947
REMARK  Name = 194772
REMARK  10 active torsions:
REMARK  status: ('A' for Active; 'I' for Inactive)
REMARK    1  A    between atoms: N_1  and  S_10
REMARK    2  A    between atoms: C_3  and  C_28
REMARK    3  A    between atoms: S_10  and  C_13
REMARK    4  A    between atoms: C_14  and  C_19
REMARK    5  A    between atoms: C_15  and  C_22
REMARK    6  A    between atoms: C_16  and  C_25
REMARK    7  A    between atoms: C_28  and  CA_29
REMARK    8  A    between atoms: CA_29  and  N_30
REMARK    9  A    between atoms: CA_29  and  C_35
REMARK   10  A    between atoms: C_35  and  O_36
REMARK                            x       y       z     vdW  Elec       q    Type
REMARK                         _______ _______ _______ _____ _____    ______ ____
ROOT
ATOM      1  N   UNL     1     -44.964  30.864   5.137  0.00  0.00    -0.168 N 
ATOM      2  C   UNL     1     -45.824  31.768   5.720  0.00  0.00    +0.073 C 
ATOM      3  C   UNL     1     -45.555  32.273   3.526  0.00  0.00    -0.006 C 
ATOM      4  C   UNL     1     -46.211  32.667   4.725  0.00  0.00    +0.013 C 
ATOM      5  C   UNL     1     -44.796  31.161   3.811  0.00  0.00    +0.085 C 
ATOM      6  C   UNL     1     -46.284  31.856   7.039  0.00  0.00    +0.017 C 
ATOM      7  C   UNL     1     -47.101  33.707   5.060  0.00  0.00    +0.001 C 
ATOM      8  C   UNL     1     -47.166  32.896   7.348  0.00  0.00    +0.001 C 
ATOM      9  C   UNL     1     -47.569  33.809   6.375  0.00  0.00    +0.000 C 
ENDROOT
BRANCH   1  10
ATOM     10  S   UNL     1     -44.221  29.587   5.908  0.00  0.00    +0.080 S 
ATOM     11  O   UNL     1     -44.677  29.651   7.295  0.00  0.00    -0.149 OA
ATOM     12  O   UNL     1     -42.792  29.621   5.587  0.00  0.00    -0.149 OA
BRANCH  10  13
ATOM     13  C   UNL     1     -44.855  28.099   5.178  0.00  0.00    +0.118 C 
ATOM     14  C   UNL     1     -44.123  27.464   4.189  0.00  0.00    -0.004 C 
ATOM     15  C   UNL     1     -46.072  27.597   5.610  0.00  0.00    -0.004 C 
ATOM     16  C   UNL     1     -45.844  25.776   4.039  0.00  0.00    -0.023 C 
ATOM     17  C   UNL     1     -44.621  26.294   3.615  0.00  0.00    -0.007 C 
ATOM     18  C   UNL     1     -46.570  26.427   5.037  0.00  0.00    -0.007 C 
BRANCH  14  19
ATOM     19  C   UNL     1     -42.809  27.990   3.709  0.00  0.00    +0.024 C 
ATOM     20  C   UNL     1     -41.687  26.939   3.806  0.00  0.00    +0.005 C 
ATOM     21  C   UNL     1     -42.887  28.543   2.274  0.00  0.00    +0.005 C 
ENDBRANCH  14  19
BRANCH  15  22
ATOM     22  C   UNL     1     -46.877  28.268   6.676  0.00  0.00    +0.024 C 
ATOM     23  C   UNL     1     -48.169  28.896   6.125  0.00  0.00    +0.005 C 
ATOM     24  C   UNL     1     -47.208  27.321   7.842  0.00  0.00    +0.005 C 
ENDBRANCH  15  22
BRANCH  16  25
ATOM     25  C   UNL     1     -46.377  24.524   3.426  0.00  0.00    +0.022 C 
ATOM     26  C   UNL     1     -45.961  24.368   1.951  0.00  0.00    +0.005 C 
ATOM     27  C   UNL     1     -47.908  24.412   3.552  0.00  0.00    +0.005 C 
ENDBRANCH  16  25
ENDBRANCH  10  13
ENDBRANCH   1  10
BRANCH   3  28
ATOM     28  C   UNL     1     -45.663  32.929   2.208  0.00  0.00    +0.017 C 
BRANCH  28  29
ATOM     29  CA  UNL     1     -44.722  34.141   2.019  0.00  0.00    +0.040 C 
BRANCH  29  30
ATOM     30  N   UNL     1     -44.890  34.714   0.681  0.00  0.00    +0.389 N 
ATOM     31  H1  UNL     1     -44.924  33.963  -0.008  0.00  0.00    -0.088 HD
ATOM     32  H2  UNL     1     -44.104  35.329   0.473  0.00  0.00    -0.088 HD
ATOM     33  H3  UNL     1     -45.759  35.247   0.646  0.00  0.00    -0.088 HD
ENDBRANCH  29  30
BRANCH  29  35
ATOM     34  OXT UNL     1     -42.680  32.984   1.357  0.00  0.00    -0.253 OA
ATOM     35  C   UNL     1     -43.266  33.724   2.136  0.00  0.00    +0.293 C 
BRANCH  35  36
ATOM     36  O   UNL     1     -42.653  34.292   3.208  0.00  0.00    -0.482 OA
ATOM     37  H   UNL     1     -43.039  35.034   3.630  0.00  0.00    +0.295 HD
ENDBRANCH  35  36
ENDBRANCH  29  35
ENDBRANCH  28  29
ENDBRANCH   3  28
TORSDOF 10
ENDMDL
MODEL 6
REMARK VINA RESULT:      -6.0      2.653      5.438
REMARK  Name = 194772
REMARK  10 active torsions:
REMARK  status: ('A' for Active; 'I' for Inactive)
REMARK    1  A    between atoms: N_1  and  S_10
REMARK    2  A    between atoms: C_3  and  C_28
REMARK    3  A    between atoms: S_10  and  C_13
REMARK    4  A    between atoms: C_14  and  C_19
REMARK    5  A    between atoms: C_15  and  C_22
REMARK    6  A    between atoms: C_16  and  C_25
REMARK    7  A    between atoms: C_28  and  CA_29
REMARK    8  A    between atoms: CA_29  and  N_30
REMARK    9  A    between atoms: CA_29  and  C_35
REMARK   10  A    between atoms: C_35  and  O_36
REMARK                            x       y       z     vdW  Elec       q    Type
REMARK                         _______ _______ _______ _____ _____    ______ ____
ROOT
ATOM      1  N   UNL     1     -34.908  24.339   2.724  0.00  0.00    -0.168 N 
ATOM      2  C   UNL     1     -35.059  23.327   3.647  0.00  0.00    +0.073 C 
ATOM      3  C   UNL     1     -34.648  25.285   4.715  0.00  0.00    -0.006 C 
ATOM      4  C   UNL     1     -34.900  23.899   4.911  0.00  0.00    +0.013 C 
ATOM      5  C   UNL     1     -34.660  25.525   3.360  0.00  0.00    +0.085 C 
ATOM      6  C   UNL     1     -35.322  21.966   3.461  0.00  0.00    +0.017 C 
ATOM      7  C   UNL     1     -35.008  23.071   6.047  0.00  0.00    +0.001 C 
ATOM      8  C   UNL     1     -35.425  21.165   4.601  0.00  0.00    +0.001 C 
ATOM      9  C   UNL     1     -35.270  21.707   5.876  0.00  0.00    +0.000 C 
ENDROOT
BRANCH   1  10
ATOM     10  S   UNL     1     -35.006  24.171   1.069  0.00  0.00    +0.080 S 
ATOM     11  O   UNL     1     -33.886  23.309   0.697  0.00  0.00    -0.149 OA
ATOM     12  O   UNL     1     -35.153  25.504   0.478  0.00  0.00    -0.149 OA
BRANCH  10  13
ATOM     13  C   UNL     1     -36.517  23.309   0.722  0.00  0.00    +0.118 C 
ATOM     14  C   UNL     1     -36.471  22.115   0.022  0.00  0.00    -0.004 C 
ATOM     15  C   UNL     1     -37.719  23.845   1.156  0.00  0.00    -0.004 C 
ATOM     16  C   UNL     1     -38.877  21.963   0.180  0.00  0.00    -0.023 C 
ATOM     17  C   UNL     1     -37.660  21.437  -0.250  0.00  0.00    -0.007 C 
ATOM     18  C   UNL     1     -38.907  23.167   0.884  0.00  0.00    -0.007 C 
BRANCH  14  19
ATOM     19  C   UNL     1     -35.185  21.521  -0.454  0.00  0.00    +0.024 C 
ATOM     20  C   UNL     1     -34.932  20.120   0.135  0.00  0.00    +0.005 C 
ATOM     21  C   UNL     1     -35.099  21.467  -1.991  0.00  0.00    +0.005 C 
ENDBRANCH  14  19
BRANCH  15  22
ATOM     22  C   UNL     1     -37.789  25.132   1.912  0.00  0.00    +0.024 C 
ATOM     23  C   UNL     1     -38.565  26.219   1.147  0.00  0.00    +0.005 C 
ATOM     24  C   UNL     1     -38.386  24.953   3.319  0.00  0.00    +0.005 C 
ENDBRANCH  15  22
BRANCH  16  25
ATOM     25  C   UNL     1     -40.148  21.238  -0.111  0.00  0.00    +0.022 C 
ATOM     26  C   UNL     1     -39.950  20.081  -1.108  0.00  0.00    +0.005 C 
ATOM     27  C   UNL     1     -41.260  22.177  -0.614  0.00  0.00    +0.005 C 
ENDBRANCH  16  25
ENDBRANCH  10  13
ENDBRANCH   1  10
BRANCH   3  28
ATOM     28  C   UNL     1     -34.417  26.294   5.769  0.00  0.00    +0.017 C 
BRANCH  28  29
ATOM     29  CA  UNL     1     -32.949  26.764   5.891  0.00  0.00    +0.040 C 
BRANCH  29  30
ATOM     30  N   UNL     1     -32.727  27.406   7.189  0.00  0.00    +0.389 N 
ATOM     31  H1  UNL     1     -32.420  28.368   7.044  0.00  0.00    -0.088 HD
ATOM     32  H2  UNL     1     -32.009  26.895   7.703  0.00  0.00    -0.088 HD
ATOM     33  H3  UNL     1     -33.596  27.404   7.724  0.00  0.00    -0.088 HD
ENDBRANCH  29  30
BRANCH  29  35
ATOM     34  OXT UNL     1     -33.342  28.729   4.503  0.00  0.00    -0.253 OA
ATOM     35  C   UNL     1     -32.619  27.798   4.829  0.00  0.00    +0.293 C 
BRANCH  35  36
ATOM     36  O   UNL     1     -31.391  27.597   4.280  0.00  0.00    -0.482 OA
ATOM     37  H   UNL     1     -31.226  26.827   3.772  0.00  0.00    +0.295 HD
ENDBRANCH  35  36
ENDBRANCH  29  35
ENDBRANCH  28  29
ENDBRANCH   3  28
TORSDOF 10
ENDMDL
MODEL 7
REMARK VINA RESULT:      -5.9      3.967      7.067
REMARK  Name = 194772
REMARK  10 active torsions:
REMARK  status: ('A' for Active; 'I' for Inactive)
REMARK    1  A    between atoms: N_1  and  S_10
REMARK    2  A    between atoms: C_3  and  C_28
REMARK    3  A    between atoms: S_10  and  C_13
REMARK    4  A    between atoms: C_14  and  C_19
REMARK    5  A    between atoms: C_15  and  C_22
REMARK    6  A    between atoms: C_16  and  C_25
REMARK    7  A    between atoms: C_28  and  CA_29
REMARK    8  A    between atoms: CA_29  and  N_30
REMARK    9  A    between atoms: CA_29  and  C_35
REMARK   10  A    between atoms: C_35  and  O_36
REMARK                            x       y       z     vdW  Elec       q    Type
REMARK                         _______ _______ _______ _____ _____    ______ ____
ROOT
ATOM      1  N   UNL     1     -33.413  25.306   2.117  0.00  0.00    -0.168 N 
ATOM      2  C   UNL     1     -34.058  25.329   3.334  0.00  0.00    +0.073 C 
ATOM      3  C   UNL     1     -35.028  23.788   1.981  0.00  0.00    -0.006 C 
ATOM      4  C   UNL     1     -35.081  24.380   3.274  0.00  0.00    +0.013 C 
ATOM      5  C   UNL     1     -33.992  24.378   1.294  0.00  0.00    +0.085 C 
ATOM      6  C   UNL     1     -33.817  26.109   4.470  0.00  0.00    +0.017 C 
ATOM      7  C   UNL     1     -35.904  24.199   4.404  0.00  0.00    +0.001 C 
ATOM      8  C   UNL     1     -34.645  25.912   5.578  0.00  0.00    +0.001 C 
ATOM      9  C   UNL     1     -35.674  24.972   5.547  0.00  0.00    +0.000 C 
ENDROOT
BRANCH   1  10
ATOM     10  S   UNL     1     -32.118  26.258   1.682  0.00  0.00    +0.080 S 
ATOM     11  O   UNL     1     -31.948  26.054   0.244  0.00  0.00    -0.149 OA
ATOM     12  O   UNL     1     -31.016  25.992   2.610  0.00  0.00    -0.149 OA
BRANCH  10  13
ATOM     13  C   UNL     1     -32.595  27.945   1.956  0.00  0.00    +0.118 C 
ATOM     14  C   UNL     1     -31.791  28.761   2.733  0.00  0.00    -0.004 C 
ATOM     15  C   UNL     1     -33.767  28.418   1.388  0.00  0.00    -0.004 C 
ATOM     16  C   UNL     1     -33.343  30.578   2.383  0.00  0.00    -0.023 C 
ATOM     17  C   UNL     1     -32.167  30.087   2.948  0.00  0.00    -0.007 C 
ATOM     18  C   UNL     1     -34.143  29.744   1.602  0.00  0.00    -0.007 C 
BRANCH  14  19
ATOM     19  C   UNL     1     -30.523  28.269   3.354  0.00  0.00    +0.024 C 
ATOM     20  C   UNL     1     -29.273  28.896   2.710  0.00  0.00    +0.005 C 
ATOM     21  C   UNL     1     -30.495  28.488   4.878  0.00  0.00    +0.005 C 
ENDBRANCH  14  19
BRANCH  15  22
ATOM     22  C   UNL     1     -34.650  27.554   0.547  0.00  0.00    +0.024 C 
ATOM     23  C   UNL     1     -36.092  27.493   1.081  0.00  0.00    +0.005 C 
ATOM     24  C   UNL     1     -34.655  27.984  -0.931  0.00  0.00    +0.005 C 
ENDBRANCH  15  22
BRANCH  16  25
ATOM     25  C   UNL     1     -33.745  31.996   2.612  0.00  0.00    +0.022 C 
ATOM     26  C   UNL     1     -34.831  32.467   1.626  0.00  0.00    +0.005 C 
ATOM     27  C   UNL     1     -32.547  32.963   2.569  0.00  0.00    +0.005 C 
ENDBRANCH  16  25
ENDBRANCH  10  13
ENDBRANCH   1  10
BRANCH   3  28
ATOM     28  C   UNL     1     -35.916  22.729   1.462  0.00  0.00    +0.017 C 
BRANCH  28  29
ATOM     29  CA  UNL     1     -35.301  21.311   1.486  0.00  0.00    +0.040 C 
BRANCH  29  30
ATOM     30  N   UNL     1     -35.782  20.528   0.344  0.00  0.00    +0.389 N 
ATOM     31  H1  UNL     1     -35.057  19.873   0.052  0.00  0.00    -0.088 HD
ATOM     32  H2  UNL     1     -36.004  21.155  -0.429  0.00  0.00    -0.088 HD
ATOM     33  H3  UNL     1     -36.619  20.011   0.615  0.00  0.00    -0.088 HD
ENDBRANCH  29  30
BRANCH  29  35
ATOM     34  OXT UNL     1     -35.192  20.674   3.837  0.00  0.00    -0.253 OA
ATOM     35  C   UNL     1     -35.717  20.558   2.738  0.00  0.00    +0.293 C 
BRANCH  35  36
ATOM     36  O   UNL     1     -36.779  19.738   2.516  0.00  0.00    -0.482 OA
ATOM     37  H   UNL     1     -37.196  19.729   1.677  0.00  0.00    +0.295 HD
ENDBRANCH  35  36
ENDBRANCH  29  35
ENDBRANCH  28  29
ENDBRANCH   3  28
TORSDOF 10
ENDMDL
MODEL 8
REMARK VINA RESULT:      -5.9      3.957      7.583
REMARK  Name = 194772
REMARK  10 active torsions:
REMARK  status: ('A' for Active; 'I' for Inactive)
REMARK    1  A    between atoms: N_1  and  S_10
REMARK    2  A    between atoms: C_3  and  C_28
REMARK    3  A    between atoms: S_10  and  C_13
REMARK    4  A    between atoms: C_14  and  C_19
REMARK    5  A    between atoms: C_15  and  C_22
REMARK    6  A    between atoms: C_16  and  C_25
REMARK    7  A    between atoms: C_28  and  CA_29
REMARK    8  A    between atoms: CA_29  and  N_30
REMARK    9  A    between atoms: CA_29  and  C_35
REMARK   10  A    between atoms: C_35  and  O_36
REMARK                            x       y       z     vdW  Elec       q    Type
REMARK                         _______ _______ _______ _____ _____    ______ ____
ROOT
ATOM      1  N   UNL     1     -33.456  25.306   2.142  0.00  0.00    -0.168 N 
ATOM      2  C   UNL     1     -34.126  25.323   3.346  0.00  0.00    +0.073 C 
ATOM      3  C   UNL     1     -35.066  23.786   1.968  0.00  0.00    -0.006 C 
ATOM      4  C   UNL     1     -35.147  24.374   3.261  0.00  0.00    +0.013 C 
ATOM      5  C   UNL     1     -34.017  24.380   1.304  0.00  0.00    +0.085 C 
ATOM      6  C   UNL     1     -33.909  26.099   4.490  0.00  0.00    +0.017 C 
ATOM      7  C   UNL     1     -35.993  24.188   4.373  0.00  0.00    +0.001 C 
ATOM      8  C   UNL     1     -34.760  25.897   5.579  0.00  0.00    +0.001 C 
ATOM      9  C   UNL     1     -35.787  24.957   5.524  0.00  0.00    +0.000 C 
ENDROOT
BRANCH   1  10
ATOM     10  S   UNL     1     -32.152  26.260   1.738  0.00  0.00    +0.080 S 
ATOM     11  O   UNL     1     -31.937  26.041   0.309  0.00  0.00    -0.149 OA
ATOM     12  O   UNL     1     -31.079  26.010   2.703  0.00  0.00    -0.149 OA
BRANCH  10  13
ATOM     13  C   UNL     1     -32.647  27.947   1.978  0.00  0.00    +0.118 C 
ATOM     14  C   UNL     1     -33.743  28.437   1.289  0.00  0.00    -0.004 C 
ATOM     15  C   UNL     1     -31.928  28.746   2.852  0.00  0.00    -0.004 C 
ATOM     16  C   UNL     1     -33.419  30.581   2.354  0.00  0.00    -0.023 C 
ATOM     17  C   UNL     1     -34.132  29.763   1.478  0.00  0.00    -0.007 C 
ATOM     18  C   UNL     1     -32.317  30.072   3.042  0.00  0.00    -0.007 C 
BRANCH  14  19
ATOM     19  C   UNL     1     -34.532  27.591   0.342  0.00  0.00    +0.024 C 
ATOM     20  C   UNL     1     -36.003  27.444   0.772  0.00  0.00    +0.005 C 
ATOM     21  C   UNL     1     -34.457  28.107  -1.106  0.00  0.00    +0.005 C 
ENDBRANCH  14  19
BRANCH  15  22
ATOM     22  C   UNL     1     -30.742  28.236   3.605  0.00  0.00    +0.024 C 
ATOM     23  C   UNL     1     -29.427  28.881   3.133  0.00  0.00    +0.005 C 
ATOM     24  C   UNL     1     -30.895  28.409   5.126  0.00  0.00    +0.005 C 
ENDBRANCH  15  22
BRANCH  16  25
ATOM     25  C   UNL     1     -33.835  31.999   2.557  0.00  0.00    +0.022 C 
ATOM     26  C   UNL     1     -35.036  32.391   1.677  0.00  0.00    +0.005 C 
ATOM     27  C   UNL     1     -32.678  32.990   2.335  0.00  0.00    +0.005 C 
ENDBRANCH  16  25
ENDBRANCH  10  13
ENDBRANCH   1  10
BRANCH   3  28
ATOM     28  C   UNL     1     -35.943  22.729   1.426  0.00  0.00    +0.017 C 
BRANCH  28  29
ATOM     29  CA  UNL     1     -35.323  21.314   1.445  0.00  0.00    +0.040 C 
BRANCH  29  30
ATOM     30  N   UNL     1     -35.821  20.524   0.315  0.00  0.00    +0.389 N 
ATOM     31  H1  UNL     1     -36.736  20.874   0.033  0.00  0.00    -0.088 HD
ATOM     32  H2  UNL     1     -35.902  19.546   0.594  0.00  0.00    -0.088 HD
ATOM     33  H3  UNL     1     -35.170  20.603  -0.467  0.00  0.00    -0.088 HD
ENDBRANCH  29  30
BRANCH  29  35
ATOM     34  OXT UNL     1     -35.175  20.692   3.799  0.00  0.00    -0.253 OA
ATOM     35  C   UNL     1     -35.714  20.565   2.707  0.00  0.00    +0.293 C 
BRANCH  35  36
ATOM     36  O   UNL     1     -36.771  19.733   2.506  0.00  0.00    -0.482 OA
ATOM     37  H   UNL     1     -37.055  19.540   1.634  0.00  0.00    +0.295 HD
ENDBRANCH  35  36
ENDBRANCH  29  35
ENDBRANCH  28  29
ENDBRANCH   3  28
TORSDOF 10
ENDMDL
MODEL 9
REMARK VINA RESULT:      -5.8      2.663      5.274
REMARK  Name = 194772
REMARK  10 active torsions:
REMARK  status: ('A' for Active; 'I' for Inactive)
REMARK    1  A    between atoms: N_1  and  S_10
REMARK    2  A    between atoms: C_3  and  C_28
REMARK    3  A    between atoms: S_10  and  C_13
REMARK    4  A    between atoms: C_14  and  C_19
REMARK    5  A    between atoms: C_15  and  C_22
REMARK    6  A    between atoms: C_16  and  C_25
REMARK    7  A    between atoms: C_28  and  CA_29
REMARK    8  A    between atoms: CA_29  and  N_30
REMARK    9  A    between atoms: CA_29  and  C_35
REMARK   10  A    between atoms: C_35  and  O_36
REMARK                            x       y       z     vdW  Elec       q    Type
REMARK                         _______ _______ _______ _____ _____    ______ ____
ROOT
ATOM      1  N   UNL     1     -34.835  24.370   2.594  0.00  0.00    -0.168 N 
ATOM      2  C   UNL     1     -35.014  23.427   3.582  0.00  0.00    +0.073 C 
ATOM      3  C   UNL     1     -34.609  25.452   4.520  0.00  0.00    -0.006 C 
ATOM      4  C   UNL     1     -34.876  24.084   4.807  0.00  0.00    +0.013 C 
ATOM      5  C   UNL     1     -34.590  25.596   3.151  0.00  0.00    +0.085 C 
ATOM      6  C   UNL     1     -35.285  22.058   3.486  0.00  0.00    +0.017 C 
ATOM      7  C   UNL     1     -35.015  23.339   5.995  0.00  0.00    +0.001 C 
ATOM      8  C   UNL     1     -35.419  21.340   4.678  0.00  0.00    +0.001 C 
ATOM      9  C   UNL     1     -35.286  21.969   5.914  0.00  0.00    +0.000 C 
ENDROOT
BRANCH   1  10
ATOM     10  S   UNL     1     -34.900  24.088   0.954  0.00  0.00    +0.080 S 
ATOM     11  O   UNL     1     -33.747  23.239   0.657  0.00  0.00    -0.149 OA
ATOM     12  O   UNL     1     -35.080  25.371   0.271  0.00  0.00    -0.149 OA
BRANCH  10  13
ATOM     13  C   UNL     1     -36.377  23.154   0.644  0.00  0.00    +0.118 C 
ATOM     14  C   UNL     1     -37.604  23.688   1.000  0.00  0.00    -0.004 C 
ATOM     15  C   UNL     1     -36.277  21.905   0.052  0.00  0.00    -0.004 C 
ATOM     16  C   UNL     1     -38.682  21.695   0.161  0.00  0.00    -0.023 C 
ATOM     17  C   UNL     1     -38.765  22.953   0.756  0.00  0.00    -0.007 C 
ATOM     18  C   UNL     1     -37.438  21.171  -0.192  0.00  0.00    -0.007 C 
BRANCH  14  19
ATOM     19  C   UNL     1     -37.732  25.032   1.640  0.00  0.00    +0.024 C 
ATOM     20  C   UNL     1     -38.557  26.012   0.785  0.00  0.00    +0.005 C 
ATOM     21  C   UNL     1     -38.320  24.951   3.060  0.00  0.00    +0.005 C 
ENDBRANCH  14  19
BRANCH  15  22
ATOM     22  C   UNL     1     -34.962  21.312  -0.339  0.00  0.00    +0.024 C 
ATOM     23  C   UNL     1     -34.677  19.988   0.394  0.00  0.00    +0.005 C 
ATOM     24  C   UNL     1     -34.841  21.108  -1.859  0.00  0.00    +0.005 C 
ENDBRANCH  15  22
BRANCH  16  25
ATOM     25  C   UNL     1     -39.923  20.910  -0.100  0.00  0.00    +0.022 C 
ATOM     26  C   UNL     1     -39.720  19.831  -1.181  0.00  0.00    +0.005 C 
ATOM     27  C   UNL     1     -41.119  21.805  -0.473  0.00  0.00    +0.005 C 
ENDBRANCH  16  25
ENDBRANCH  10  13
ENDBRANCH   1  10
BRANCH   3  28
ATOM     28  C   UNL     1     -34.391  26.530   5.505  0.00  0.00    +0.017 C 
BRANCH  28  29
ATOM     29  CA  UNL     1     -32.904  26.811   5.824  0.00  0.00    +0.040 C 
BRANCH  29  30
ATOM     30  N   UNL     1     -32.771  27.383   7.167  0.00  0.00    +0.389 N 
ATOM     31  H1  UNL     1     -31.783  27.483   7.397  0.00  0.00    -0.088 HD
ATOM     32  H2  UNL     1     -33.216  26.764   7.845  0.00  0.00    -0.088 HD
ATOM     33  H3  UNL     1     -33.221  28.298   7.194  0.00  0.00    -0.088 HD
ENDBRANCH  29  30
BRANCH  29  35
ATOM     34  OXT UNL     1     -31.349  27.643   4.141  0.00  0.00    -0.253 OA
ATOM     35  C   UNL     1     -32.323  27.828   4.858  0.00  0.00    +0.293 C 
BRANCH  35  36
ATOM     36  O   UNL     1     -33.029  28.991   4.847  0.00  0.00    -0.482 OA
ATOM     37  H   UNL     1     -33.647  29.156   4.163  0.00  0.00    +0.295 HD
ENDBRANCH  35  36
ENDBRANCH  29  35
ENDBRANCH  28  29
ENDBRANCH   3  28
TORSDOF 10
ENDMDL
