MODEL 1
REMARK VINA RESULT:      -7.9      0.000      0.000
REMARK  Name = 5273355
REMARK  5 active torsions:
REMARK  status: ('A' for Active; 'I' for Inactive)
REMARK    1  A    between atoms: C_2  and  C_14
REMARK    2  A    between atoms: C_3  and  O_29
REMARK    3  A    between atoms: C_8  and  O_31
REMARK    4  A    between atoms: C_18  and  O_25
REMARK    5  A    between atoms: C_19  and  O_27
REMARK                            x       y       z     vdW  Elec       q    Type
REMARK                         _______ _______ _______ _____ _____    ______ ____
ROOT
ATOM      1  O   UNL     1     -36.675  24.040   0.793  0.00  0.00    -0.291 OA
ATOM      2  C   UNL     1     -35.257  20.729   1.279  0.00  0.00    +0.064 C 
ATOM      3  C   UNL     1     -35.614  20.517   2.762  0.00  0.00    +0.140 C 
ATOM      4  C   UNL     1     -36.263  21.688   0.628  0.00  0.00    +0.076 C 
ATOM      5  C   UNL     1     -35.648  21.844   3.482  0.00  0.00    +0.041 C 
ATOM      6  C   UNL     1     -35.990  23.031   2.814  0.00  0.00    +0.036 C 
ATOM      7  C   UNL     1     -36.319  23.012   1.363  0.00  0.00    +0.173 C 
ATOM      8  C   UNL     1     -35.360  21.895   4.853  0.00  0.00    +0.132 C 
ATOM      9  C   UNL     1     -36.029  24.247   3.507  0.00  0.00    -0.001 C 
ATOM     10  C   UNL     1     -35.732  24.281   4.870  0.00  0.00    -0.019 C 
ATOM     11  C   UNL     1     -35.400  23.108   5.542  0.00  0.00    +0.032 C 
ATOM     12  C   UNL     1     -35.774  25.576   5.609  0.00  0.00    +0.031 C 
ENDROOT
BRANCH   2  14
ATOM     13  O   UNL     1     -38.387  17.276  -0.930  0.00  0.00    -0.291 OA
ATOM     14  C   UNL     1     -35.093  19.410   0.542  0.00  0.00    +0.010 C 
ATOM     15  C   UNL     1     -34.785  16.961  -0.795  0.00  0.00    +0.010 C 
ATOM     16  C   UNL     1     -33.820  18.889   0.327  0.00  0.00    -0.023 C 
ATOM     17  C   UNL     1     -36.065  17.499  -0.582  0.00  0.00    +0.066 C 
ATOM     18  C   UNL     1     -36.216  18.720   0.088  0.00  0.00    +0.132 C 
ATOM     19  C   UNL     1     -34.591  15.654  -1.522  0.00  0.00    +0.133 C 
ATOM     20  C   UNL     1     -35.813  14.754  -1.365  0.00  0.00    +0.042 C 
ATOM     21  C   UNL     1     -33.666  17.673  -0.339  0.00  0.00    -0.006 C 
ATOM     22  C   UNL     1     -37.083  15.472  -1.801  0.00  0.00    +0.072 C 
ATOM     23  C   UNL     1     -37.271  16.784  -1.072  0.00  0.00    +0.176 C 
ATOM     24  C   UNL     1     -32.602  19.611   0.804  0.00  0.00    +0.031 C 
BRANCH  18  25
ATOM     25  O   UNL     1     -37.443  19.271   0.322  0.00  0.00    -0.506 OA
ATOM     26  H   UNL     1     -37.697  19.491   1.197  0.00  0.00    +0.292 HD
ENDBRANCH  18  25
BRANCH  19  27
ATOM     27  O   UNL     1     -34.354  15.886  -2.907  0.00  0.00    -0.380 OA
ATOM     28  H   UNL     1     -33.753  16.640  -3.012  0.00  0.00    +0.211 HD
ENDBRANCH  19  27
ENDBRANCH   2  14
BRANCH   3  29
ATOM     29  O   UNL     1     -36.889  19.889   2.885  0.00  0.00    -0.380 OA
ATOM     30  H   UNL     1     -36.884  19.294   3.651  0.00  0.00    +0.211 HD
ENDBRANCH   3  29
BRANCH   8  31
ATOM     31  O   UNL     1     -35.045  20.766   5.550  0.00  0.00    -0.506 OA
ATOM     32  H   UNL     1     -35.610  20.020   5.514  0.00  0.00    +0.292 HD
ENDBRANCH   8  31
TORSDOF 5
ENDMDL
MODEL 2
REMARK VINA RESULT:      -7.9      1.582      2.611
REMARK  Name = 5273355
REMARK  5 active torsions:
REMARK  status: ('A' for Active; 'I' for Inactive)
REMARK    1  A    between atoms: C_2  and  C_14
REMARK    2  A    between atoms: C_3  and  O_29
REMARK    3  A    between atoms: C_8  and  O_31
REMARK    4  A    between atoms: C_18  and  O_25
REMARK    5  A    between atoms: C_19  and  O_27
REMARK                            x       y       z     vdW  Elec       q    Type
REMARK                         _______ _______ _______ _____ _____    ______ ____
ROOT
ATOM      1  O   UNL     1     -36.045  23.970   0.752  0.00  0.00    -0.291 OA
ATOM      2  C   UNL     1     -34.992  20.550   1.388  0.00  0.00    +0.064 C 
ATOM      3  C   UNL     1     -35.507  20.391   2.831  0.00  0.00    +0.140 C 
ATOM      4  C   UNL     1     -35.837  21.588   0.639  0.00  0.00    +0.076 C 
ATOM      5  C   UNL     1     -35.487  21.726   3.538  0.00  0.00    +0.041 C 
ATOM      6  C   UNL     1     -35.652  22.930   2.834  0.00  0.00    +0.036 C 
ATOM      7  C   UNL     1     -35.842  22.921   1.359  0.00  0.00    +0.173 C 
ATOM      8  C   UNL     1     -35.329  21.769   4.931  0.00  0.00    +0.132 C 
ATOM      9  C   UNL     1     -35.645  24.154   3.515  0.00  0.00    -0.001 C 
ATOM     10  C   UNL     1     -35.478  24.179   4.899  0.00  0.00    -0.019 C 
ATOM     11  C   UNL     1     -35.322  22.990   5.607  0.00  0.00    +0.032 C 
ATOM     12  C   UNL     1     -35.470  25.483   5.625  0.00  0.00    +0.031 C 
ENDROOT
BRANCH   2  14
ATOM     13  O   UNL     1     -31.401  16.884   0.878  0.00  0.00    -0.291 OA
ATOM     14  C   UNL     1     -34.881  19.211   0.677  0.00  0.00    +0.010 C 
ATOM     15  C   UNL     1     -34.672  16.752  -0.660  0.00  0.00    +0.010 C 
ATOM     16  C   UNL     1     -35.961  18.722  -0.053  0.00  0.00    -0.023 C 
ATOM     17  C   UNL     1     -33.592  17.250   0.086  0.00  0.00    +0.066 C 
ATOM     18  C   UNL     1     -33.697  18.478   0.750  0.00  0.00    +0.132 C 
ATOM     19  C   UNL     1     -34.591  15.428  -1.377  0.00  0.00    +0.133 C 
ATOM     20  C   UNL     1     -33.150  15.095  -1.751  0.00  0.00    +0.042 C 
ATOM     21  C   UNL     1     -35.859  17.498  -0.716  0.00  0.00    -0.006 C 
ATOM     22  C   UNL     1     -32.241  15.146  -0.531  0.00  0.00    +0.072 C 
ATOM     23  C   UNL     1     -32.329  16.475   0.187  0.00  0.00    +0.176 C 
ATOM     24  C   UNL     1     -37.239  19.489  -0.145  0.00  0.00    +0.031 C 
BRANCH  18  25
ATOM     25  O   UNL     1     -32.667  19.000   1.478  0.00  0.00    -0.506 OA
ATOM     26  H   UNL     1     -32.847  19.545   2.219  0.00  0.00    +0.292 HD
ENDBRANCH  18  25
BRANCH  19  27
ATOM     27  O   UNL     1     -35.116  14.386  -0.558  0.00  0.00    -0.380 OA
ATOM     28  H   UNL     1     -36.023  14.182  -0.835  0.00  0.00    +0.211 HD
ENDBRANCH  19  27
ENDBRANCH   2  14
BRANCH   3  29
ATOM     29  O   UNL     1     -36.841  19.885   2.833  0.00  0.00    -0.380 OA
ATOM     30  H   UNL     1     -37.468  20.625   2.833  0.00  0.00    +0.211 HD
ENDBRANCH   3  29
BRANCH   8  31
ATOM     31  O   UNL     1     -35.188  20.625   5.660  0.00  0.00    -0.506 OA
ATOM     32  H   UNL     1     -35.616  19.839   5.385  0.00  0.00    +0.292 HD
ENDBRANCH   8  31
TORSDOF 5
ENDMDL
MODEL 3
REMARK VINA RESULT:      -7.3      1.665      7.806
REMARK  Name = 5273355
REMARK  5 active torsions:
REMARK  status: ('A' for Active; 'I' for Inactive)
REMARK    1  A    between atoms: C_2  and  C_14
REMARK    2  A    between atoms: C_3  and  O_29
REMARK    3  A    between atoms: C_8  and  O_31
REMARK    4  A    between atoms: C_18  and  O_25
REMARK    5  A    between atoms: C_19  and  O_27
REMARK                            x       y       z     vdW  Elec       q    Type
REMARK                         _______ _______ _______ _____ _____    ______ ____
ROOT
ATOM      1  O   UNL     1     -33.063  17.635   0.627  0.00  0.00    -0.291 OA
ATOM      2  C   UNL     1     -35.145  20.587   1.026  0.00  0.00    +0.064 C 
ATOM      3  C   UNL     1     -36.533  19.921   1.008  0.00  0.00    +0.140 C 
ATOM      4  C   UNL     1     -34.092  19.596   1.537  0.00  0.00    +0.076 C 
ATOM      5  C   UNL     1     -36.499  18.674   0.157  0.00  0.00    +0.041 C 
ATOM      6  C   UNL     1     -35.326  17.915   0.018  0.00  0.00    +0.036 C 
ATOM      7  C   UNL     1     -34.073  18.331   0.702  0.00  0.00    +0.173 C 
ATOM      8  C   UNL     1     -37.668  18.243  -0.487  0.00  0.00    +0.132 C 
ATOM      9  C   UNL     1     -35.323  16.754  -0.765  0.00  0.00    -0.001 C 
ATOM     10  C   UNL     1     -36.492  16.344  -1.406  0.00  0.00    -0.019 C 
ATOM     11  C   UNL     1     -37.662  17.085  -1.267  0.00  0.00    +0.032 C 
ATOM     12  C   UNL     1     -36.490  15.107  -2.240  0.00  0.00    +0.031 C 
ENDROOT
BRANCH   2  14
ATOM     13  O   UNL     1     -35.321  22.090   5.956  0.00  0.00    -0.291 OA
ATOM     14  C   UNL     1     -35.163  21.911   1.772  0.00  0.00    +0.010 C 
ATOM     15  C   UNL     1     -35.222  24.361   3.142  0.00  0.00    +0.010 C 
ATOM     16  C   UNL     1     -35.109  23.108   1.062  0.00  0.00    -0.023 C 
ATOM     17  C   UNL     1     -35.266  23.148   3.849  0.00  0.00    +0.066 C 
ATOM     18  C   UNL     1     -35.239  21.927   3.164  0.00  0.00    +0.132 C 
ATOM     19  C   UNL     1     -35.238  25.689   3.854  0.00  0.00    +0.133 C 
ATOM     20  C   UNL     1     -35.955  25.582   5.197  0.00  0.00    +0.042 C 
ATOM     21  C   UNL     1     -35.136  24.326   1.742  0.00  0.00    -0.006 C 
ATOM     22  C   UNL     1     -35.350  24.478   6.054  0.00  0.00    +0.072 C 
ATOM     23  C   UNL     1     -35.332  23.147   5.334  0.00  0.00    +0.176 C 
ATOM     24  C   UNL     1     -35.027  23.116  -0.430  0.00  0.00    +0.031 C 
BRANCH  18  25
ATOM     25  O   UNL     1     -35.289  20.729   3.815  0.00  0.00    -0.506 OA
ATOM     26  H   UNL     1     -35.553  19.957   3.354  0.00  0.00    +0.292 HD
ENDBRANCH  18  25
BRANCH  19  27
ATOM     27  O   UNL     1     -33.909  26.157   4.067  0.00  0.00    -0.380 OA
ATOM     28  H   UNL     1     -33.283  25.569   3.617  0.00  0.00    +0.211 HD
ENDBRANCH  19  27
ENDBRANCH   2  14
BRANCH   3  29
ATOM     29  O   UNL     1     -36.937  19.570   2.331  0.00  0.00    -0.380 OA
ATOM     30  H   UNL     1     -37.292  20.353   2.780  0.00  0.00    +0.211 HD
ENDBRANCH   3  29
BRANCH   8  31
ATOM     31  O   UNL     1     -38.837  18.935  -0.364  0.00  0.00    -0.506 OA
ATOM     32  H   UNL     1     -39.269  19.264  -1.127  0.00  0.00    +0.292 HD
ENDBRANCH   8  31
TORSDOF 5
ENDMDL
MODEL 4
REMARK VINA RESULT:      -7.2      5.039      9.912
REMARK  Name = 5273355
REMARK  5 active torsions:
REMARK  status: ('A' for Active; 'I' for Inactive)
REMARK    1  A    between atoms: C_2  and  C_14
REMARK    2  A    between atoms: C_3  and  O_29
REMARK    3  A    between atoms: C_8  and  O_31
REMARK    4  A    between atoms: C_18  and  O_25
REMARK    5  A    between atoms: C_19  and  O_27
REMARK                            x       y       z     vdW  Elec       q    Type
REMARK                         _______ _______ _______ _____ _____    ______ ____
ROOT
ATOM      1  O   UNL     1     -35.052  22.147   2.881  0.00  0.00    -0.291 OA
ATOM      2  C   UNL     1     -35.116  25.775   3.079  0.00  0.00    +0.064 C 
ATOM      3  C   UNL     1     -36.535  25.972   3.643  0.00  0.00    +0.140 C 
ATOM      4  C   UNL     1     -34.567  24.407   3.503  0.00  0.00    +0.076 C 
ATOM      5  C   UNL     1     -37.438  24.853   3.179  0.00  0.00    +0.041 C 
ATOM      6  C   UNL     1     -36.934  23.571   2.908  0.00  0.00    +0.036 C 
ATOM      7  C   UNL     1     -35.483  23.283   3.062  0.00  0.00    +0.173 C 
ATOM      8  C   UNL     1     -38.814  25.086   3.040  0.00  0.00    +0.132 C 
ATOM      9  C   UNL     1     -37.793  22.546   2.492  0.00  0.00    -0.001 C 
ATOM     10  C   UNL     1     -39.158  22.797   2.352  0.00  0.00    -0.019 C 
ATOM     11  C   UNL     1     -39.668  24.063   2.627  0.00  0.00    +0.032 C 
ATOM     12  C   UNL     1     -40.075  21.706   1.911  0.00  0.00    +0.031 C 
ENDROOT
BRANCH   2  14
ATOM     13  O   UNL     1     -32.041  27.078   7.008  0.00  0.00    -0.291 OA
ATOM     14  C   UNL     1     -34.204  26.942   3.421  0.00  0.00    +0.010 C 
ATOM     15  C   UNL     1     -32.542  29.112   4.060  0.00  0.00    +0.010 C 
ATOM     16  C   UNL     1     -34.059  27.996   2.523  0.00  0.00    -0.023 C 
ATOM     17  C   UNL     1     -32.688  28.040   4.954  0.00  0.00    +0.066 C 
ATOM     18  C   UNL     1     -33.520  26.960   4.636  0.00  0.00    +0.132 C 
ATOM     19  C   UNL     1     -31.646  30.284   4.372  0.00  0.00    +0.133 C 
ATOM     20  C   UNL     1     -31.516  30.487   5.878  0.00  0.00    +0.042 C 
ATOM     21  C   UNL     1     -33.232  29.074   2.838  0.00  0.00    -0.006 C 
ATOM     22  C   UNL     1     -31.053  29.209   6.565  0.00  0.00    +0.072 C 
ATOM     23  C   UNL     1     -31.954  28.036   6.246  0.00  0.00    +0.176 C 
ATOM     24  C   UNL     1     -34.783  27.999   1.216  0.00  0.00    +0.031 C 
BRANCH  18  25
ATOM     25  O   UNL     1     -33.694  25.904   5.483  0.00  0.00    -0.506 OA
ATOM     26  H   UNL     1     -33.017  25.675   6.090  0.00  0.00    +0.292 HD
ENDBRANCH  18  25
BRANCH  19  27
ATOM     27  O   UNL     1     -30.351  30.083   3.811  0.00  0.00    -0.380 OA
ATOM     28  H   UNL     1     -30.397  29.396   3.128  0.00  0.00    +0.211 HD
ENDBRANCH  19  27
ENDBRANCH   2  14
BRANCH   3  29
ATOM     29  O   UNL     1     -36.510  25.986   5.069  0.00  0.00    -0.380 OA
ATOM     30  H   UNL     1     -35.649  26.315   5.374  0.00  0.00    +0.211 HD
ENDBRANCH   3  29
BRANCH   8  31
ATOM     31  O   UNL     1     -39.353  26.309   3.313  0.00  0.00    -0.506 OA
ATOM     32  H   UNL     1     -39.849  26.438   4.098  0.00  0.00    +0.292 HD
ENDBRANCH   8  31
TORSDOF 5
ENDMDL
MODEL 5
REMARK VINA RESULT:      -7.0      1.553      1.973
REMARK  Name = 5273355
REMARK  5 active torsions:
REMARK  status: ('A' for Active; 'I' for Inactive)
REMARK    1  A    between atoms: C_2  and  C_14
REMARK    2  A    between atoms: C_3  and  O_29
REMARK    3  A    between atoms: C_8  and  O_31
REMARK    4  A    between atoms: C_18  and  O_25
REMARK    5  A    between atoms: C_19  and  O_27
REMARK                            x       y       z     vdW  Elec       q    Type
REMARK                         _______ _______ _______ _____ _____    ______ ____
ROOT
ATOM      1  O   UNL     1     -34.897  25.099   1.066  0.00  0.00    -0.291 OA
ATOM      2  C   UNL     1     -35.478  21.566   1.689  0.00  0.00    +0.064 C 
ATOM      3  C   UNL     1     -36.110  21.657   3.091  0.00  0.00    +0.140 C 
ATOM      4  C   UNL     1     -35.736  22.863   0.911  0.00  0.00    +0.076 C 
ATOM      5  C   UNL     1     -35.562  22.856   3.829  0.00  0.00    +0.041 C 
ATOM      6  C   UNL     1     -35.140  24.008   3.144  0.00  0.00    +0.036 C 
ATOM      7  C   UNL     1     -35.211  24.071   1.660  0.00  0.00    +0.173 C 
ATOM      8  C   UNL     1     -35.498  22.837   5.230  0.00  0.00    +0.132 C 
ATOM      9  C   UNL     1     -34.649  25.111   3.852  0.00  0.00    -0.001 C 
ATOM     10  C   UNL     1     -34.584  25.072   5.245  0.00  0.00    -0.019 C 
ATOM     11  C   UNL     1     -35.009  23.938   5.933  0.00  0.00    +0.032 C 
ATOM     12  C   UNL     1     -34.063  26.248   6.000  0.00  0.00    +0.031 C 
ENDROOT
BRANCH   2  14
ATOM     13  O   UNL     1     -39.651  20.007  -0.910  0.00  0.00    -0.291 OA
ATOM     14  C   UNL     1     -35.910  20.307   0.956  0.00  0.00    +0.010 C 
ATOM     15  C   UNL     1     -36.711  17.968  -0.375  0.00  0.00    +0.010 C 
ATOM     16  C   UNL     1     -35.044  19.219   0.878  0.00  0.00    -0.023 C 
ATOM     17  C   UNL     1     -37.573  19.075  -0.299  0.00  0.00    +0.066 C 
ATOM     18  C   UNL     1     -37.172  20.239   0.367  0.00  0.00    +0.132 C 
ATOM     19  C   UNL     1     -37.112  16.706  -1.095  0.00  0.00    +0.133 C 
ATOM     20  C   UNL     1     -38.627  16.530  -1.090  0.00  0.00    +0.042 C 
ATOM     21  C   UNL     1     -35.441  18.056   0.215  0.00  0.00    -0.006 C 
ATOM     22  C   UNL     1     -39.323  17.760  -1.656  0.00  0.00    +0.072 C 
ATOM     23  C   UNL     1     -38.915  19.025  -0.933  0.00  0.00    +0.176 C 
ATOM     24  C   UNL     1     -33.687  19.268   1.500  0.00  0.00    +0.031 C 
BRANCH  18  25
ATOM     25  O   UNL     1     -37.984  21.332   0.470  0.00  0.00    -0.506 OA
ATOM     26  H   UNL     1     -37.746  22.133   0.046  0.00  0.00    +0.292 HD
ENDBRANCH  18  25
BRANCH  19  27
ATOM     27  O   UNL     1     -36.646  16.731  -2.442  0.00  0.00    -0.380 OA
ATOM     28  H   UNL     1     -35.906  17.355  -2.517  0.00  0.00    +0.211 HD
ENDBRANCH  19  27
ENDBRANCH   2  14
BRANCH   3  29
ATOM     29  O   UNL     1     -37.528  21.780   2.994  0.00  0.00    -0.380 OA
ATOM     30  H   UNL     1     -37.752  22.365   2.253  0.00  0.00    +0.211 HD
ENDBRANCH   3  29
BRANCH   8  31
ATOM     31  O   UNL     1     -35.917  21.750   5.939  0.00  0.00    -0.506 OA
ATOM     32  H   UNL     1     -35.375  21.395   6.616  0.00  0.00    +0.292 HD
ENDBRANCH   8  31
TORSDOF 5
ENDMDL
MODEL 6
REMARK VINA RESULT:      -6.8      5.538     10.114
REMARK  Name = 5273355
REMARK  5 active torsions:
REMARK  status: ('A' for Active; 'I' for Inactive)
REMARK    1  A    between atoms: C_2  and  C_14
REMARK    2  A    between atoms: C_3  and  O_29
REMARK    3  A    between atoms: C_8  and  O_31
REMARK    4  A    between atoms: C_18  and  O_25
REMARK    5  A    between atoms: C_19  and  O_27
REMARK                            x       y       z     vdW  Elec       q    Type
REMARK                         _______ _______ _______ _____ _____    ______ ____
ROOT
ATOM      1  O   UNL     1     -35.073  22.441   4.499  0.00  0.00    -0.291 OA
ATOM      2  C   UNL     1     -34.278  25.807   3.384  0.00  0.00    +0.064 C 
ATOM      3  C   UNL     1     -35.694  26.412   3.377  0.00  0.00    +0.140 C 
ATOM      4  C   UNL     1     -34.197  24.667   4.406  0.00  0.00    +0.076 C 
ATOM      5  C   UNL     1     -36.715  25.339   3.081  0.00  0.00    +0.041 C 
ATOM      6  C   UNL     1     -36.497  24.000   3.445  0.00  0.00    +0.036 C 
ATOM      7  C   UNL     1     -35.237  23.600   4.128  0.00  0.00    +0.173 C 
ATOM      8  C   UNL     1     -37.921  25.684   2.454  0.00  0.00    +0.132 C 
ATOM      9  C   UNL     1     -37.465  23.026   3.172  0.00  0.00    -0.001 C 
ATOM     10  C   UNL     1     -38.655  23.385   2.540  0.00  0.00    -0.019 C 
ATOM     11  C   UNL     1     -38.884  24.712   2.183  0.00  0.00    +0.032 C 
ATOM     12  C   UNL     1     -39.687  22.348   2.250  0.00  0.00    +0.031 C 
ENDROOT
BRANCH   2  14
ATOM     13  O   UNL     1     -32.188  28.381   7.333  0.00  0.00    -0.291 OA
ATOM     14  C   UNL     1     -33.209  26.873   3.558  0.00  0.00    +0.010 C 
ATOM     15  C   UNL     1     -31.251  28.861   3.872  0.00  0.00    +0.010 C 
ATOM     16  C   UNL     1     -32.528  27.362   2.446  0.00  0.00    -0.023 C 
ATOM     17  C   UNL     1     -31.937  28.354   4.988  0.00  0.00    +0.066 C 
ATOM     18  C   UNL     1     -32.915  27.365   4.829  0.00  0.00    +0.132 C 
ATOM     19  C   UNL     1     -30.187  29.918   4.014  0.00  0.00    +0.133 C 
ATOM     20  C   UNL     1     -30.431  30.779   5.250  0.00  0.00    +0.042 C 
ATOM     21  C   UNL     1     -31.553  28.348   2.601  0.00  0.00    -0.006 C 
ATOM     22  C   UNL     1     -30.558  29.919   6.500  0.00  0.00    +0.072 C 
ATOM     23  C   UNL     1     -31.625  28.857   6.351  0.00  0.00    +0.176 C 
ATOM     24  C   UNL     1     -32.826  26.850   1.075  0.00  0.00    +0.031 C 
BRANCH  18  25
ATOM     25  O   UNL     1     -33.608  26.854   5.888  0.00  0.00    -0.506 OA
ATOM     26  H   UNL     1     -33.147  26.466   6.606  0.00  0.00    +0.292 HD
ENDBRANCH  18  25
BRANCH  19  27
ATOM     27  O   UNL     1     -28.898  29.318   4.107  0.00  0.00    -0.380 OA
ATOM     28  H   UNL     1     -28.994  28.360   4.231  0.00  0.00    +0.211 HD
ENDBRANCH  19  27
ENDBRANCH   2  14
BRANCH   3  29
ATOM     29  O   UNL     1     -35.993  27.000   4.642  0.00  0.00    -0.380 OA
ATOM     30  H   UNL     1     -35.724  26.395   5.352  0.00  0.00    +0.211 HD
ENDBRANCH   3  29
BRANCH   8  31
ATOM     31  O   UNL     1     -38.187  26.975   2.101  0.00  0.00    -0.506 OA
ATOM     32  H   UNL     1     -38.783  27.487   2.613  0.00  0.00    +0.292 HD
ENDBRANCH   8  31
TORSDOF 5
ENDMDL
MODEL 7
REMARK VINA RESULT:      -6.7      3.313      5.533
REMARK  Name = 5273355
REMARK  5 active torsions:
REMARK  status: ('A' for Active; 'I' for Inactive)
REMARK    1  A    between atoms: C_2  and  C_14
REMARK    2  A    between atoms: C_3  and  O_29
REMARK    3  A    between atoms: C_8  and  O_31
REMARK    4  A    between atoms: C_18  and  O_25
REMARK    5  A    between atoms: C_19  and  O_27
REMARK                            x       y       z     vdW  Elec       q    Type
REMARK                         _______ _______ _______ _____ _____    ______ ____
ROOT
ATOM      1  O   UNL     1     -35.154  22.827   6.408  0.00  0.00    -0.291 OA
ATOM      2  C   UNL     1     -37.017  23.709   3.415  0.00  0.00    +0.064 C 
ATOM      3  C   UNL     1     -35.980  24.618   2.731  0.00  0.00    +0.140 C 
ATOM      4  C   UNL     1     -36.309  22.689   4.316  0.00  0.00    +0.076 C 
ATOM      5  C   UNL     1     -35.127  25.306   3.771  0.00  0.00    +0.041 C 
ATOM      6  C   UNL     1     -34.864  24.708   5.014  0.00  0.00    +0.036 C 
ATOM      7  C   UNL     1     -35.433  23.375   5.344  0.00  0.00    +0.173 C 
ATOM      8  C   UNL     1     -34.561  26.557   3.484  0.00  0.00    +0.132 C 
ATOM      9  C   UNL     1     -34.058  25.361   5.956  0.00  0.00    -0.001 C 
ATOM     10  C   UNL     1     -33.509  26.608   5.658  0.00  0.00    -0.019 C 
ATOM     11  C   UNL     1     -33.758  27.205   4.425  0.00  0.00    +0.032 C 
ATOM     12  C   UNL     1     -32.651  27.302   6.661  0.00  0.00    +0.031 C 
ENDROOT
BRANCH   2  14
ATOM     13  O   UNL     1     -37.040  19.562   0.349  0.00  0.00    -0.291 OA
ATOM     14  C   UNL     1     -37.975  23.089   2.411  0.00  0.00    +0.010 C 
ATOM     15  C   UNL     1     -39.738  21.964   0.539  0.00  0.00    +0.010 C 
ATOM     16  C   UNL     1     -39.209  23.688   2.170  0.00  0.00    -0.023 C 
ATOM     17  C   UNL     1     -38.496  21.363   0.797  0.00  0.00    +0.066 C 
ATOM     18  C   UNL     1     -37.616  21.927   1.729  0.00  0.00    +0.132 C 
ATOM     19  C   UNL     1     -40.709  21.373  -0.452  0.00  0.00    +0.133 C 
ATOM     20  C   UNL     1     -39.977  20.576  -1.527  0.00  0.00    +0.042 C 
ATOM     21  C   UNL     1     -40.087  23.128   1.240  0.00  0.00    -0.006 C 
ATOM     22  C   UNL     1     -39.073  19.519  -0.906  0.00  0.00    +0.072 C 
ATOM     23  C   UNL     1     -38.104  20.116   0.090  0.00  0.00    +0.176 C 
ATOM     24  C   UNL     1     -39.615  24.932   2.888  0.00  0.00    +0.031 C 
BRANCH  18  25
ATOM     25  O   UNL     1     -36.397  21.378   2.001  0.00  0.00    -0.506 OA
ATOM     26  H   UNL     1     -36.305  20.767   2.706  0.00  0.00    +0.292 HD
ENDBRANCH  18  25
BRANCH  19  27
ATOM     27  O   UNL     1     -41.640  20.522   0.211  0.00  0.00    -0.380 OA
ATOM     28  H   UNL     1     -42.184  21.047   0.819  0.00  0.00    +0.211 HD
ENDBRANCH  19  27
ENDBRANCH   2  14
BRANCH   3  29
ATOM     29  O   UNL     1     -35.135  23.855   1.870  0.00  0.00    -0.380 OA
ATOM     30  H   UNL     1     -35.148  22.925   2.146  0.00  0.00    +0.211 HD
ENDBRANCH   3  29
BRANCH   8  31
ATOM     31  O   UNL     1     -34.770  27.167   2.283  0.00  0.00    -0.506 OA
ATOM     32  H   UNL     1     -34.506  26.743   1.490  0.00  0.00    +0.292 HD
ENDBRANCH   8  31
TORSDOF 5
ENDMDL
MODEL 8
REMARK VINA RESULT:      -6.6      6.282      9.058
REMARK  Name = 5273355
REMARK  5 active torsions:
REMARK  status: ('A' for Active; 'I' for Inactive)
REMARK    1  A    between atoms: C_2  and  C_14
REMARK    2  A    between atoms: C_3  and  O_29
REMARK    3  A    between atoms: C_8  and  O_31
REMARK    4  A    between atoms: C_18  and  O_25
REMARK    5  A    between atoms: C_19  and  O_27
REMARK                            x       y       z     vdW  Elec       q    Type
REMARK                         _______ _______ _______ _____ _____    ______ ____
ROOT
ATOM      1  O   UNL     1     -41.095  22.900   0.310  0.00  0.00    -0.291 OA
ATOM      2  C   UNL     1     -39.173  25.604   1.792  0.00  0.00    +0.064 C 
ATOM      3  C   UNL     1     -40.284  26.285   2.612  0.00  0.00    +0.140 C 
ATOM      4  C   UNL     1     -39.492  24.115   1.607  0.00  0.00    +0.076 C 
ATOM      5  C   UNL     1     -41.620  26.093   1.933  0.00  0.00    +0.041 C 
ATOM      6  C   UNL     1     -41.885  24.960   1.146  0.00  0.00    +0.036 C 
ATOM      7  C   UNL     1     -40.843  23.918   0.950  0.00  0.00    +0.173 C 
ATOM      8  C   UNL     1     -42.631  27.048   2.112  0.00  0.00    +0.132 C 
ATOM      9  C   UNL     1     -43.137  24.798   0.539  0.00  0.00    -0.001 C 
ATOM     10  C   UNL     1     -44.129  25.762   0.720  0.00  0.00    -0.019 C 
ATOM     11  C   UNL     1     -43.878  26.884   1.505  0.00  0.00    +0.032 C 
ATOM     12  C   UNL     1     -45.462  25.589   0.074  0.00  0.00    +0.031 C 
ENDROOT
BRANCH   2  14
ATOM     13  O   UNL     1     -36.242  23.594   5.529  0.00  0.00    -0.291 OA
ATOM     14  C   UNL     1     -37.795  25.875   2.374  0.00  0.00    +0.010 C 
ATOM     15  C   UNL     1     -35.260  26.396   3.463  0.00  0.00    +0.010 C 
ATOM     16  C   UNL     1     -37.007  26.894   1.846  0.00  0.00    -0.023 C 
ATOM     17  C   UNL     1     -36.059  25.364   3.981  0.00  0.00    +0.066 C 
ATOM     18  C   UNL     1     -37.324  25.107   3.439  0.00  0.00    +0.132 C 
ATOM     19  C   UNL     1     -33.890  26.688   4.020  0.00  0.00    +0.133 C 
ATOM     20  C   UNL     1     -33.796  26.275   5.485  0.00  0.00    +0.042 C 
ATOM     21  C   UNL     1     -35.746  27.153   2.386  0.00  0.00    -0.006 C 
ATOM     22  C   UNL     1     -34.193  24.816   5.670  0.00  0.00    +0.072 C 
ATOM     23  C   UNL     1     -35.566  24.527   5.106  0.00  0.00    +0.176 C 
ATOM     24  C   UNL     1     -37.490  27.729   0.706  0.00  0.00    +0.031 C 
BRANCH  18  25
ATOM     25  O   UNL     1     -38.133  24.119   3.921  0.00  0.00    -0.506 OA
ATOM     26  H   UNL     1     -39.064  24.203   3.855  0.00  0.00    +0.292 HD
ENDBRANCH  18  25
BRANCH  19  27
ATOM     27  O   UNL     1     -32.891  26.000   3.272  0.00  0.00    -0.380 OA
ATOM     28  H   UNL     1     -32.873  26.341   2.364  0.00  0.00    +0.211 HD
ENDBRANCH  19  27
ENDBRANCH   2  14
BRANCH   3  29
ATOM     29  O   UNL     1     -40.348  25.732   3.925  0.00  0.00    -0.380 OA
ATOM     30  H   UNL     1     -40.199  24.775   3.881  0.00  0.00    +0.211 HD
ENDBRANCH   3  29
BRANCH   8  31
ATOM     31  O   UNL     1     -42.428  28.153   2.885  0.00  0.00    -0.506 OA
ATOM     32  H   UNL     1     -42.899  28.255   3.689  0.00  0.00    +0.292 HD
ENDBRANCH   8  31
TORSDOF 5
ENDMDL
MODEL 9
REMARK VINA RESULT:      -6.6      5.252      8.000
REMARK  Name = 5273355
REMARK  5 active torsions:
REMARK  status: ('A' for Active; 'I' for Inactive)
REMARK    1  A    between atoms: C_2  and  C_14
REMARK    2  A    between atoms: C_3  and  O_29
REMARK    3  A    between atoms: C_8  and  O_31
REMARK    4  A    between atoms: C_18  and  O_25
REMARK    5  A    between atoms: C_19  and  O_27
REMARK                            x       y       z     vdW  Elec       q    Type
REMARK                         _______ _______ _______ _____ _____    ______ ____
ROOT
ATOM      1  O   UNL     1     -42.742  26.790   4.163  0.00  0.00    -0.291 OA
ATOM      2  C   UNL     1     -40.425  25.077   1.947  0.00  0.00    +0.064 C 
ATOM      3  C   UNL     1     -39.954  26.274   1.101  0.00  0.00    +0.140 C 
ATOM      4  C   UNL     1     -40.864  25.556   3.337  0.00  0.00    +0.076 C 
ATOM      5  C   UNL     1     -41.054  27.304   1.002  0.00  0.00    +0.041 C 
ATOM      6  C   UNL     1     -42.001  27.465   2.026  0.00  0.00    +0.036 C 
ATOM      7  C   UNL     1     -41.950  26.608   3.241  0.00  0.00    +0.173 C 
ATOM      8  C   UNL     1     -41.121  28.140  -0.122  0.00  0.00    +0.132 C 
ATOM      9  C   UNL     1     -43.003  28.437   1.917  0.00  0.00    -0.001 C 
ATOM     10  C   UNL     1     -43.060  29.255   0.789  0.00  0.00    -0.019 C 
ATOM     11  C   UNL     1     -42.120  29.108  -0.229  0.00  0.00    +0.032 C 
ATOM     12  C   UNL     1     -44.126  30.291   0.672  0.00  0.00    +0.031 C 
ENDROOT
BRANCH   2  14
ATOM     13  O   UNL     1     -36.392  23.796   4.894  0.00  0.00    -0.291 OA
ATOM     14  C   UNL     1     -39.393  23.961   1.974  0.00  0.00    +0.010 C 
ATOM     15  C   UNL     1     -37.474  21.913   2.001  0.00  0.00    +0.010 C 
ATOM     16  C   UNL     1     -39.441  22.950   1.018  0.00  0.00    -0.023 C 
ATOM     17  C   UNL     1     -37.440  22.933   2.966  0.00  0.00    +0.066 C 
ATOM     18  C   UNL     1     -38.397  23.956   2.949  0.00  0.00    +0.132 C 
ATOM     19  C   UNL     1     -36.463  20.794   2.002  0.00  0.00    +0.133 C 
ATOM     20  C   UNL     1     -35.149  21.244   2.633  0.00  0.00    +0.042 C 
ATOM     21  C   UNL     1     -38.488  21.930   1.032  0.00  0.00    -0.006 C 
ATOM     22  C   UNL     1     -35.377  21.814   4.026  0.00  0.00    +0.072 C 
ATOM     23  C   UNL     1     -36.394  22.933   4.021  0.00  0.00    +0.176 C 
ATOM     24  C   UNL     1     -40.499  22.935  -0.036  0.00  0.00    +0.031 C 
BRANCH  18  25
ATOM     25  O   UNL     1     -38.392  24.968   3.864  0.00  0.00    -0.506 OA
ATOM     26  H   UNL     1     -38.014  24.832   4.710  0.00  0.00    +0.292 HD
ENDBRANCH  18  25
BRANCH  19  27
ATOM     27  O   UNL     1     -36.966  19.669   2.716  0.00  0.00    -0.380 OA
ATOM     28  H   UNL     1     -37.516  19.129   2.126  0.00  0.00    +0.211 HD
ENDBRANCH  19  27
ENDBRANCH   2  14
BRANCH   3  29
ATOM     29  O   UNL     1     -38.803  26.879   1.687  0.00  0.00    -0.380 OA
ATOM     30  H   UNL     1     -38.061  26.836   1.063  0.00  0.00    +0.211 HD
ENDBRANCH   3  29
BRANCH   8  31
ATOM     31  O   UNL     1     -40.210  28.036  -1.133  0.00  0.00    -0.506 OA
ATOM     32  H   UNL     1     -40.087  27.217  -1.570  0.00  0.00    +0.292 HD
ENDBRANCH   8  31
TORSDOF 5
ENDMDL
