MODEL 1
REMARK VINA RESULT:      -6.2      0.000      0.000
REMARK  Name = 51340257
REMARK  5 active torsions:
REMARK  status: ('A' for Active; 'I' for Inactive)
REMARK    1  A    between atoms: C_2  and  N_18
REMARK    2  A    between atoms: C_3  and  O_22
REMARK    3  A    between atoms: C_4  and  N_6
REMARK    4  A    between atoms: C_5  and  C_24
REMARK    5  A    between atoms: C_24  and  O_25
REMARK                            x       y       z     vdW  Elec       q    Type
REMARK                         _______ _______ _______ _____ _____    ______ ____
ROOT
ATOM      1  O   UNL     1     -35.038  24.301   5.829  0.00  0.00    -0.338 OA
ATOM      2  C   UNL     1     -36.175  23.115   4.122  0.00  0.00    -0.004 C 
ATOM      3  C   UNL     1     -36.523  24.590   3.978  0.00  0.00    +0.140 C 
ATOM      4  C   UNL     1     -35.576  25.310   4.948  0.00  0.00    +0.220 C 
ATOM      5  C   UNL     1     -35.720  23.063   5.581  0.00  0.00    +0.129 C 
ENDROOT
BRANCH   4   6
ATOM      6  N   UNL     1     -34.481  26.089   4.249  0.00  0.00    -0.247 N 
ATOM      7  N   UNL     1     -33.279  26.957   2.586  0.00  0.00    -0.242 NA
ATOM      8  N   UNL     1     -33.236  26.938   6.154  0.00  0.00    -0.228 NA
ATOM      9  N   UNL     1     -30.828  28.674   3.129  0.00  0.00    -0.289 N 
ATOM     10  N   UNL     1     -31.332  28.287   5.437  0.00  0.00    -0.228 NA
ATOM     11  C   UNL     1     -33.471  26.791   4.841  0.00  0.00    +0.152 C 
ATOM     12  C   UNL     1     -34.323  26.219   2.895  0.00  0.00    +0.223 C 
ATOM     13  C   UNL     1     -32.736  27.322   3.792  0.00  0.00    +0.140 C 
ATOM     14  C   UNL     1     -31.629  28.095   4.129  0.00  0.00    +0.149 C 
ATOM     15  C   UNL     1     -32.142  27.705   6.354  0.00  0.00    +0.253 C 
ATOM     16  C   UNL     1     -29.679  29.487   3.483  0.00  0.00    +0.114 C 
ATOM     17  C   UNL     1     -31.139  28.475   1.725  0.00  0.00    +0.114 C 
ENDBRANCH   4   6
BRANCH   2  18
ATOM     18  N   UNL     1     -35.120  22.731   3.186  0.00  0.00    +0.385 N 
ATOM     19  H   UNL     1     -35.306  21.793   2.831  0.00  0.00    -0.089 HD
ATOM     20  H   UNL     1     -34.219  22.742   3.665  0.00  0.00    -0.089 HD
ATOM     21  H   UNL     1     -35.100  23.390   2.407  0.00  0.00    -0.089 HD
ENDBRANCH   2  18
BRANCH   3  22
ATOM     22  O   UNL     1     -37.872  24.778   4.413  0.00  0.00    -0.382 OA
ATOM     23  H   UNL     1     -38.015  25.712   4.631  0.00  0.00    +0.210 HD
ENDBRANCH   3  22
BRANCH   5  24
ATOM     24  C   UNL     1     -34.833  21.894   5.974  0.00  0.00    +0.165 C 
BRANCH  24  25
ATOM     25  O   UNL     1     -35.489  20.691   5.617  0.00  0.00    -0.380 OA
ATOM     26  H   UNL     1     -36.291  20.589   6.153  0.00  0.00    +0.211 HD
ENDBRANCH  24  25
ENDBRANCH   5  24
TORSDOF 5
ENDMDL
MODEL 2
REMARK VINA RESULT:      -5.7      1.257      1.300
REMARK  Name = 51340257
REMARK  5 active torsions:
REMARK  status: ('A' for Active; 'I' for Inactive)
REMARK    1  A    between atoms: C_2  and  N_18
REMARK    2  A    between atoms: C_3  and  O_22
REMARK    3  A    between atoms: C_4  and  N_6
REMARK    4  A    between atoms: C_5  and  C_24
REMARK    5  A    between atoms: C_24  and  O_25
REMARK                            x       y       z     vdW  Elec       q    Type
REMARK                         _______ _______ _______ _____ _____    ______ ____
ROOT
ATOM      1  O   UNL     1     -35.588  23.666   4.774  0.00  0.00    -0.338 OA
ATOM      2  C   UNL     1     -36.961  23.393   2.864  0.00  0.00    -0.004 C 
ATOM      3  C   UNL     1     -37.223  24.780   3.433  0.00  0.00    +0.140 C 
ATOM      4  C   UNL     1     -36.140  24.971   4.504  0.00  0.00    +0.220 C 
ATOM      5  C   UNL     1     -36.371  22.682   4.082  0.00  0.00    +0.129 C 
ENDROOT
BRANCH   4   6
ATOM      6  N   UNL     1     -35.070  25.964   4.104  0.00  0.00    -0.247 N 
ATOM      7  N   UNL     1     -33.868  27.324   2.810  0.00  0.00    -0.242 NA
ATOM      8  N   UNL     1     -33.925  26.285   6.223  0.00  0.00    -0.228 NA
ATOM      9  N   UNL     1     -31.529  28.916   3.923  0.00  0.00    -0.289 N 
ATOM     10  N   UNL     1     -32.077  27.863   6.001  0.00  0.00    -0.228 NA
ATOM     11  C   UNL     1     -34.116  26.510   4.914  0.00  0.00    +0.152 C 
ATOM     12  C   UNL     1     -34.881  26.484   2.851  0.00  0.00    +0.223 C 
ATOM     13  C   UNL     1     -33.381  27.350   4.092  0.00  0.00    +0.140 C 
ATOM     14  C   UNL     1     -32.326  28.042   4.681  0.00  0.00    +0.149 C 
ATOM     15  C   UNL     1     -32.880  27.008   6.679  0.00  0.00    +0.253 C 
ATOM     16  C   UNL     1     -30.435  29.643   4.542  0.00  0.00    +0.114 C 
ATOM     17  C   UNL     1     -31.789  29.115   2.509  0.00  0.00    +0.114 C 
ENDBRANCH   4   6
BRANCH   2  18
ATOM     18  N   UNL     1     -36.030  23.455   1.738  0.00  0.00    +0.385 N 
ATOM     19  H   UNL     1     -36.544  23.672   0.884  0.00  0.00    -0.089 HD
ATOM     20  H   UNL     1     -35.561  22.555   1.635  0.00  0.00    -0.089 HD
ATOM     21  H   UNL     1     -35.336  24.183   1.911  0.00  0.00    -0.089 HD
ENDBRANCH   2  18
BRANCH   3  22
ATOM     22  O   UNL     1     -38.508  24.773   4.061  0.00  0.00    -0.382 OA
ATOM     23  H   UNL     1     -38.975  23.955   3.834  0.00  0.00    +0.210 HD
ENDBRANCH   3  22
BRANCH   5  24
ATOM     24  C   UNL     1     -35.530  21.448   3.806  0.00  0.00    +0.165 C 
BRANCH  24  25
ATOM     25  O   UNL     1     -36.310  20.528   3.065  0.00  0.00    -0.380 OA
ATOM     26  H   UNL     1     -35.926  20.418   2.181  0.00  0.00    +0.211 HD
ENDBRANCH  24  25
ENDBRANCH   5  24
TORSDOF 5
ENDMDL
MODEL 3
REMARK VINA RESULT:      -5.7      1.157      2.144
REMARK  Name = 51340257
REMARK  5 active torsions:
REMARK  status: ('A' for Active; 'I' for Inactive)
REMARK    1  A    between atoms: C_2  and  N_18
REMARK    2  A    between atoms: C_3  and  O_22
REMARK    3  A    between atoms: C_4  and  N_6
REMARK    4  A    between atoms: C_5  and  C_24
REMARK    5  A    between atoms: C_24  and  O_25
REMARK                            x       y       z     vdW  Elec       q    Type
REMARK                         _______ _______ _______ _____ _____    ______ ____
ROOT
ATOM      1  O   UNL     1     -35.405  23.741   5.710  0.00  0.00    -0.338 OA
ATOM      2  C   UNL     1     -36.287  23.488   3.526  0.00  0.00    -0.004 C 
ATOM      3  C   UNL     1     -36.644  24.884   4.015  0.00  0.00    +0.140 C 
ATOM      4  C   UNL     1     -35.845  25.057   5.314  0.00  0.00    +0.220 C 
ATOM      5  C   UNL     1     -36.024  22.771   4.851  0.00  0.00    +0.129 C 
ENDROOT
BRANCH   4   6
ATOM      6  N   UNL     1     -34.686  26.022   5.181  0.00  0.00    -0.247 N 
ATOM      7  N   UNL     1     -32.868  27.185   5.738  0.00  0.00    -0.242 NA
ATOM      8  N   UNL     1     -35.005  26.812   2.906  0.00  0.00    -0.228 NA
ATOM      9  N   UNL     1     -31.551  29.104   3.782  0.00  0.00    -0.289 N 
ATOM     10  N   UNL     1     -33.291  28.433   2.282  0.00  0.00    -0.228 NA
ATOM     11  C   UNL     1     -34.366  26.771   4.085  0.00  0.00    +0.152 C 
ATOM     12  C   UNL     1     -33.757  26.305   6.147  0.00  0.00    +0.223 C 
ATOM     13  C   UNL     1     -33.236  27.485   4.451  0.00  0.00    +0.140 C 
ATOM     14  C   UNL     1     -32.697  28.342   3.496  0.00  0.00    +0.149 C 
ATOM     15  C   UNL     1     -34.392  27.673   2.066  0.00  0.00    +0.253 C 
ATOM     16  C   UNL     1     -30.986  29.991   2.781  0.00  0.00    +0.114 C 
ATOM     17  C   UNL     1     -30.907  29.013   5.079  0.00  0.00    +0.114 C 
ENDBRANCH   4   6
BRANCH   2  18
ATOM     18  N   UNL     1     -35.112  23.520   2.657  0.00  0.00    +0.385 N 
ATOM     19  H   UNL     1     -34.517  22.717   2.861  0.00  0.00    -0.089 HD
ATOM     20  H   UNL     1     -34.591  24.382   2.820  0.00  0.00    -0.089 HD
ATOM     21  H   UNL     1     -35.410  23.482   1.681  0.00  0.00    -0.089 HD
ENDBRANCH   2  18
BRANCH   3  22
ATOM     22  O   UNL     1     -38.041  24.912   4.316  0.00  0.00    -0.382 OA
ATOM     23  H   UNL     1     -38.428  24.041   4.139  0.00  0.00    +0.210 HD
ENDBRANCH   3  22
BRANCH   5  24
ATOM     24  C   UNL     1     -35.171  21.516   4.787  0.00  0.00    +0.165 C 
BRANCH  24  25
ATOM     25  O   UNL     1     -35.510  20.685   5.882  0.00  0.00    -0.380 OA
ATOM     26  H   UNL     1     -36.229  21.094   6.388  0.00  0.00    +0.211 HD
ENDBRANCH  24  25
ENDBRANCH   5  24
TORSDOF 5
ENDMDL
MODEL 4
REMARK VINA RESULT:      -5.5      4.288      6.168
REMARK  Name = 51340257
REMARK  5 active torsions:
REMARK  status: ('A' for Active; 'I' for Inactive)
REMARK    1  A    between atoms: C_2  and  N_18
REMARK    2  A    between atoms: C_3  and  O_22
REMARK    3  A    between atoms: C_4  and  N_6
REMARK    4  A    between atoms: C_5  and  C_24
REMARK    5  A    between atoms: C_24  and  O_25
REMARK                            x       y       z     vdW  Elec       q    Type
REMARK                         _______ _______ _______ _____ _____    ______ ____
ROOT
ATOM      1  O   UNL     1     -34.277  19.449   1.716  0.00  0.00    -0.338 OA
ATOM      2  C   UNL     1     -35.161  19.313  -0.478  0.00  0.00    -0.004 C 
ATOM      3  C   UNL     1     -36.326  19.488   0.485  0.00  0.00    +0.140 C 
ATOM      4  C   UNL     1     -35.670  19.807   1.836  0.00  0.00    +0.220 C 
ATOM      5  C   UNL     1     -34.081  18.777   0.463  0.00  0.00    +0.129 C 
ENDROOT
BRANCH   4   6
ATOM      6  N   UNL     1     -35.846  21.249   2.262  0.00  0.00    -0.247 N 
ATOM      7  N   UNL     1     -36.302  23.425   2.112  0.00  0.00    -0.242 NA
ATOM      8  N   UNL     1     -35.256  21.107   4.615  0.00  0.00    -0.228 NA
ATOM      9  N   UNL     1     -36.081  25.263   4.524  0.00  0.00    -0.289 N 
ATOM     10  N   UNL     1     -35.418  23.287   5.701  0.00  0.00    -0.228 NA
ATOM     11  C   UNL     1     -35.647  21.763   3.511  0.00  0.00    +0.152 C 
ATOM     12  C   UNL     1     -36.239  22.285   1.458  0.00  0.00    +0.223 C 
ATOM     13  C   UNL     1     -35.935  23.115   3.397  0.00  0.00    +0.140 C 
ATOM     14  C   UNL     1     -35.808  23.884   4.549  0.00  0.00    +0.149 C 
ATOM     15  C   UNL     1     -35.170  21.955   5.662  0.00  0.00    +0.253 C 
ATOM     16  C   UNL     1     -35.955  26.062   5.730  0.00  0.00    +0.114 C 
ATOM     17  C   UNL     1     -36.500  25.912   3.296  0.00  0.00    +0.114 C 
ENDBRANCH   4   6
BRANCH   2  18
ATOM     18  N   UNL     1     -34.794  20.586  -1.094  0.00  0.00    +0.385 N 
ATOM     19  H   UNL     1     -35.609  21.199  -1.120  0.00  0.00    -0.089 HD
ATOM     20  H   UNL     1     -34.461  20.421  -2.044  0.00  0.00    -0.089 HD
ATOM     21  H   UNL     1     -34.055  21.028  -0.547  0.00  0.00    -0.089 HD
ENDBRANCH   2  18
BRANCH   3  22
ATOM     22  O   UNL     1     -37.020  18.241   0.584  0.00  0.00    -0.382 OA
ATOM     23  H   UNL     1     -36.953  17.904   1.490  0.00  0.00    +0.210 HD
ENDBRANCH   3  22
BRANCH   5  24
ATOM     24  C   UNL     1     -32.642  18.939   0.006  0.00  0.00    +0.165 C 
BRANCH  24  25
ATOM     25  O   UNL     1     -32.156  20.181   0.481  0.00  0.00    -0.380 OA
ATOM     26  H   UNL     1     -32.582  20.393   1.325  0.00  0.00    +0.211 HD
ENDBRANCH  24  25
ENDBRANCH   5  24
TORSDOF 5
ENDMDL
MODEL 5
REMARK VINA RESULT:      -5.4      3.608      6.024
REMARK  Name = 51340257
REMARK  5 active torsions:
REMARK  status: ('A' for Active; 'I' for Inactive)
REMARK    1  A    between atoms: C_2  and  N_18
REMARK    2  A    between atoms: C_3  and  O_22
REMARK    3  A    between atoms: C_4  and  N_6
REMARK    4  A    between atoms: C_5  and  C_24
REMARK    5  A    between atoms: C_24  and  O_25
REMARK                            x       y       z     vdW  Elec       q    Type
REMARK                         _______ _______ _______ _____ _____    ______ ____
ROOT
ATOM      1  O   UNL     1     -36.886  23.487   3.632  0.00  0.00    -0.338 OA
ATOM      2  C   UNL     1     -35.264  23.936   5.299  0.00  0.00    -0.004 C 
ATOM      3  C   UNL     1     -35.374  22.426   5.150  0.00  0.00    +0.140 C 
ATOM      4  C   UNL     1     -36.250  22.221   3.906  0.00  0.00    +0.220 C 
ATOM      5  C   UNL     1     -36.602  24.388   4.713  0.00  0.00    +0.129 C 
ENDROOT
BRANCH   4   6
ATOM      6  N   UNL     1     -35.478  21.707   2.708  0.00  0.00    -0.247 N 
ATOM      7  N   UNL     1     -34.571  20.257   1.280  0.00  0.00    -0.242 NA
ATOM      8  N   UNL     1     -34.780  23.796   1.683  0.00  0.00    -0.228 NA
ATOM      9  N   UNL     1     -32.984  21.194  -1.139  0.00  0.00    -0.289 N 
ATOM     10  N   UNL     1     -33.472  23.396  -0.339  0.00  0.00    -0.228 NA
ATOM     11  C   UNL     1     -34.849  22.458   1.757  0.00  0.00    +0.152 C 
ATOM     12  C   UNL     1     -35.283  20.393   2.378  0.00  0.00    +0.223 C 
ATOM     13  C   UNL     1     -34.292  21.540   0.881  0.00  0.00    +0.140 C 
ATOM     14  C   UNL     1     -33.581  22.053  -0.200  0.00  0.00    +0.149 C 
ATOM     15  C   UNL     1     -34.069  24.172   0.598  0.00  0.00    +0.253 C 
ATOM     16  C   UNL     1     -32.250  21.732  -2.270  0.00  0.00    +0.114 C 
ATOM     17  C   UNL     1     -33.097  19.754  -0.999  0.00  0.00    +0.114 C 
ENDBRANCH   4   6
BRANCH   2  18
ATOM     18  N   UNL     1     -34.117  24.455   4.555  0.00  0.00    +0.385 N 
ATOM     19  H   UNL     1     -34.388  25.306   4.063  0.00  0.00    -0.089 HD
ATOM     20  H   UNL     1     -33.803  23.756   3.882  0.00  0.00    -0.089 HD
ATOM     21  H   UNL     1     -33.358  24.666   5.205  0.00  0.00    -0.089 HD
ENDBRANCH   2  18
BRANCH   3  22
ATOM     22  O   UNL     1     -36.058  21.910   6.295  0.00  0.00    -0.382 OA
ATOM     23  H   UNL     1     -36.629  21.174   6.027  0.00  0.00    +0.210 HD
ENDBRANCH   3  22
BRANCH   5  24
ATOM     24  C   UNL     1     -36.681  25.824   4.226  0.00  0.00    +0.165 C 
BRANCH  24  25
ATOM     25  O   UNL     1     -36.349  26.683   5.302  0.00  0.00    -0.380 OA
ATOM     26  H   UNL     1     -36.094  26.152   6.072  0.00  0.00    +0.211 HD
ENDBRANCH  24  25
ENDBRANCH   5  24
TORSDOF 5
ENDMDL
MODEL 6
REMARK VINA RESULT:      -5.4      1.808      3.334
REMARK  Name = 51340257
REMARK  5 active torsions:
REMARK  status: ('A' for Active; 'I' for Inactive)
REMARK    1  A    between atoms: C_2  and  N_18
REMARK    2  A    between atoms: C_3  and  O_22
REMARK    3  A    between atoms: C_4  and  N_6
REMARK    4  A    between atoms: C_5  and  C_24
REMARK    5  A    between atoms: C_24  and  O_25
REMARK                            x       y       z     vdW  Elec       q    Type
REMARK                         _______ _______ _______ _____ _____    ______ ____
ROOT
ATOM      1  O   UNL     1     -34.806  24.678   3.139  0.00  0.00    -0.338 OA
ATOM      2  C   UNL     1     -36.952  24.778   4.138  0.00  0.00    -0.004 C 
ATOM      3  C   UNL     1     -35.940  24.475   5.234  0.00  0.00    +0.140 C 
ATOM      4  C   UNL     1     -34.572  24.664   4.563  0.00  0.00    +0.220 C 
ATOM      5  C   UNL     1     -36.179  24.336   2.895  0.00  0.00    +0.129 C 
ENDROOT
BRANCH   4   6
ATOM      6  N   UNL     1     -33.843  25.908   5.026  0.00  0.00    -0.247 N 
ATOM      7  N   UNL     1     -32.929  27.391   6.416  0.00  0.00    -0.242 NA
ATOM      8  N   UNL     1     -33.357  26.974   2.898  0.00  0.00    -0.228 NA
ATOM      9  N   UNL     1     -31.564  29.903   5.380  0.00  0.00    -0.289 N 
ATOM     10  N   UNL     1     -32.152  29.073   3.214  0.00  0.00    -0.228 NA
ATOM     11  C   UNL     1     -33.327  26.895   4.237  0.00  0.00    +0.152 C 
ATOM     12  C   UNL     1     -33.578  26.250   6.325  0.00  0.00    +0.223 C 
ATOM     13  C   UNL     1     -32.765  27.806   5.118  0.00  0.00    +0.140 C 
ATOM     14  C   UNL     1     -32.161  28.929   4.561  0.00  0.00    +0.149 C 
ATOM     15  C   UNL     1     -32.743  28.100   2.478  0.00  0.00    +0.253 C 
ATOM     16  C   UNL     1     -30.927  31.069   4.796  0.00  0.00    +0.114 C 
ATOM     17  C   UNL     1     -31.566  29.757   6.824  0.00  0.00    +0.114 C 
ENDBRANCH   4   6
BRANCH   2  18
ATOM     18  N   UNL     1     -37.293  26.200   4.117  0.00  0.00    +0.385 N 
ATOM     19  H   UNL     1     -36.467  26.743   3.867  0.00  0.00    -0.089 HD
ATOM     20  H   UNL     1     -37.623  26.484   5.039  0.00  0.00    -0.089 HD
ATOM     21  H   UNL     1     -38.028  26.362   3.428  0.00  0.00    -0.089 HD
ENDBRANCH   2  18
BRANCH   3  22
ATOM     22  O   UNL     1     -36.089  23.107   5.618  0.00  0.00    -0.382 OA
ATOM     23  H   UNL     1     -35.292  22.613   5.374  0.00  0.00    +0.210 HD
ENDBRANCH   3  22
BRANCH   5  24
ATOM     24  C   UNL     1     -36.632  24.923   1.569  0.00  0.00    +0.165 C 
BRANCH  24  25
ATOM     25  O   UNL     1     -35.979  26.164   1.379  0.00  0.00    -0.380 OA
ATOM     26  H   UNL     1     -36.556  26.759   0.876  0.00  0.00    +0.211 HD
ENDBRANCH  24  25
ENDBRANCH   5  24
TORSDOF 5
ENDMDL
MODEL 7
REMARK VINA RESULT:      -5.4      3.525      4.289
REMARK  Name = 51340257
REMARK  5 active torsions:
REMARK  status: ('A' for Active; 'I' for Inactive)
REMARK    1  A    between atoms: C_2  and  N_18
REMARK    2  A    between atoms: C_3  and  O_22
REMARK    3  A    between atoms: C_4  and  N_6
REMARK    4  A    between atoms: C_5  and  C_24
REMARK    5  A    between atoms: C_24  and  O_25
REMARK                            x       y       z     vdW  Elec       q    Type
REMARK                         _______ _______ _______ _____ _____    ______ ____
ROOT
ATOM      1  O   UNL     1     -34.621  25.045   3.205  0.00  0.00    -0.338 OA
ATOM      2  C   UNL     1     -35.987  24.874   5.133  0.00  0.00    -0.004 C 
ATOM      3  C   UNL     1     -35.306  26.235   5.162  0.00  0.00    +0.140 C 
ATOM      4  C   UNL     1     -34.642  26.366   3.784  0.00  0.00    +0.220 C 
ATOM      5  C   UNL     1     -35.059  24.101   4.194  0.00  0.00    +0.129 C 
ENDROOT
BRANCH   4   6
ATOM      6  N   UNL     1     -35.329  27.367   2.880  0.00  0.00    -0.247 N 
ATOM      7  N   UNL     1     -36.743  28.171   1.356  0.00  0.00    -0.242 NA
ATOM      8  N   UNL     1     -34.127  29.401   3.448  0.00  0.00    -0.228 NA
ATOM      9  N   UNL     1     -36.734  31.111   0.578  0.00  0.00    -0.289 N 
ATOM     10  N   UNL     1     -34.958  31.307   2.170  0.00  0.00    -0.228 NA
ATOM     11  C   UNL     1     -35.055  28.701   2.777  0.00  0.00    +0.152 C 
ATOM     12  C   UNL     1     -36.350  27.097   2.008  0.00  0.00    +0.223 C 
ATOM     13  C   UNL     1     -35.943  29.181   1.827  0.00  0.00    +0.140 C 
ATOM     14  C   UNL     1     -35.872  30.538   1.529  0.00  0.00    +0.149 C 
ATOM     15  C   UNL     1     -34.155  30.698   3.076  0.00  0.00    +0.253 C 
ATOM     16  C   UNL     1     -36.664  32.529   0.276  0.00  0.00    +0.114 C 
ATOM     17  C   UNL     1     -37.717  30.296  -0.113  0.00  0.00    +0.114 C 
ENDBRANCH   4   6
BRANCH   2  18
ATOM     18  N   UNL     1     -37.351  24.980   4.619  0.00  0.00    +0.385 N 
ATOM     19  H   UNL     1     -37.994  25.148   5.393  0.00  0.00    -0.089 HD
ATOM     20  H   UNL     1     -37.605  24.112   4.147  0.00  0.00    -0.089 HD
ATOM     21  H   UNL     1     -37.406  25.755   3.958  0.00  0.00    -0.089 HD
ENDBRANCH   2  18
BRANCH   3  22
ATOM     22  O   UNL     1     -34.294  26.210   6.171  0.00  0.00    -0.382 OA
ATOM     23  H   UNL     1     -34.580  26.743   6.929  0.00  0.00    +0.210 HD
ENDBRANCH   3  22
BRANCH   5  24
ATOM     24  C   UNL     1     -35.645  22.874   3.519  0.00  0.00    +0.165 C 
BRANCH  24  25
ATOM     25  O   UNL     1     -36.444  22.181   4.460  0.00  0.00    -0.380 OA
ATOM     26  H   UNL     1     -37.362  22.488   4.392  0.00  0.00    +0.211 HD
ENDBRANCH  24  25
ENDBRANCH   5  24
TORSDOF 5
ENDMDL
MODEL 8
REMARK VINA RESULT:      -5.4      3.794      6.397
REMARK  Name = 51340257
REMARK  5 active torsions:
REMARK  status: ('A' for Active; 'I' for Inactive)
REMARK    1  A    between atoms: C_2  and  N_18
REMARK    2  A    between atoms: C_3  and  O_22
REMARK    3  A    between atoms: C_4  and  N_6
REMARK    4  A    between atoms: C_5  and  C_24
REMARK    5  A    between atoms: C_24  and  O_25
REMARK                            x       y       z     vdW  Elec       q    Type
REMARK                         _______ _______ _______ _____ _____    ______ ____
ROOT
ATOM      1  O   UNL     1     -35.660  26.385   5.415  0.00  0.00    -0.338 OA
ATOM      2  C   UNL     1     -34.245  24.595   4.779  0.00  0.00    -0.004 C 
ATOM      3  C   UNL     1     -35.685  24.131   4.619  0.00  0.00    +0.140 C 
ATOM      4  C   UNL     1     -36.526  25.401   4.813  0.00  0.00    +0.220 C 
ATOM      5  C   UNL     1     -34.417  25.755   5.760  0.00  0.00    +0.129 C 
ENDROOT
BRANCH   4   6
ATOM      6  N   UNL     1     -37.150  25.909   3.530  0.00  0.00    -0.247 N 
ATOM      7  N   UNL     1     -37.402  27.106   1.667  0.00  0.00    -0.242 NA
ATOM      8  N   UNL     1     -39.170  24.561   3.437  0.00  0.00    -0.228 NA
ATOM      9  N   UNL     1     -39.821  26.739  -0.139  0.00  0.00    -0.289 N 
ATOM     10  N   UNL     1     -40.496  25.089   1.457  0.00  0.00    -0.228 NA
ATOM     11  C   UNL     1     -38.326  25.495   2.972  0.00  0.00    +0.152 C 
ATOM     12  C   UNL     1     -36.633  26.875   2.710  0.00  0.00    +0.223 C 
ATOM     13  C   UNL     1     -38.464  26.250   1.817  0.00  0.00    +0.140 C 
ATOM     14  C   UNL     1     -39.600  26.020   1.048  0.00  0.00    +0.149 C 
ATOM     15  C   UNL     1     -40.228  24.428   2.609  0.00  0.00    +0.253 C 
ATOM     16  C   UNL     1     -41.003  26.491  -0.944  0.00  0.00    +0.114 C 
ATOM     17  C   UNL     1     -38.867  27.737  -0.587  0.00  0.00    +0.114 C 
ENDBRANCH   4   6
BRANCH   2  18
ATOM     18  N   UNL     1     -33.683  25.018   3.497  0.00  0.00    +0.385 N 
ATOM     19  H   UNL     1     -34.370  24.866   2.758  0.00  0.00    -0.089 HD
ATOM     20  H   UNL     1     -32.843  24.476   3.298  0.00  0.00    -0.089 HD
ATOM     21  H   UNL     1     -33.446  26.010   3.540  0.00  0.00    -0.089 HD
ENDBRANCH   2  18
BRANCH   3  22
ATOM     22  O   UNL     1     -35.980  23.208   5.669  0.00  0.00    -0.382 OA
ATOM     23  H   UNL     1     -36.476  22.456   5.310  0.00  0.00    +0.210 HD
ENDBRANCH   3  22
BRANCH   5  24
ATOM     24  C   UNL     1     -33.304  26.787   5.795  0.00  0.00    +0.165 C 
BRANCH  24  25
ATOM     25  O   UNL     1     -33.524  27.722   4.755  0.00  0.00    -0.380 OA
ATOM     26  H   UNL     1     -33.859  27.260   3.971  0.00  0.00    +0.211 HD
ENDBRANCH  24  25
ENDBRANCH   5  24
TORSDOF 5
ENDMDL
MODEL 9
REMARK VINA RESULT:      -5.4      3.553      5.882
REMARK  Name = 51340257
REMARK  5 active torsions:
REMARK  status: ('A' for Active; 'I' for Inactive)
REMARK    1  A    between atoms: C_2  and  N_18
REMARK    2  A    between atoms: C_3  and  O_22
REMARK    3  A    between atoms: C_4  and  N_6
REMARK    4  A    between atoms: C_5  and  C_24
REMARK    5  A    between atoms: C_24  and  O_25
REMARK                            x       y       z     vdW  Elec       q    Type
REMARK                         _______ _______ _______ _____ _____    ______ ____
ROOT
ATOM      1  O   UNL     1     -34.866  24.204   3.621  0.00  0.00    -0.338 OA
ATOM      2  C   UNL     1     -34.815  25.583   5.547  0.00  0.00    -0.004 C 
ATOM      3  C   UNL     1     -34.336  26.413   4.365  0.00  0.00    +0.140 C 
ATOM      4  C   UNL     1     -34.623  25.541   3.135  0.00  0.00    +0.220 C 
ATOM      5  C   UNL     1     -34.574  24.165   5.026  0.00  0.00    +0.129 C 
ENDROOT
BRANCH   4   6
ATOM      6  N   UNL     1     -35.773  26.052   2.293  0.00  0.00    -0.247 N 
ATOM      7  N   UNL     1     -36.846  27.159   0.684  0.00  0.00    -0.242 NA
ATOM      8  N   UNL     1     -37.658  24.990   3.398  0.00  0.00    -0.228 NA
ATOM      9  N   UNL     1     -39.871  27.019   0.408  0.00  0.00    -0.289 N 
ATOM     10  N   UNL     1     -39.765  25.575   2.314  0.00  0.00    -0.228 NA
ATOM     11  C   UNL     1     -37.098  25.770   2.461  0.00  0.00    +0.152 C 
ATOM     12  C   UNL     1     -35.672  26.888   1.214  0.00  0.00    +0.223 C 
ATOM     13  C   UNL     1     -37.747  26.467   1.453  0.00  0.00    +0.140 C 
ATOM     14  C   UNL     1     -39.133  26.349   1.399  0.00  0.00    +0.149 C 
ATOM     15  C   UNL     1     -38.999  24.953   3.243  0.00  0.00    +0.253 C 
ATOM     16  C   UNL     1     -41.316  26.888   0.349  0.00  0.00    +0.114 C 
ATOM     17  C   UNL     1     -39.203  27.849  -0.577  0.00  0.00    +0.114 C 
ENDBRANCH   4   6
BRANCH   2  18
ATOM     18  N   UNL     1     -36.223  25.847   5.838  0.00  0.00    +0.385 N 
ATOM     19  H   UNL     1     -36.303  26.285   6.756  0.00  0.00    -0.089 HD
ATOM     20  H   UNL     1     -36.742  24.969   5.833  0.00  0.00    -0.089 HD
ATOM     21  H   UNL     1     -36.605  26.473   5.128  0.00  0.00    -0.089 HD
ENDBRANCH   2  18
BRANCH   3  22
ATOM     22  O   UNL     1     -32.924  26.599   4.489  0.00  0.00    -0.382 OA
ATOM     23  H   UNL     1     -32.478  26.221   3.716  0.00  0.00    +0.210 HD
ENDBRANCH   3  22
BRANCH   5  24
ATOM     24  C   UNL     1     -35.368  23.054   5.691  0.00  0.00    +0.165 C 
BRANCH  24  25
ATOM     25  O   UNL     1     -36.488  22.753   4.879  0.00  0.00    -0.380 OA
ATOM     26  H   UNL     1     -37.303  22.952   5.366  0.00  0.00    +0.211 HD
ENDBRANCH  24  25
ENDBRANCH   5  24
TORSDOF 5
ENDMDL
