MODEL 1
REMARK VINA RESULT:      -5.9      0.000      0.000
REMARK  Name = 2071
REMARK  5 active torsions:
REMARK  status: ('A' for Active; 'I' for Inactive)
REMARK    1  A    between atoms: C_1  and  N_10
REMARK    2  A    between atoms: C_1  and  C_15
REMARK    3  A    between atoms: C_8  and  C_19
REMARK    4  A    between atoms: C_15  and  O_16
REMARK    5  A    between atoms: C_19  and  O_20
REMARK                            x       y       z     vdW  Elec       q    Type
REMARK                         _______ _______ _______ _____ _____    ______ ____
ROOT
ATOM      1  C   UNL     1     -35.365  25.427   4.599  0.00  0.00    +0.062 C 
ATOM      2  C   UNL     1     -34.865  24.856   5.947  0.00  0.00    -0.001 C 
ATOM      3  C   UNL     1     -35.365  23.405   6.028  0.00  0.00    +0.025 C 
ATOM      4  C   UNL     1     -35.421  24.174   3.764  0.00  0.00    -0.035 C 
ATOM      5  C   UNL     1     -35.414  23.033   4.580  0.00  0.00    -0.027 C 
ATOM      6  C   UNL     1     -35.512  24.055   2.385  0.00  0.00    -0.006 C 
ATOM      7  C   UNL     1     -35.499  21.761   4.036  0.00  0.00    +0.002 C 
ATOM      8  C   UNL     1     -35.577  21.638   2.648  0.00  0.00    +0.075 C 
ATOM      9  C   UNL     1     -35.584  22.776   1.828  0.00  0.00    +0.006 C 
ENDROOT
BRANCH   1  10
ATOM     10  N   UNL     1     -36.670  26.067   4.731  0.00  0.00    +0.392 N 
ATOM     11  H   UNL     1     -37.307  25.442   5.224  0.00  0.00    -0.088 HD
ATOM     12  H   UNL     1     -37.044  26.272   3.805  0.00  0.00    -0.088 HD
ATOM     13  H   UNL     1     -36.570  26.936   5.257  0.00  0.00    -0.088 HD
ENDBRANCH   1  10
BRANCH   1  15
ATOM     14  O   UNL     1     -33.197  26.277   3.961  0.00  0.00    -0.252 OA
ATOM     15  C   UNL     1     -34.400  26.450   4.088  0.00  0.00    +0.298 C 
BRANCH  15  16
ATOM     16  O   UNL     1     -35.042  27.604   3.784  0.00  0.00    -0.481 OA
ATOM     17  H   UNL     1     -35.979  27.637   3.798  0.00  0.00    +0.295 HD
ENDBRANCH  15  16
ENDBRANCH   1  15
BRANCH   8  19
ATOM     18  O   UNL     1     -34.815  19.842   1.263  0.00  0.00    -0.245 OA
ATOM     19  C   UNL     1     -35.646  20.315   2.045  0.00  0.00    +0.338 C 
BRANCH  19  20
ATOM     20  O   UNL     1     -36.750  19.622   2.437  0.00  0.00    -0.477 OA
ATOM     21  H   UNL     1     -37.558  20.072   2.585  0.00  0.00    +0.295 HD
ENDBRANCH  19  20
ENDBRANCH   8  19
TORSDOF 5
ENDMDL
MODEL 2
REMARK VINA RESULT:      -5.7      2.055      5.615
REMARK  Name = 2071
REMARK  5 active torsions:
REMARK  status: ('A' for Active; 'I' for Inactive)
REMARK    1  A    between atoms: C_1  and  N_10
REMARK    2  A    between atoms: C_1  and  C_15
REMARK    3  A    between atoms: C_8  and  C_19
REMARK    4  A    between atoms: C_15  and  O_16
REMARK    5  A    between atoms: C_19  and  O_20
REMARK                            x       y       z     vdW  Elec       q    Type
REMARK                         _______ _______ _______ _____ _____    ______ ____
ROOT
ATOM      1  C   UNL     1     -35.847  23.173   4.112  0.00  0.00    +0.062 C 
ATOM      2  C   UNL     1     -35.243  22.693   2.771  0.00  0.00    -0.001 C 
ATOM      3  C   UNL     1     -34.703  23.940   2.054  0.00  0.00    +0.025 C 
ATOM      4  C   UNL     1     -34.999  24.388   4.385  0.00  0.00    -0.035 C 
ATOM      5  C   UNL     1     -34.349  24.813   3.216  0.00  0.00    -0.027 C 
ATOM      6  C   UNL     1     -34.846  25.090   5.572  0.00  0.00    -0.006 C 
ATOM      7  C   UNL     1     -33.541  25.939   3.213  0.00  0.00    +0.002 C 
ATOM      8  C   UNL     1     -33.376  26.640   4.409  0.00  0.00    +0.075 C 
ATOM      9  C   UNL     1     -34.023  26.219   5.579  0.00  0.00    +0.006 C 
ENDROOT
BRANCH   1  10
ATOM     10  N   UNL     1     -37.263  23.500   3.983  0.00  0.00    +0.392 N 
ATOM     11  H   UNL     1     -37.820  22.653   4.100  0.00  0.00    -0.088 HD
ATOM     12  H   UNL     1     -37.438  23.896   3.059  0.00  0.00    -0.088 HD
ATOM     13  H   UNL     1     -37.522  24.179   4.699  0.00  0.00    -0.088 HD
ENDBRANCH   1  10
BRANCH   1  15
ATOM     14  O   UNL     1     -35.944  22.243   6.338  0.00  0.00    -0.252 OA
ATOM     15  C   UNL     1     -35.714  22.101   5.146  0.00  0.00    +0.298 C 
BRANCH  15  16
ATOM     16  O   UNL     1     -35.297  20.941   4.582  0.00  0.00    -0.481 OA
ATOM     17  H   UNL     1     -35.925  20.322   4.263  0.00  0.00    +0.295 HD
ENDBRANCH  15  16
ENDBRANCH   1  15
BRANCH   8  19
ATOM     18  O   UNL     1     -31.284  27.797   4.516  0.00  0.00    -0.245 OA
ATOM     19  C   UNL     1     -32.518  27.814   4.443  0.00  0.00    +0.338 C 
BRANCH  19  20
ATOM     20  O   UNL     1     -33.224  28.976   4.383  0.00  0.00    -0.477 OA
ATOM     21  H   UNL     1     -34.086  28.982   4.018  0.00  0.00    +0.295 HD
ENDBRANCH  19  20
ENDBRANCH   8  19
TORSDOF 5
ENDMDL
MODEL 3
REMARK VINA RESULT:      -5.6      1.681      5.547
REMARK  Name = 2071
REMARK  5 active torsions:
REMARK  status: ('A' for Active; 'I' for Inactive)
REMARK    1  A    between atoms: C_1  and  N_10
REMARK    2  A    between atoms: C_1  and  C_15
REMARK    3  A    between atoms: C_8  and  C_19
REMARK    4  A    between atoms: C_15  and  O_16
REMARK    5  A    between atoms: C_19  and  O_20
REMARK                            x       y       z     vdW  Elec       q    Type
REMARK                         _______ _______ _______ _____ _____    ______ ____
ROOT
ATOM      1  C   UNL     1     -36.395  21.946   2.469  0.00  0.00    +0.062 C 
ATOM      2  C   UNL     1     -35.919  22.457   1.089  0.00  0.00    -0.001 C 
ATOM      3  C   UNL     1     -35.744  23.979   1.214  0.00  0.00    +0.025 C 
ATOM      4  C   UNL     1     -35.767  22.967   3.381  0.00  0.00    -0.035 C 
ATOM      5  C   UNL     1     -35.395  24.113   2.662  0.00  0.00    -0.027 C 
ATOM      6  C   UNL     1     -35.576  22.902   4.754  0.00  0.00    -0.006 C 
ATOM      7  C   UNL     1     -34.830  25.207   3.298  0.00  0.00    +0.002 C 
ATOM      8  C   UNL     1     -34.625  25.139   4.678  0.00  0.00    +0.075 C 
ATOM      9  C   UNL     1     -34.995  23.995   5.400  0.00  0.00    +0.006 C 
ENDROOT
BRANCH   1  10
ATOM     10  N   UNL     1     -37.851  21.930   2.569  0.00  0.00    +0.392 N 
ATOM     11  H   UNL     1     -38.254  22.367   1.740  0.00  0.00    -0.088 HD
ATOM     12  H   UNL     1     -38.141  22.447   3.399  0.00  0.00    -0.088 HD
ATOM     13  H   UNL     1     -38.177  20.966   2.638  0.00  0.00    -0.088 HD
ENDBRANCH   1  10
BRANCH   1  15
ATOM     14  O   UNL     1     -34.735  20.240   2.875  0.00  0.00    -0.252 OA
ATOM     15  C   UNL     1     -35.903  20.551   2.695  0.00  0.00    +0.298 C 
BRANCH  15  16
ATOM     16  O   UNL     1     -36.933  19.670   2.671  0.00  0.00    -0.481 OA
ATOM     17  H   UNL     1     -37.027  19.079   1.950  0.00  0.00    +0.295 HD
ENDBRANCH  15  16
ENDBRANCH   1  15
BRANCH   8  19
ATOM     18  O   UNL     1     -33.667  26.269   6.557  0.00  0.00    -0.245 OA
ATOM     19  C   UNL     1     -34.015  26.263   5.371  0.00  0.00    +0.338 C 
BRANCH  19  20
ATOM     20  O   UNL     1     -33.855  27.348   4.565  0.00  0.00    -0.477 OA
ATOM     21  H   UNL     1     -34.592  27.885   4.350  0.00  0.00    +0.295 HD
ENDBRANCH  19  20
ENDBRANCH   8  19
TORSDOF 5
ENDMDL
MODEL 4
REMARK VINA RESULT:      -5.3      2.288      3.520
REMARK  Name = 2071
REMARK  5 active torsions:
REMARK  status: ('A' for Active; 'I' for Inactive)
REMARK    1  A    between atoms: C_1  and  N_10
REMARK    2  A    between atoms: C_1  and  C_15
REMARK    3  A    between atoms: C_8  and  C_19
REMARK    4  A    between atoms: C_15  and  O_16
REMARK    5  A    between atoms: C_19  and  O_20
REMARK                            x       y       z     vdW  Elec       q    Type
REMARK                         _______ _______ _______ _____ _____    ______ ____
ROOT
ATOM      1  C   UNL     1     -34.102  26.684   2.648  0.00  0.00    +0.062 C 
ATOM      2  C   UNL     1     -34.763  26.185   1.342  0.00  0.00    -0.001 C 
ATOM      3  C   UNL     1     -34.773  24.650   1.406  0.00  0.00    +0.025 C 
ATOM      4  C   UNL     1     -34.465  25.568   3.593  0.00  0.00    -0.035 C 
ATOM      5  C   UNL     1     -34.850  24.421   2.882  0.00  0.00    -0.027 C 
ATOM      6  C   UNL     1     -34.418  25.556   4.979  0.00  0.00    -0.006 C 
ATOM      7  C   UNL     1     -35.191  23.250   3.540  0.00  0.00    +0.002 C 
ATOM      8  C   UNL     1     -35.158  23.240   4.936  0.00  0.00    +0.075 C 
ATOM      9  C   UNL     1     -34.774  24.384   5.650  0.00  0.00    +0.006 C 
ENDROOT
BRANCH   1  10
ATOM     10  N   UNL     1     -32.659  26.842   2.500  0.00  0.00    +0.392 N 
ATOM     11  H   UNL     1     -32.210  26.737   3.409  0.00  0.00    -0.088 HD
ATOM     12  H   UNL     1     -32.455  27.769   2.125  0.00  0.00    -0.088 HD
ATOM     13  H   UNL     1     -32.303  26.131   1.860  0.00  0.00    -0.088 HD
ENDBRANCH   1  10
BRANCH   1  15
ATOM     14  O   UNL     1     -34.068  28.887   3.638  0.00  0.00    -0.252 OA
ATOM     15  C   UNL     1     -34.673  28.012   3.036  0.00  0.00    +0.298 C 
BRANCH  15  16
ATOM     16  O   UNL     1     -35.963  28.115   2.632  0.00  0.00    -0.481 OA
ATOM     17  H   UNL     1     -36.163  28.200   1.721  0.00  0.00    +0.295 HD
ENDBRANCH  15  16
ENDBRANCH   1  15
BRANCH   8  19
ATOM     18  O   UNL     1     -36.109  22.000   6.748  0.00  0.00    -0.245 OA
ATOM     19  C   UNL     1     -35.531  22.032   5.656  0.00  0.00    +0.338 C 
BRANCH  19  20
ATOM     20  O   UNL     1     -35.173  20.899   4.992  0.00  0.00    -0.477 OA
ATOM     21  H   UNL     1     -35.113  20.902   4.058  0.00  0.00    +0.295 HD
ENDBRANCH  19  20
ENDBRANCH   8  19
TORSDOF 5
ENDMDL
MODEL 5
REMARK VINA RESULT:      -5.3      1.518      2.411
REMARK  Name = 2071
REMARK  5 active torsions:
REMARK  status: ('A' for Active; 'I' for Inactive)
REMARK    1  A    between atoms: C_1  and  N_10
REMARK    2  A    between atoms: C_1  and  C_15
REMARK    3  A    between atoms: C_8  and  C_19
REMARK    4  A    between atoms: C_15  and  O_16
REMARK    5  A    between atoms: C_19  and  O_20
REMARK                            x       y       z     vdW  Elec       q    Type
REMARK                         _______ _______ _______ _____ _____    ______ ____
ROOT
ATOM      1  C   UNL     1     -35.058  25.509   3.884  0.00  0.00    +0.062 C 
ATOM      2  C   UNL     1     -35.244  26.129   2.479  0.00  0.00    -0.001 C 
ATOM      3  C   UNL     1     -34.783  25.074   1.462  0.00  0.00    +0.025 C 
ATOM      4  C   UNL     1     -35.239  24.046   3.573  0.00  0.00    -0.035 C 
ATOM      5  C   UNL     1     -35.088  23.808   2.198  0.00  0.00    -0.027 C 
ATOM      6  C   UNL     1     -35.478  22.997   4.448  0.00  0.00    -0.006 C 
ATOM      7  C   UNL     1     -35.172  22.526   1.678  0.00  0.00    +0.002 C 
ATOM      8  C   UNL     1     -35.426  21.470   2.555  0.00  0.00    +0.075 C 
ATOM      9  C   UNL     1     -35.578  21.704   3.930  0.00  0.00    +0.006 C 
ENDROOT
BRANCH   1  10
ATOM     10  N   UNL     1     -33.740  25.803   4.437  0.00  0.00    +0.392 N 
ATOM     11  H   UNL     1     -33.479  25.074   5.100  0.00  0.00    -0.088 HD
ATOM     12  H   UNL     1     -33.764  26.704   4.914  0.00  0.00    -0.088 HD
ATOM     13  H   UNL     1     -33.055  25.837   3.682  0.00  0.00    -0.088 HD
ENDBRANCH   1  10
BRANCH   1  15
ATOM     14  O   UNL     1     -35.898  26.285   6.011  0.00  0.00    -0.252 OA
ATOM     15  C   UNL     1     -36.085  26.056   4.825  0.00  0.00    +0.298 C 
BRANCH  15  16
ATOM     16  O   UNL     1     -37.260  26.264   4.182  0.00  0.00    -0.481 OA
ATOM     17  H   UNL     1     -37.481  27.121   3.874  0.00  0.00    +0.295 HD
ENDBRANCH  15  16
ENDBRANCH   1  15
BRANCH   8  19
ATOM     18  O   UNL     1     -34.665  19.514   1.406  0.00  0.00    -0.245 OA
ATOM     19  C   UNL     1     -35.541  20.116   2.037  0.00  0.00    +0.338 C 
BRANCH  19  20
ATOM     20  O   UNL     1     -36.746  19.550   2.323  0.00  0.00    -0.477 OA
ATOM     21  H   UNL     1     -37.334  19.974   2.917  0.00  0.00    +0.295 HD
ENDBRANCH  19  20
ENDBRANCH   8  19
TORSDOF 5
ENDMDL
MODEL 6
REMARK VINA RESULT:      -5.2      2.819      6.435
REMARK  Name = 2071
REMARK  5 active torsions:
REMARK  status: ('A' for Active; 'I' for Inactive)
REMARK    1  A    between atoms: C_1  and  N_10
REMARK    2  A    between atoms: C_1  and  C_15
REMARK    3  A    between atoms: C_8  and  C_19
REMARK    4  A    between atoms: C_15  and  O_16
REMARK    5  A    between atoms: C_19  and  O_20
REMARK                            x       y       z     vdW  Elec       q    Type
REMARK                         _______ _______ _______ _____ _____    ______ ____
ROOT
ATOM      1  C   UNL     1     -35.540  25.647   4.211  0.00  0.00    +0.062 C 
ATOM      2  C   UNL     1     -35.185  25.930   2.732  0.00  0.00    -0.001 C 
ATOM      3  C   UNL     1     -34.410  27.257   2.706  0.00  0.00    +0.025 C 
ATOM      4  C   UNL     1     -34.397  26.333   4.912  0.00  0.00    -0.035 C 
ATOM      5  C   UNL     1     -33.758  27.239   4.052  0.00  0.00    -0.027 C 
ATOM      6  C   UNL     1     -33.979  26.195   6.228  0.00  0.00    -0.006 C 
ATOM      7  C   UNL     1     -32.698  28.018   4.489  0.00  0.00    +0.002 C 
ATOM      8  C   UNL     1     -32.267  27.871   5.809  0.00  0.00    +0.075 C 
ATOM      9  C   UNL     1     -32.903  26.967   6.672  0.00  0.00    +0.006 C 
ENDROOT
BRANCH   1  10
ATOM     10  N   UNL     1     -36.836  26.210   4.575  0.00  0.00    +0.392 N 
ATOM     11  H   UNL     1     -36.696  27.070   5.106  0.00  0.00    -0.088 HD
ATOM     12  H   UNL     1     -37.351  25.539   5.144  0.00  0.00    -0.088 HD
ATOM     13  H   UNL     1     -37.367  26.416   3.728  0.00  0.00    -0.088 HD
ENDBRANCH   1  10
BRANCH   1  15
ATOM     14  O   UNL     1     -36.221  23.629   5.350  0.00  0.00    -0.252 OA
ATOM     15  C   UNL     1     -35.595  24.171   4.450  0.00  0.00    +0.298 C 
BRANCH  15  16
ATOM     16  O   UNL     1     -34.851  23.509   3.531  0.00  0.00    -0.481 OA
ATOM     17  H   UNL     1     -34.918  23.733   2.624  0.00  0.00    +0.295 HD
ENDBRANCH  15  16
ENDBRANCH   1  15
BRANCH   8  19
ATOM     18  O   UNL     1     -30.043  28.751   5.737  0.00  0.00    -0.245 OA
ATOM     19  C   UNL     1     -31.144  28.660   6.291  0.00  0.00    +0.338 C 
BRANCH  19  20
ATOM     20  O   UNL     1     -31.427  29.314   7.451  0.00  0.00    -0.477 OA
ATOM     21  H   UNL     1     -32.071  29.993   7.460  0.00  0.00    +0.295 HD
ENDBRANCH  19  20
ENDBRANCH   8  19
TORSDOF 5
ENDMDL
MODEL 7
REMARK VINA RESULT:      -5.1      2.974      4.609
REMARK  Name = 2071
REMARK  5 active torsions:
REMARK  status: ('A' for Active; 'I' for Inactive)
REMARK    1  A    between atoms: C_1  and  N_10
REMARK    2  A    between atoms: C_1  and  C_15
REMARK    3  A    between atoms: C_8  and  C_19
REMARK    4  A    between atoms: C_15  and  O_16
REMARK    5  A    between atoms: C_19  and  O_20
REMARK                            x       y       z     vdW  Elec       q    Type
REMARK                         _______ _______ _______ _____ _____    ______ ____
ROOT
ATOM      1  C   UNL     1     -36.265  24.707   4.484  0.00  0.00    +0.062 C 
ATOM      2  C   UNL     1     -36.078  25.745   5.615  0.00  0.00    -0.001 C 
ATOM      3  C   UNL     1     -34.573  26.045   5.700  0.00  0.00    +0.025 C 
ATOM      4  C   UNL     1     -35.102  25.050   3.590  0.00  0.00    -0.035 C 
ATOM      5  C   UNL     1     -34.151  25.813   4.284  0.00  0.00    -0.027 C 
ATOM      6  C   UNL     1     -34.883  24.679   2.272  0.00  0.00    -0.006 C 
ATOM      7  C   UNL     1     -32.972  26.216   3.677  0.00  0.00    +0.002 C 
ATOM      8  C   UNL     1     -32.755  25.855   2.346  0.00  0.00    +0.075 C 
ATOM      9  C   UNL     1     -33.703  25.092   1.648  0.00  0.00    +0.006 C 
ENDROOT
BRANCH   1  10
ATOM     10  N   UNL     1     -36.197  23.338   4.987  0.00  0.00    +0.392 N 
ATOM     11  H   UNL     1     -35.361  23.228   5.560  0.00  0.00    -0.088 HD
ATOM     12  H   UNL     1     -36.158  22.689   4.201  0.00  0.00    -0.088 HD
ATOM     13  H   UNL     1     -37.025  23.141   5.550  0.00  0.00    -0.088 HD
ENDBRANCH   1  10
BRANCH   1  15
ATOM     14  O   UNL     1     -38.320  23.988   3.438  0.00  0.00    -0.252 OA
ATOM     15  C   UNL     1     -37.600  24.893   3.834  0.00  0.00    +0.298 C 
BRANCH  15  16
ATOM     16  O   UNL     1     -37.907  26.210   3.739  0.00  0.00    -0.481 OA
ATOM     17  H   UNL     1     -38.397  26.525   3.005  0.00  0.00    +0.295 HD
ENDBRANCH  15  16
ENDBRANCH   1  15
BRANCH   8  19
ATOM     18  O   UNL     1     -31.483  26.812   0.560  0.00  0.00    -0.245 OA
ATOM     19  C   UNL     1     -31.537  26.280   1.673  0.00  0.00    +0.338 C 
BRANCH  19  20
ATOM     20  O   UNL     1     -30.421  26.029   2.411  0.00  0.00    -0.477 OA
ATOM     21  H   UNL     1     -30.356  25.237   2.908  0.00  0.00    +0.295 HD
ENDBRANCH  19  20
ENDBRANCH   8  19
TORSDOF 5
ENDMDL
MODEL 8
REMARK VINA RESULT:      -5.0      2.769      5.672
REMARK  Name = 2071
REMARK  5 active torsions:
REMARK  status: ('A' for Active; 'I' for Inactive)
REMARK    1  A    between atoms: C_1  and  N_10
REMARK    2  A    between atoms: C_1  and  C_15
REMARK    3  A    between atoms: C_8  and  C_19
REMARK    4  A    between atoms: C_15  and  O_16
REMARK    5  A    between atoms: C_19  and  O_20
REMARK                            x       y       z     vdW  Elec       q    Type
REMARK                         _______ _______ _______ _____ _____    ______ ____
ROOT
ATOM      1  C   UNL     1     -37.241  25.431   3.230  0.00  0.00    +0.062 C 
ATOM      2  C   UNL     1     -36.723  25.874   1.842  0.00  0.00    -0.001 C 
ATOM      3  C   UNL     1     -35.734  27.026   2.083  0.00  0.00    +0.025 C 
ATOM      4  C   UNL     1     -36.059  25.779   4.097  0.00  0.00    -0.035 C 
ATOM      5  C   UNL     1     -35.207  26.678   3.438  0.00  0.00    -0.027 C 
ATOM      6  C   UNL     1     -35.780  25.362   5.391  0.00  0.00    -0.006 C 
ATOM      7  C   UNL     1     -34.070  27.173   4.056  0.00  0.00    +0.002 C 
ATOM      8  C   UNL     1     -33.779  26.745   5.353  0.00  0.00    +0.075 C 
ATOM      9  C   UNL     1     -34.628  25.846   6.015  0.00  0.00    +0.006 C 
ENDROOT
BRANCH   1  10
ATOM     10  N   UNL     1     -38.447  26.155   3.616  0.00  0.00    +0.392 N 
ATOM     11  H   UNL     1     -39.262  25.557   3.478  0.00  0.00    -0.088 HD
ATOM     12  H   UNL     1     -38.540  26.993   3.041  0.00  0.00    -0.088 HD
ATOM     13  H   UNL     1     -38.384  26.423   4.598  0.00  0.00    -0.088 HD
ENDBRANCH   1  10
BRANCH   1  15
ATOM     14  O   UNL     1     -36.742  23.068   3.200  0.00  0.00    -0.252 OA
ATOM     15  C   UNL     1     -37.566  23.971   3.212  0.00  0.00    +0.298 C 
BRANCH  15  16
ATOM     16  O   UNL     1     -38.908  23.779   3.208  0.00  0.00    -0.481 OA
ATOM     17  H   UNL     1     -39.416  24.038   2.464  0.00  0.00    +0.295 HD
ENDBRANCH  15  16
ENDBRANCH   1  15
BRANCH   8  19
ATOM     18  O   UNL     1     -31.588  27.700   5.455  0.00  0.00    -0.245 OA
ATOM     19  C   UNL     1     -32.582  27.230   6.021  0.00  0.00    +0.338 C 
BRANCH  19  20
ATOM     20  O   UNL     1     -32.659  27.117   7.375  0.00  0.00    -0.477 OA
ATOM     21  H   UNL     1     -32.901  26.300   7.763  0.00  0.00    +0.295 HD
ENDBRANCH  19  20
ENDBRANCH   8  19
TORSDOF 5
ENDMDL
MODEL 9
REMARK VINA RESULT:      -4.9      2.734      3.165
REMARK  Name = 2071
REMARK  5 active torsions:
REMARK  status: ('A' for Active; 'I' for Inactive)
REMARK    1  A    between atoms: C_1  and  N_10
REMARK    2  A    between atoms: C_1  and  C_15
REMARK    3  A    between atoms: C_8  and  C_19
REMARK    4  A    between atoms: C_15  and  O_16
REMARK    5  A    between atoms: C_19  and  O_20
REMARK                            x       y       z     vdW  Elec       q    Type
REMARK                         _______ _______ _______ _____ _____    ______ ____
ROOT
ATOM      1  C   UNL     1     -35.831  25.003   4.064  0.00  0.00    +0.062 C 
ATOM      2  C   UNL     1     -34.738  24.012   3.603  0.00  0.00    -0.001 C 
ATOM      3  C   UNL     1     -35.423  22.649   3.416  0.00  0.00    +0.025 C 
ATOM      4  C   UNL     1     -37.051  24.401   3.416  0.00  0.00    -0.035 C 
ATOM      5  C   UNL     1     -36.809  23.069   3.046  0.00  0.00    -0.027 C 
ATOM      6  C   UNL     1     -38.295  24.977   3.207  0.00  0.00    -0.006 C 
ATOM      7  C   UNL     1     -37.801  22.295   2.465  0.00  0.00    +0.002 C 
ATOM      8  C   UNL     1     -39.051  22.876   2.241  0.00  0.00    +0.075 C 
ATOM      9  C   UNL     1     -39.296  24.207   2.609  0.00  0.00    +0.006 C 
ENDROOT
BRANCH   1  10
ATOM     10  N   UNL     1     -35.940  25.053   5.519  0.00  0.00    +0.392 N 
ATOM     11  H   UNL     1     -35.835  26.017   5.835  0.00  0.00    -0.088 HD
ATOM     12  H   UNL     1     -35.208  24.477   5.935  0.00  0.00    -0.088 HD
ATOM     13  H   UNL     1     -36.854  24.699   5.803  0.00  0.00    -0.088 HD
ENDBRANCH   1  10
BRANCH   1  15
ATOM     14  O   UNL     1     -35.180  26.664   2.437  0.00  0.00    -0.252 OA
ATOM     15  C   UNL     1     -35.510  26.382   3.579  0.00  0.00    +0.298 C 
BRANCH  15  16
ATOM     16  O   UNL     1     -35.632  27.284   4.584  0.00  0.00    -0.481 OA
ATOM     17  H   UNL     1     -34.920  27.859   4.786  0.00  0.00    +0.295 HD
ENDBRANCH  15  16
ENDBRANCH   1  15
BRANCH   8  19
ATOM     18  O   UNL     1     -40.765  22.446   0.629  0.00  0.00    -0.245 OA
ATOM     19  C   UNL     1     -40.106  22.096   1.614  0.00  0.00    +0.338 C 
BRANCH  19  20
ATOM     20  O   UNL     1     -40.307  20.900   2.233  0.00  0.00    -0.477 OA
ATOM     21  H   UNL     1     -41.174  20.635   2.469  0.00  0.00    +0.295 HD
ENDBRANCH  19  20
ENDBRANCH   8  19
TORSDOF 5
ENDMDL
