MODEL 1
REMARK VINA RESULT:      -5.2      0.000      0.000
REMARK  Name = 5464481
REMARK  9 active torsions:
REMARK  status: ('A' for Active; 'I' for Inactive)
REMARK    1  A    between atoms: CA_1  and  C_4
REMARK    2  A    between atoms: CA_1  and  N_13
REMARK    3  A    between atoms: CA_1  and  CB_21
REMARK    4  A    between atoms: N_3  and  CA_6
REMARK    5  A    between atoms: CA_6  and  C_9
REMARK    6  A    between atoms: C_9  and  O_10
REMARK    7  A    between atoms: C_14  and  CA_16
REMARK    8  A    between atoms: CA_16  and  N_17
REMARK    9  A    between atoms: CB_21  and  OG_22
REMARK                            x       y       z     vdW  Elec       q    Type
REMARK                         _______ _______ _______ _____ _____    ______ ____
ROOT
ATOM      1  CA  SER A   2     -35.020  22.799   4.977  0.00  0.00    +0.178 C 
ENDROOT
BRANCH   1   4
ATOM      2  O   SER A   2     -37.078  22.641   3.704  0.00  0.00    -0.273 OA
ATOM      3  N   ALA A   3     -35.114  21.844   2.759  0.00  0.00    -0.295 N 
ATOM      4  C   SER A   2     -35.870  22.419   3.770  0.00  0.00    +0.243 C 
ATOM      5  H   ALA A   3     -34.151  21.708   2.910  0.00  0.00    +0.150 HD
BRANCH   3   6
ATOM      6  CA  ALA A   3     -35.680  21.435   1.494  0.00  0.00    +0.171 C 
ATOM      7  CB  ALA A   3     -34.684  21.656   0.366  0.00  0.00    +0.033 C 
BRANCH   6   9
ATOM      8  OXT ALA A   3     -35.818  19.170   0.663  0.00  0.00    -0.248 OA
ATOM      9  C   ALA A   3     -36.133  19.985   1.523  0.00  0.00    +0.332 C 
BRANCH   9  10
ATOM     10  O   ALA A   3     -36.927  19.661   2.571  0.00  0.00    -0.479 OA
ATOM     11  H   ALA A   3     -37.314  18.809   2.621  0.00  0.00    +0.295 HD
ENDBRANCH   9  10
ENDBRANCH   6   9
ENDBRANCH   3   6
ENDBRANCH   1   4
BRANCH   1  13
ATOM     12  O   GLY A   1     -33.370  25.029   4.153  0.00  0.00    -0.277 OA
ATOM     13  N   SER A   2     -35.236  24.194   5.259  0.00  0.00    -0.298 N 
ATOM     14  C   GLY A   1     -34.387  25.205   4.821  0.00  0.00    +0.201 C 
ATOM     15  H   SER A   2     -36.026  24.446   5.790  0.00  0.00    +0.150 HD
BRANCH  14  16
ATOM     16  CA  GLY A   1     -34.840  26.573   5.290  0.00  0.00    +0.001 C 
BRANCH  16  17
ATOM     17  N   GLY A   1     -36.295  26.616   5.268  0.00  0.00    +0.386 N 
ATOM     18  H1  GLY A   1     -36.608  27.077   4.414  0.00  0.00    -0.089 HD
ATOM     19  H2  GLY A   1     -36.632  27.137   6.078  0.00  0.00    -0.089 HD
ATOM     20  H3  GLY A   1     -36.665  25.666   5.295  0.00  0.00    -0.089 HD
ENDBRANCH  16  17
ENDBRANCH  14  16
ENDBRANCH   1  13
BRANCH   1  21
ATOM     21  CB  SER A   2     -35.327  21.925   6.190  0.00  0.00    +0.166 C 
BRANCH  21  22
ATOM     22  OG  SER A   2     -35.592  20.589   5.778  0.00  0.00    -0.380 OA
ATOM     23  H   SER A   2     -34.959  19.989   6.203  0.00  0.00    +0.211 HD
ENDBRANCH  21  22
ENDBRANCH   1  21
TORSDOF 9
ENDMDL
MODEL 2
REMARK VINA RESULT:      -5.0      2.964      6.741
REMARK  Name = 5464481
REMARK  9 active torsions:
REMARK  status: ('A' for Active; 'I' for Inactive)
REMARK    1  A    between atoms: CA_1  and  C_4
REMARK    2  A    between atoms: CA_1  and  N_13
REMARK    3  A    between atoms: CA_1  and  CB_21
REMARK    4  A    between atoms: N_3  and  CA_6
REMARK    5  A    between atoms: CA_6  and  C_9
REMARK    6  A    between atoms: C_9  and  O_10
REMARK    7  A    between atoms: C_14  and  CA_16
REMARK    8  A    between atoms: CA_16  and  N_17
REMARK    9  A    between atoms: CB_21  and  OG_22
REMARK                            x       y       z     vdW  Elec       q    Type
REMARK                         _______ _______ _______ _____ _____    ______ ____
ROOT
ATOM      1  CA  SER A   2     -34.942  25.306   3.911  0.00  0.00    +0.178 C 
ENDROOT
BRANCH   1   4
ATOM      2  O   SER A   2     -32.647  25.602   3.188  0.00  0.00    -0.273 OA
ATOM      3  N   ALA A   3     -33.584  27.182   4.606  0.00  0.00    -0.295 N 
ATOM      4  C   SER A   2     -33.592  26.014   3.856  0.00  0.00    +0.243 C 
ATOM      5  H   ALA A   3     -34.395  27.425   5.109  0.00  0.00    +0.150 HD
BRANCH   3   6
ATOM      6  CA  ALA A   3     -32.436  28.055   4.682  0.00  0.00    +0.171 C 
ATOM      7  CB  ALA A   3     -32.713  29.366   3.962  0.00  0.00    +0.033 C 
BRANCH   6   9
ATOM      8  OXT ALA A   3     -32.047  29.435   6.628  0.00  0.00    -0.248 OA
ATOM      9  C   ALA A   3     -32.024  28.319   6.120  0.00  0.00    +0.332 C 
BRANCH   9  10
ATOM     10  O   ALA A   3     -31.613  27.223   6.801  0.00  0.00    -0.479 OA
ATOM     11  H   ALA A   3     -30.698  27.057   6.916  0.00  0.00    +0.295 HD
ENDBRANCH   9  10
ENDBRANCH   6   9
ENDBRANCH   3   6
ENDBRANCH   1   4
BRANCH   1  13
ATOM     12  O   GLY A   1     -36.535  22.905   4.175  0.00  0.00    -0.277 OA
ATOM     13  N   SER A   2     -34.905  24.349   4.986  0.00  0.00    -0.298 N 
ATOM     14  C   GLY A   1     -35.710  23.216   5.032  0.00  0.00    +0.201 C 
ATOM     15  H   SER A   2     -34.276  24.505   5.727  0.00  0.00    +0.150 HD
BRANCH  14  16
ATOM     16  CA  GLY A   1     -35.482  22.406   6.291  0.00  0.00    +0.001 C 
BRANCH  16  17
ATOM     17  N   GLY A   1     -35.187  21.031   5.916  0.00  0.00    +0.386 N 
ATOM     18  H1  GLY A   1     -35.831  20.402   6.396  0.00  0.00    -0.089 HD
ATOM     19  H2  GLY A   1     -34.229  20.804   6.182  0.00  0.00    -0.089 HD
ATOM     20  H3  GLY A   1     -35.296  20.923   4.908  0.00  0.00    -0.089 HD
ENDBRANCH  16  17
ENDBRANCH  14  16
ENDBRANCH   1  13
BRANCH   1  21
ATOM     21  CB  SER A   2     -36.097  26.290   4.072  0.00  0.00    +0.166 C 
BRANCH  21  22
ATOM     22  OG  SER A   2     -36.373  26.504   5.450  0.00  0.00    -0.380 OA
ATOM     23  H   SER A   2     -36.818  27.359   5.562  0.00  0.00    +0.211 HD
ENDBRANCH  21  22
ENDBRANCH   1  21
TORSDOF 9
ENDMDL
MODEL 3
REMARK VINA RESULT:      -4.9      2.466      4.247
REMARK  Name = 5464481
REMARK  9 active torsions:
REMARK  status: ('A' for Active; 'I' for Inactive)
REMARK    1  A    between atoms: CA_1  and  C_4
REMARK    2  A    between atoms: CA_1  and  N_13
REMARK    3  A    between atoms: CA_1  and  CB_21
REMARK    4  A    between atoms: N_3  and  CA_6
REMARK    5  A    between atoms: CA_6  and  C_9
REMARK    6  A    between atoms: C_9  and  O_10
REMARK    7  A    between atoms: C_14  and  CA_16
REMARK    8  A    between atoms: CA_16  and  N_17
REMARK    9  A    between atoms: CB_21  and  OG_22
REMARK                            x       y       z     vdW  Elec       q    Type
REMARK                         _______ _______ _______ _____ _____    ______ ____
ROOT
ATOM      1  CA  SER A   2     -33.703  26.165   5.329  0.00  0.00    +0.178 C 
ENDROOT
BRANCH   1   4
ATOM      2  O   SER A   2     -36.026  25.593   5.726  0.00  0.00    -0.273 OA
ATOM      3  N   ALA A   3     -34.637  24.014   4.743  0.00  0.00    -0.295 N 
ATOM      4  C   SER A   2     -34.921  25.247   5.313  0.00  0.00    +0.243 C 
ATOM      5  H   ALA A   3     -33.718  23.833   4.443  0.00  0.00    +0.150 HD
BRANCH   3   6
ATOM      6  CA  ALA A   3     -35.635  22.983   4.573  0.00  0.00    +0.171 C 
ATOM      7  CB  ALA A   3     -35.500  22.330   3.206  0.00  0.00    +0.033 C 
BRANCH   6   9
ATOM      8  OXT ALA A   3     -35.881  22.157   6.830  0.00  0.00    -0.248 OA
ATOM      9  C   ALA A   3     -35.554  21.935   5.670  0.00  0.00    +0.332 C 
BRANCH   9  10
ATOM     10  O   ALA A   3     -35.080  20.732   5.269  0.00  0.00    -0.479 OA
ATOM     11  H   ALA A   3     -35.650  20.121   4.845  0.00  0.00    +0.295 HD
ENDBRANCH   9  10
ENDBRANCH   6   9
ENDBRANCH   3   6
ENDBRANCH   1   4
BRANCH   1  13
ATOM     12  O   GLY A   1     -31.789  27.658   3.755  0.00  0.00    -0.277 OA
ATOM     13  N   SER A   2     -33.970  27.283   4.463  0.00  0.00    -0.298 N 
ATOM     14  C   GLY A   1     -32.984  27.945   3.739  0.00  0.00    +0.201 C 
ATOM     15  H   SER A   2     -34.900  27.596   4.378  0.00  0.00    +0.150 HD
BRANCH  14  16
ATOM     16  CA  GLY A   1     -33.545  29.102   2.938  0.00  0.00    +0.001 C 
BRANCH  16  17
ATOM     17  N   GLY A   1     -34.935  29.304   3.319  0.00  0.00    +0.386 N 
ATOM     18  H1  GLY A   1     -35.275  28.479   3.814  0.00  0.00    -0.089 HD
ATOM     19  H2  GLY A   1     -35.499  29.454   2.482  0.00  0.00    -0.089 HD
ATOM     20  H3  GLY A   1     -35.006  30.118   3.929  0.00  0.00    -0.089 HD
ENDBRANCH  16  17
ENDBRANCH  14  16
ENDBRANCH   1  13
BRANCH   1  21
ATOM     21  CB  SER A   2     -33.349  26.618   6.743  0.00  0.00    +0.166 C 
BRANCH  21  22
ATOM     22  OG  SER A   2     -31.987  27.025   6.802  0.00  0.00    -0.380 OA
ATOM     23  H   SER A   2     -31.438  26.278   7.086  0.00  0.00    +0.211 HD
ENDBRANCH  21  22
ENDBRANCH   1  21
TORSDOF 9
ENDMDL
MODEL 4
REMARK VINA RESULT:      -4.9      1.795      2.197
REMARK  Name = 5464481
REMARK  9 active torsions:
REMARK  status: ('A' for Active; 'I' for Inactive)
REMARK    1  A    between atoms: CA_1  and  C_4
REMARK    2  A    between atoms: CA_1  and  N_13
REMARK    3  A    between atoms: CA_1  and  CB_21
REMARK    4  A    between atoms: N_3  and  CA_6
REMARK    5  A    between atoms: CA_6  and  C_9
REMARK    6  A    between atoms: C_9  and  O_10
REMARK    7  A    between atoms: C_14  and  CA_16
REMARK    8  A    between atoms: CA_16  and  N_17
REMARK    9  A    between atoms: CB_21  and  OG_22
REMARK                            x       y       z     vdW  Elec       q    Type
REMARK                         _______ _______ _______ _____ _____    ______ ____
ROOT
ATOM      1  CA  SER A   2     -35.189  22.661   4.777  0.00  0.00    +0.178 C 
ENDROOT
BRANCH   1   4
ATOM      2  O   SER A   2     -35.543  20.818   3.243  0.00  0.00    -0.273 OA
ATOM      3  N   ALA A   3     -37.078  22.558   3.272  0.00  0.00    -0.295 N 
ATOM      4  C   SER A   2     -35.924  21.902   3.678  0.00  0.00    +0.243 C 
ATOM      5  H   ALA A   3     -37.296  23.425   3.682  0.00  0.00    +0.150 HD
BRANCH   3   6
ATOM      6  CA  ALA A   3     -37.971  22.022   2.272  0.00  0.00    +0.171 C 
ATOM      7  CB  ALA A   3     -39.323  22.717   2.334  0.00  0.00    +0.033 C 
BRANCH   6   9
ATOM      8  OXT ALA A   3     -37.445  23.157   0.204  0.00  0.00    -0.248 OA
ATOM      9  C   ALA A   3     -37.384  22.133   0.875  0.00  0.00    +0.332 C 
BRANCH   9  10
ATOM     10  O   ALA A   3     -36.793  21.003   0.418  0.00  0.00    -0.479 OA
ATOM     11  H   ALA A   3     -37.317  20.308   0.070  0.00  0.00    +0.295 HD
ENDBRANCH   9  10
ENDBRANCH   6   9
ENDBRANCH   3   6
ENDBRANCH   1   4
BRANCH   1  13
ATOM     12  O   GLY A   1     -33.428  24.943   4.526  0.00  0.00    -0.277 OA
ATOM     13  N   SER A   2     -35.566  24.048   4.697  0.00  0.00    -0.298 N 
ATOM     14  C   GLY A   1     -34.649  25.086   4.576  0.00  0.00    +0.201 C 
ATOM     15  H   SER A   2     -36.524  24.274   4.728  0.00  0.00    +0.150 HD
BRANCH  14  16
ATOM     16  CA  GLY A   1     -35.324  26.442   4.545  0.00  0.00    +0.001 C 
BRANCH  16  17
ATOM     17  N   GLY A   1     -36.486  26.406   5.419  0.00  0.00    +0.386 N 
ATOM     18  H1  GLY A   1     -36.500  25.523   5.930  0.00  0.00    -0.089 HD
ATOM     19  H2  GLY A   1     -37.336  26.487   4.860  0.00  0.00    -0.089 HD
ATOM     20  H3  GLY A   1     -36.439  27.181   6.081  0.00  0.00    -0.089 HD
ENDBRANCH  16  17
ENDBRANCH  14  16
ENDBRANCH   1  13
BRANCH   1  21
ATOM     21  CB  SER A   2     -35.471  22.080   6.160  0.00  0.00    +0.166 C 
BRANCH  21  22
ATOM     22  OG  SER A   2     -35.528  20.660   6.094  0.00  0.00    -0.380 OA
ATOM     23  H   SER A   2     -34.831  20.282   6.654  0.00  0.00    +0.211 HD
ENDBRANCH  21  22
ENDBRANCH   1  21
TORSDOF 9
ENDMDL
MODEL 5
REMARK VINA RESULT:      -4.8      2.952      5.475
REMARK  Name = 5464481
REMARK  9 active torsions:
REMARK  status: ('A' for Active; 'I' for Inactive)
REMARK    1  A    between atoms: CA_1  and  C_4
REMARK    2  A    between atoms: CA_1  and  N_13
REMARK    3  A    between atoms: CA_1  and  CB_21
REMARK    4  A    between atoms: N_3  and  CA_6
REMARK    5  A    between atoms: CA_6  and  C_9
REMARK    6  A    between atoms: C_9  and  O_10
REMARK    7  A    between atoms: C_14  and  CA_16
REMARK    8  A    between atoms: CA_16  and  N_17
REMARK    9  A    between atoms: CB_21  and  OG_22
REMARK                            x       y       z     vdW  Elec       q    Type
REMARK                         _______ _______ _______ _____ _____    ______ ____
ROOT
ATOM      1  CA  SER A   2     -37.515  20.946   1.888  0.00  0.00    +0.178 C 
ENDROOT
BRANCH   1   4
ATOM      2  O   SER A   2     -35.141  20.988   2.381  0.00  0.00    -0.273 OA
ATOM      3  N   ALA A   3     -36.582  22.223   3.716  0.00  0.00    -0.295 N 
ATOM      4  C   SER A   2     -36.276  21.359   2.675  0.00  0.00    +0.243 C 
ATOM      5  H   ALA A   3     -37.525  22.460   3.870  0.00  0.00    +0.150 HD
BRANCH   3   6
ATOM      6  CA  ALA A   3     -35.577  22.791   4.583  0.00  0.00    +0.171 C 
ATOM      7  CB  ALA A   3     -35.968  24.198   5.007  0.00  0.00    +0.033 C 
BRANCH   6   9
ATOM      8  OXT ALA A   3     -35.278  22.369   6.944  0.00  0.00    -0.248 OA
ATOM      9  C   ALA A   3     -35.330  21.921   5.804  0.00  0.00    +0.332 C 
BRANCH   9  10
ATOM     10  O   ALA A   3     -35.158  20.605   5.535  0.00  0.00    -0.479 OA
ATOM     11  H   ALA A   3     -35.901  20.061   5.360  0.00  0.00    +0.295 HD
ENDBRANCH   9  10
ENDBRANCH   6   9
ENDBRANCH   3   6
ENDBRANCH   1   4
BRANCH   1  13
ATOM     12  O   GLY A   1     -40.388  21.262   2.014  0.00  0.00    -0.277 OA
ATOM     13  N   SER A   2     -38.275  22.131   1.590  0.00  0.00    -0.298 N 
ATOM     14  C   GLY A   1     -39.661  22.195   1.677  0.00  0.00    +0.201 C 
ATOM     15  H   SER A   2     -37.788  22.939   1.309  0.00  0.00    +0.150 HD
BRANCH  14  16
ATOM     16  CA  GLY A   1     -40.195  23.555   1.275  0.00  0.00    +0.001 C 
BRANCH  16  17
ATOM     17  N   GLY A   1     -41.481  23.376   0.616  0.00  0.00    +0.386 N 
ATOM     18  H1  GLY A   1     -42.096  24.154   0.854  0.00  0.00    -0.089 HD
ATOM     19  H2  GLY A   1     -41.904  22.501   0.928  0.00  0.00    -0.089 HD
ATOM     20  H3  GLY A   1     -41.345  23.347  -0.394  0.00  0.00    -0.089 HD
ENDBRANCH  16  17
ENDBRANCH  14  16
ENDBRANCH   1  13
BRANCH   1  21
ATOM     21  CB  SER A   2     -37.156  20.172   0.623  0.00  0.00    +0.166 C 
BRANCH  21  22
ATOM     22  OG  SER A   2     -36.800  18.834   0.948  0.00  0.00    -0.380 OA
ATOM     23  H   SER A   2     -36.323  18.823   1.793  0.00  0.00    +0.211 HD
ENDBRANCH  21  22
ENDBRANCH   1  21
TORSDOF 9
ENDMDL
MODEL 6
REMARK VINA RESULT:      -4.8      2.226      5.313
REMARK  Name = 5464481
REMARK  9 active torsions:
REMARK  status: ('A' for Active; 'I' for Inactive)
REMARK    1  A    between atoms: CA_1  and  C_4
REMARK    2  A    between atoms: CA_1  and  N_13
REMARK    3  A    between atoms: CA_1  and  CB_21
REMARK    4  A    between atoms: N_3  and  CA_6
REMARK    5  A    between atoms: CA_6  and  C_9
REMARK    6  A    between atoms: C_9  and  O_10
REMARK    7  A    between atoms: C_14  and  CA_16
REMARK    8  A    between atoms: CA_16  and  N_17
REMARK    9  A    between atoms: CB_21  and  OG_22
REMARK                            x       y       z     vdW  Elec       q    Type
REMARK                         _______ _______ _______ _____ _____    ______ ____
ROOT
ATOM      1  CA  SER A   2     -35.856  23.008   4.945  0.00  0.00    +0.178 C 
ENDROOT
BRANCH   1   4
ATOM      2  O   SER A   2     -33.687  24.090   4.937  0.00  0.00    -0.273 OA
ATOM      3  N   ALA A   3     -35.355  24.920   3.554  0.00  0.00    -0.295 N 
ATOM      4  C   SER A   2     -34.838  24.056   4.509  0.00  0.00    +0.243 C 
ATOM      5  H   ALA A   3     -36.293  24.810   3.277  0.00  0.00    +0.150 HD
BRANCH   3   6
ATOM      6  CA  ALA A   3     -34.575  25.975   2.950  0.00  0.00    +0.171 C 
ATOM      7  CB  ALA A   3     -35.085  26.282   1.550  0.00  0.00    +0.033 C 
BRANCH   6   9
ATOM      8  OXT ALA A   3     -33.842  27.385   4.770  0.00  0.00    -0.248 OA
ATOM      9  C   ALA A   3     -34.576  27.234   3.800  0.00  0.00    +0.332 C 
BRANCH   9  10
ATOM     10  O   ALA A   3     -35.465  28.179   3.411  0.00  0.00    -0.479 OA
ATOM     11  H   ALA A   3     -35.178  29.058   3.262  0.00  0.00    +0.295 HD
ENDBRANCH   9  10
ENDBRANCH   6   9
ENDBRANCH   3   6
ENDBRANCH   1   4
BRANCH   1  13
ATOM     12  O   GLY A   1     -38.047  23.234   3.068  0.00  0.00    -0.277 OA
ATOM     13  N   SER A   2     -36.133  22.152   3.821  0.00  0.00    -0.298 N 
ATOM     14  C   GLY A   1     -37.214  22.335   2.966  0.00  0.00    +0.201 C 
ATOM     15  H   SER A   2     -35.524  21.398   3.649  0.00  0.00    +0.150 HD
BRANCH  14  16
ATOM     16  CA  GLY A   1     -37.277  21.269   1.891  0.00  0.00    +0.001 C 
BRANCH  16  17
ATOM     17  N   GLY A   1     -36.791  20.015   2.448  0.00  0.00    +0.386 N 
ATOM     18  H1  GLY A   1     -37.467  19.660   3.125  0.00  0.00    -0.089 HD
ATOM     19  H2  GLY A   1     -35.897  20.172   2.912  0.00  0.00    -0.089 HD
ATOM     20  H3  GLY A   1     -36.671  19.334   1.699  0.00  0.00    -0.089 HD
ENDBRANCH  16  17
ENDBRANCH  14  16
ENDBRANCH   1  13
BRANCH   1  21
ATOM     21  CB  SER A   2     -35.374  22.212   6.155  0.00  0.00    +0.166 C 
BRANCH  21  22
ATOM     22  OG  SER A   2     -35.335  20.824   5.847  0.00  0.00    -0.380 OA
ATOM     23  H   SER A   2     -35.302  20.707   4.884  0.00  0.00    +0.211 HD
ENDBRANCH  21  22
ENDBRANCH   1  21
TORSDOF 9
ENDMDL
MODEL 7
REMARK VINA RESULT:      -4.8      2.032      2.358
REMARK  Name = 5464481
REMARK  9 active torsions:
REMARK  status: ('A' for Active; 'I' for Inactive)
REMARK    1  A    between atoms: CA_1  and  C_4
REMARK    2  A    between atoms: CA_1  and  N_13
REMARK    3  A    between atoms: CA_1  and  CB_21
REMARK    4  A    between atoms: N_3  and  CA_6
REMARK    5  A    between atoms: CA_6  and  C_9
REMARK    6  A    between atoms: C_9  and  O_10
REMARK    7  A    between atoms: C_14  and  CA_16
REMARK    8  A    between atoms: CA_16  and  N_17
REMARK    9  A    between atoms: CB_21  and  OG_22
REMARK                            x       y       z     vdW  Elec       q    Type
REMARK                         _______ _______ _______ _____ _____    ______ ____
ROOT
ATOM      1  CA  SER A   2     -35.229  23.202   4.493  0.00  0.00    +0.178 C 
ENDROOT
BRANCH   1   4
ATOM      2  O   SER A   2     -37.442  24.182   4.342  0.00  0.00    -0.273 OA
ATOM      3  N   ALA A   3     -36.661  22.906   2.567  0.00  0.00    -0.295 N 
ATOM      4  C   SER A   2     -36.570  23.486   3.825  0.00  0.00    +0.243 C 
ATOM      5  H   ALA A   3     -35.906  22.364   2.243  0.00  0.00    +0.150 HD
BRANCH   3   6
ATOM      6  CA  ALA A   3     -37.816  23.064   1.714  0.00  0.00    +0.171 C 
ATOM      7  CB  ALA A   3     -37.424  22.921   0.252  0.00  0.00    +0.033 C 
BRANCH   6   9
ATOM      8  OXT ALA A   3     -40.095  22.395   2.158  0.00  0.00    -0.248 OA
ATOM      9  C   ALA A   3     -38.915  22.076   2.067  0.00  0.00    +0.332 C 
BRANCH   9  10
ATOM     10  O   ALA A   3     -38.488  20.809   2.285  0.00  0.00    -0.479 OA
ATOM     11  H   ALA A   3     -39.059  20.086   2.114  0.00  0.00    +0.295 HD
ENDBRANCH   9  10
ENDBRANCH   6   9
ENDBRANCH   3   6
ENDBRANCH   1   4
BRANCH   1  13
ATOM     12  O   GLY A   1     -33.328  25.306   3.919  0.00  0.00    -0.277 OA
ATOM     13  N   SER A   2     -34.895  24.326   5.328  0.00  0.00    -0.298 N 
ATOM     14  C   GLY A   1     -33.964  25.296   4.971  0.00  0.00    +0.201 C 
ATOM     15  H   SER A   2     -35.349  24.412   6.197  0.00  0.00    +0.150 HD
BRANCH  14  16
ATOM     16  CA  GLY A   1     -33.789  26.342   6.053  0.00  0.00    +0.001 C 
BRANCH  16  17
ATOM     17  N   GLY A   1     -33.074  27.479   5.493  0.00  0.00    +0.386 N 
ATOM     18  H1  GLY A   1     -32.285  27.145   4.939  0.00  0.00    -0.089 HD
ATOM     19  H2  GLY A   1     -32.730  28.071   6.249  0.00  0.00    -0.089 HD
ATOM     20  H3  GLY A   1     -33.703  28.017   4.897  0.00  0.00    -0.089 HD
ENDBRANCH  16  17
ENDBRANCH  14  16
ENDBRANCH   1  13
BRANCH   1  21
ATOM     21  CB  SER A   2     -35.250  21.898   5.284  0.00  0.00    +0.166 C 
BRANCH  21  22
ATOM     22  OG  SER A   2     -36.180  21.988   6.356  0.00  0.00    -0.380 OA
ATOM     23  H   SER A   2     -35.708  21.917   7.201  0.00  0.00    +0.211 HD
ENDBRANCH  21  22
ENDBRANCH   1  21
TORSDOF 9
ENDMDL
MODEL 8
REMARK VINA RESULT:      -4.8      1.618      5.513
REMARK  Name = 5464481
REMARK  9 active torsions:
REMARK  status: ('A' for Active; 'I' for Inactive)
REMARK    1  A    between atoms: CA_1  and  C_4
REMARK    2  A    between atoms: CA_1  and  N_13
REMARK    3  A    between atoms: CA_1  and  CB_21
REMARK    4  A    between atoms: N_3  and  CA_6
REMARK    5  A    between atoms: CA_6  and  C_9
REMARK    6  A    between atoms: C_9  and  O_10
REMARK    7  A    between atoms: C_14  and  CA_16
REMARK    8  A    between atoms: CA_16  and  N_17
REMARK    9  A    between atoms: CB_21  and  OG_22
REMARK                            x       y       z     vdW  Elec       q    Type
REMARK                         _______ _______ _______ _____ _____    ______ ____
ROOT
ATOM      1  CA  SER A   2     -35.875  22.526   4.462  0.00  0.00    +0.178 C 
ENDROOT
BRANCH   1   4
ATOM      2  O   SER A   2     -37.181  24.567   4.540  0.00  0.00    -0.273 OA
ATOM      3  N   ALA A   3     -34.903  24.681   4.966  0.00  0.00    -0.295 N 
ATOM      4  C   SER A   2     -36.082  24.027   4.640  0.00  0.00    +0.243 C 
ATOM      5  H   ALA A   3     -34.072  24.157   5.021  0.00  0.00    +0.150 HD
BRANCH   3   6
ATOM      6  CA  ALA A   3     -34.843  26.101   5.228  0.00  0.00    +0.171 C 
ATOM      7  CB  ALA A   3     -33.668  26.428   6.137  0.00  0.00    +0.033 C 
BRANCH   6   9
ATOM      8  OXT ALA A   3     -33.692  27.256   3.444  0.00  0.00    -0.248 OA
ATOM      9  C   ALA A   3     -34.756  26.907   3.943  0.00  0.00    +0.332 C 
BRANCH   9  10
ATOM     10  O   ALA A   3     -35.952  27.222   3.391  0.00  0.00    -0.479 OA
ATOM     11  H   ALA A   3     -36.737  27.142   3.896  0.00  0.00    +0.295 HD
ENDBRANCH   9  10
ENDBRANCH   6   9
ENDBRANCH   3   6
ENDBRANCH   1   4
BRANCH   1  13
ATOM     12  O   GLY A   1     -36.090  20.178   2.786  0.00  0.00    -0.277 OA
ATOM     13  N   SER A   2     -35.248  22.307   3.186  0.00  0.00    -0.298 N 
ATOM     14  C   GLY A   1     -35.407  21.141   2.443  0.00  0.00    +0.201 C 
ATOM     15  H   SER A   2     -34.676  23.019   2.818  0.00  0.00    +0.150 HD
BRANCH  14  16
ATOM     16  CA  GLY A   1     -34.607  21.171   1.157  0.00  0.00    +0.001 C 
BRANCH  16  17
ATOM     17  N   GLY A   1     -33.817  19.952   1.070  0.00  0.00    +0.386 N 
ATOM     18  H1  GLY A   1     -32.831  20.176   1.205  0.00  0.00    -0.089 HD
ATOM     19  H2  GLY A   1     -33.945  19.529   0.150  0.00  0.00    -0.089 HD
ATOM     20  H3  GLY A   1     -34.119  19.298   1.791  0.00  0.00    -0.089 HD
ENDBRANCH  16  17
ENDBRANCH  14  16
ENDBRANCH   1  13
BRANCH   1  21
ATOM     21  CB  SER A   2     -35.060  21.923   5.603  0.00  0.00    +0.166 C 
BRANCH  21  22
ATOM     22  OG  SER A   2     -35.441  20.569   5.817  0.00  0.00    -0.380 OA
ATOM     23  H   SER A   2     -35.135  20.026   5.074  0.00  0.00    +0.211 HD
ENDBRANCH  21  22
ENDBRANCH   1  21
TORSDOF 9
ENDMDL
MODEL 9
REMARK VINA RESULT:      -4.7      3.330      6.542
REMARK  Name = 5464481
REMARK  9 active torsions:
REMARK  status: ('A' for Active; 'I' for Inactive)
REMARK    1  A    between atoms: CA_1  and  C_4
REMARK    2  A    between atoms: CA_1  and  N_13
REMARK    3  A    between atoms: CA_1  and  CB_21
REMARK    4  A    between atoms: N_3  and  CA_6
REMARK    5  A    between atoms: CA_6  and  C_9
REMARK    6  A    between atoms: C_9  and  O_10
REMARK    7  A    between atoms: C_14  and  CA_16
REMARK    8  A    between atoms: CA_16  and  N_17
REMARK    9  A    between atoms: CB_21  and  OG_22
REMARK                            x       y       z     vdW  Elec       q    Type
REMARK                         _______ _______ _______ _____ _____    ______ ____
ROOT
ATOM      1  CA  SER A   2     -34.545  26.084   5.379  0.00  0.00    +0.178 C 
ENDROOT
BRANCH   1   4
ATOM      2  O   SER A   2     -33.473  26.127   3.205  0.00  0.00    -0.273 OA
ATOM      3  N   ALA A   3     -35.074  27.735   3.694  0.00  0.00    -0.295 N 
ATOM      4  C   SER A   2     -34.278  26.636   3.982  0.00  0.00    +0.243 C 
ATOM      5  H   ALA A   3     -35.688  28.067   4.387  0.00  0.00    +0.150 HD
BRANCH   3   6
ATOM      6  CA  ALA A   3     -35.039  28.412   2.418  0.00  0.00    +0.171 C 
ATOM      7  CB  ALA A   3     -36.315  28.143   1.635  0.00  0.00    +0.033 C 
BRANCH   6   9
ATOM      8  OXT ALA A   3     -34.112  30.565   1.830  0.00  0.00    -0.248 OA
ATOM      9  C   ALA A   3     -34.825  29.907   2.581  0.00  0.00    +0.332 C 
BRANCH   9  10
ATOM     10  O   ALA A   3     -35.474  30.461   3.632  0.00  0.00    -0.479 OA
ATOM     11  H   ALA A   3     -35.308  31.352   3.869  0.00  0.00    +0.295 HD
ENDBRANCH   9  10
ENDBRANCH   6   9
ENDBRANCH   3   6
ENDBRANCH   1   4
BRANCH   1  13
ATOM     12  O   GLY A   1     -36.869  24.470   4.776  0.00  0.00    -0.277 OA
ATOM     13  N   SER A   2     -34.610  24.649   5.292  0.00  0.00    -0.298 N 
ATOM     14  C   GLY A   1     -35.776  23.951   4.995  0.00  0.00    +0.201 C 
ATOM     15  H   SER A   2     -33.786  24.134   5.451  0.00  0.00    +0.150 HD
BRANCH  14  16
ATOM     16  CA  GLY A   1     -35.559  22.452   5.001  0.00  0.00    +0.001 C 
BRANCH  16  17
ATOM     17  N   GLY A   1     -35.962  21.927   6.297  0.00  0.00    +0.386 N 
ATOM     18  H1  GLY A   1     -35.427  21.083   6.504  0.00  0.00    -0.089 HD
ATOM     19  H2  GLY A   1     -36.957  21.701   6.279  0.00  0.00    -0.089 HD
ATOM     20  H3  GLY A   1     -35.785  22.626   7.018  0.00  0.00    -0.089 HD
ENDBRANCH  16  17
ENDBRANCH  14  16
ENDBRANCH   1  13
BRANCH   1  21
ATOM     21  CB  SER A   2     -33.492  26.541   6.384  0.00  0.00    +0.166 C 
BRANCH  21  22
ATOM     22  OG  SER A   2     -32.801  27.682   5.889  0.00  0.00    -0.380 OA
ATOM     23  H   SER A   2     -32.105  27.936   6.516  0.00  0.00    +0.211 HD
ENDBRANCH  21  22
ENDBRANCH   1  21
TORSDOF 9
ENDMDL
