MODEL 1
REMARK VINA RESULT:      -4.8      0.000      0.000
REMARK  Name = 60778
REMARK  9 active torsions:
REMARK  status: ('A' for Active; 'I' for Inactive)
REMARK    1  A    between atoms: N_2  and  C_5
REMARK    2  A    between atoms: C_3  and  C_15
REMARK    3  A    between atoms: C_5  and  C_8
REMARK    4  A    between atoms: N_7  and  C_10
REMARK    5  A    between atoms: C_10  and  C_12
REMARK    6  A    between atoms: C_12  and  O_13
REMARK    7  A    between atoms: C_15  and  N_17
REMARK    8  A    between atoms: C_18  and  C_20
REMARK    9  A    between atoms: C_20  and  S_21
REMARK                            x       y       z     vdW  Elec       q    Type
REMARK                         _______ _______ _______ _____ _____    ______ ____
ROOT
ATOM      1  O   UNL     1     -33.983  24.455   4.919  0.00  0.00    -0.273 OA
ATOM      2  N   UNL     1     -35.945  23.422   5.617  0.00  0.00    -0.295 N 
ATOM      3  C   UNL     1     -35.149  24.514   5.301  0.00  0.00    +0.243 C 
ATOM      4  H   UNL     1     -36.868  23.586   5.915  0.00  0.00    +0.150 HD
ENDROOT
BRANCH   2   5
ATOM      5  C   UNL     1     -35.484  22.054   5.531  0.00  0.00    +0.176 C 
BRANCH   5   8
ATOM      6  O   UNL     1     -35.061  20.634   3.623  0.00  0.00    -0.273 OA
ATOM      7  N   UNL     1     -36.780  22.194   3.517  0.00  0.00    -0.294 N 
ATOM      8  C   UNL     1     -35.737  21.522   4.137  0.00  0.00    +0.243 C 
ATOM      9  H   UNL     1     -37.256  22.890   4.025  0.00  0.00    +0.150 HD
BRANCH   7  10
ATOM     10  C   UNL     1     -37.204  21.923   2.161  0.00  0.00    +0.200 C 
BRANCH  10  12
ATOM     11  O   UNL     1     -39.227  23.043   1.491  0.00  0.00    -0.248 OA
ATOM     12  C   UNL     1     -38.695  22.053   1.976  0.00  0.00    +0.334 C 
BRANCH  12  13
ATOM     13  O   UNL     1     -39.389  20.970   2.398  0.00  0.00    -0.479 OA
ATOM     14  H   UNL     1     -40.325  20.965   2.345  0.00  0.00    +0.295 HD
ENDBRANCH  12  13
ENDBRANCH  10  12
ENDBRANCH   7  10
ENDBRANCH   5   8
ENDBRANCH   2   5
BRANCH   3  15
ATOM     15  C   UNL     1     -35.914  25.813   5.432  0.00  0.00    +0.176 C 
BRANCH  15  17
ATOM     16  O   UNL     1     -38.228  24.814   4.007  0.00  0.00    -0.274 OA
ATOM     17  N   UNL     1     -36.384  26.226   4.143  0.00  0.00    -0.296 N 
ATOM     18  C   UNL     1     -37.511  25.691   3.527  0.00  0.00    +0.234 C 
ATOM     19  H   UNL     1     -35.882  26.926   3.667  0.00  0.00    +0.150 HD
BRANCH  18  20
ATOM     20  C   UNL     1     -37.786  26.281   2.163  0.00  0.00    +0.138 C 
BRANCH  20  21
ATOM     21  S   UNL     1     -36.407  27.359   1.702  0.00  0.00    -0.159 S 
ATOM     22  H   UNL     1     -36.502  28.532   2.384  0.00  0.00    +0.103 HD
ENDBRANCH  20  21
ENDBRANCH  18  20
ENDBRANCH  15  17
ENDBRANCH   3  15
TORSDOF 9
ENDMDL
MODEL 2
REMARK VINA RESULT:      -4.6      2.065      3.321
REMARK  Name = 60778
REMARK  9 active torsions:
REMARK  status: ('A' for Active; 'I' for Inactive)
REMARK    1  A    between atoms: N_2  and  C_5
REMARK    2  A    between atoms: C_3  and  C_15
REMARK    3  A    between atoms: C_5  and  C_8
REMARK    4  A    between atoms: N_7  and  C_10
REMARK    5  A    between atoms: C_10  and  C_12
REMARK    6  A    between atoms: C_12  and  O_13
REMARK    7  A    between atoms: C_15  and  N_17
REMARK    8  A    between atoms: C_18  and  C_20
REMARK    9  A    between atoms: C_20  and  S_21
REMARK                            x       y       z     vdW  Elec       q    Type
REMARK                         _______ _______ _______ _____ _____    ______ ____
ROOT
ATOM      1  O   UNL     1     -36.265  23.597   5.115  0.00  0.00    -0.273 OA
ATOM      2  N   UNL     1     -37.624  25.189   4.103  0.00  0.00    -0.295 N 
ATOM      3  C   UNL     1     -36.604  24.766   4.943  0.00  0.00    +0.243 C 
ATOM      4  H   UNL     1     -37.811  26.153   4.043  0.00  0.00    +0.150 HD
ENDROOT
BRANCH   2   5
ATOM      5  C   UNL     1     -38.427  24.283   3.314  0.00  0.00    +0.176 C 
BRANCH   5   8
ATOM      6  O   UNL     1     -36.910  23.969   1.460  0.00  0.00    -0.273 OA
ATOM      7  N   UNL     1     -37.546  22.130   2.730  0.00  0.00    -0.294 N 
ATOM      8  C   UNL     1     -37.530  23.477   2.399  0.00  0.00    +0.243 C 
ATOM      9  H   UNL     1     -38.079  21.845   3.506  0.00  0.00    +0.150 HD
BRANCH   7  10
ATOM     10  C   UNL     1     -36.818  21.123   1.991  0.00  0.00    +0.200 C 
BRANCH  10  12
ATOM     11  O   UNL     1     -34.667  20.055   2.163  0.00  0.00    -0.248 OA
ATOM     12  C   UNL     1     -35.593  20.632   2.720  0.00  0.00    +0.334 C 
BRANCH  12  13
ATOM     13  O   UNL     1     -35.614  20.888   4.049  0.00  0.00    -0.479 OA
ATOM     14  H   UNL     1     -35.020  21.514   4.414  0.00  0.00    +0.295 HD
ENDBRANCH  12  13
ENDBRANCH  10  12
ENDBRANCH   7  10
ENDBRANCH   5   8
ENDBRANCH   2   5
BRANCH   3  15
ATOM     15  C   UNL     1     -35.903  25.937   5.597  0.00  0.00    +0.176 C 
BRANCH  15  17
ATOM     16  O   UNL     1     -33.245  25.992   4.450  0.00  0.00    -0.274 OA
ATOM     17  N   UNL     1     -35.412  26.828   4.589  0.00  0.00    -0.296 N 
ATOM     18  C   UNL     1     -34.113  26.787   4.090  0.00  0.00    +0.234 C 
ATOM     19  H   UNL     1     -36.026  27.508   4.229  0.00  0.00    +0.150 HD
BRANCH  18  20
ATOM     20  C   UNL     1     -33.837  27.845   3.046  0.00  0.00    +0.138 C 
BRANCH  20  21
ATOM     21  S   UNL     1     -35.358  28.166   2.121  0.00  0.00    -0.159 S 
ATOM     22  H   UNL     1     -35.165  27.857   0.810  0.00  0.00    +0.103 HD
ENDBRANCH  20  21
ENDBRANCH  18  20
ENDBRANCH  15  17
ENDBRANCH   3  15
TORSDOF 9
ENDMDL
MODEL 3
REMARK VINA RESULT:      -4.6      2.925      4.553
REMARK  Name = 60778
REMARK  9 active torsions:
REMARK  status: ('A' for Active; 'I' for Inactive)
REMARK    1  A    between atoms: N_2  and  C_5
REMARK    2  A    between atoms: C_3  and  C_15
REMARK    3  A    between atoms: C_5  and  C_8
REMARK    4  A    between atoms: N_7  and  C_10
REMARK    5  A    between atoms: C_10  and  C_12
REMARK    6  A    between atoms: C_12  and  O_13
REMARK    7  A    between atoms: C_15  and  N_17
REMARK    8  A    between atoms: C_18  and  C_20
REMARK    9  A    between atoms: C_20  and  S_21
REMARK                            x       y       z     vdW  Elec       q    Type
REMARK                         _______ _______ _______ _____ _____    ______ ____
ROOT
ATOM      1  O   UNL     1     -32.966  26.539   3.879  0.00  0.00    -0.273 OA
ATOM      2  N   UNL     1     -35.161  27.294   4.007  0.00  0.00    -0.295 N 
ATOM      3  C   UNL     1     -34.045  26.608   4.463  0.00  0.00    +0.243 C 
ATOM      4  H   UNL     1     -35.976  27.281   4.559  0.00  0.00    +0.150 HD
ENDROOT
BRANCH   2   5
ATOM      5  C   UNL     1     -35.186  28.028   2.762  0.00  0.00    +0.176 C 
BRANCH   5   8
ATOM      6  O   UNL     1     -36.449  27.831   0.712  0.00  0.00    -0.273 OA
ATOM      7  N   UNL     1     -37.143  26.650   2.590  0.00  0.00    -0.294 N 
ATOM      8  C   UNL     1     -36.302  27.499   1.886  0.00  0.00    +0.243 C 
ATOM      9  H   UNL     1     -36.928  26.452   3.529  0.00  0.00    +0.150 HD
BRANCH   7  10
ATOM     10  C   UNL     1     -38.320  26.040   2.012  0.00  0.00    +0.200 C 
BRANCH  10  12
ATOM     11  O   UNL     1     -40.409  26.690   3.015  0.00  0.00    -0.248 OA
ATOM     12  C   UNL     1     -39.458  25.918   2.992  0.00  0.00    +0.334 C 
BRANCH  12  13
ATOM     13  O   UNL     1     -39.329  24.876   3.846  0.00  0.00    -0.479 OA
ATOM     14  H   UNL     1     -39.776  24.071   3.672  0.00  0.00    +0.295 HD
ENDBRANCH  12  13
ENDBRANCH  10  12
ENDBRANCH   7  10
ENDBRANCH   5   8
ENDBRANCH   2   5
BRANCH   3  15
ATOM     15  C   UNL     1     -34.294  25.982   5.819  0.00  0.00    +0.176 C 
BRANCH  15  17
ATOM     16  O   UNL     1     -36.675  24.618   4.893  0.00  0.00    -0.274 OA
ATOM     17  N   UNL     1     -34.482  24.569   5.668  0.00  0.00    -0.296 N 
ATOM     18  C   UNL     1     -35.665  23.993   5.215  0.00  0.00    +0.234 C 
ATOM     19  H   UNL     1     -33.733  23.973   5.899  0.00  0.00    +0.150 HD
BRANCH  18  20
ATOM     20  C   UNL     1     -35.616  22.483   5.163  0.00  0.00    +0.138 C 
BRANCH  20  21
ATOM     21  S   UNL     1     -35.707  21.954   3.435  0.00  0.00    -0.159 S 
ATOM     22  H   UNL     1     -35.215  20.690   3.322  0.00  0.00    +0.103 HD
ENDBRANCH  20  21
ENDBRANCH  18  20
ENDBRANCH  15  17
ENDBRANCH   3  15
TORSDOF 9
ENDMDL
MODEL 4
REMARK VINA RESULT:      -4.5      3.470      4.951
REMARK  Name = 60778
REMARK  9 active torsions:
REMARK  status: ('A' for Active; 'I' for Inactive)
REMARK    1  A    between atoms: N_2  and  C_5
REMARK    2  A    between atoms: C_3  and  C_15
REMARK    3  A    between atoms: C_5  and  C_8
REMARK    4  A    between atoms: N_7  and  C_10
REMARK    5  A    between atoms: C_10  and  C_12
REMARK    6  A    between atoms: C_12  and  O_13
REMARK    7  A    between atoms: C_15  and  N_17
REMARK    8  A    between atoms: C_18  and  C_20
REMARK    9  A    between atoms: C_20  and  S_21
REMARK                            x       y       z     vdW  Elec       q    Type
REMARK                         _______ _______ _______ _____ _____    ______ ____
ROOT
ATOM      1  O   UNL     1     -33.318  25.313   4.209  0.00  0.00    -0.273 OA
ATOM      2  N   UNL     1     -35.031  26.802   4.713  0.00  0.00    -0.295 N 
ATOM      3  C   UNL     1     -33.815  26.436   4.155  0.00  0.00    +0.243 C 
ATOM      4  H   UNL     1     -35.332  27.733   4.610  0.00  0.00    +0.150 HD
ENDROOT
BRANCH   2   5
ATOM      5  C   UNL     1     -35.877  25.883   5.441  0.00  0.00    +0.176 C 
BRANCH   5   8
ATOM      6  O   UNL     1     -37.090  24.048   4.443  0.00  0.00    -0.273 OA
ATOM      7  N   UNL     1     -37.467  26.208   3.674  0.00  0.00    -0.294 N 
ATOM      8  C   UNL     1     -36.877  25.256   4.493  0.00  0.00    +0.243 C 
ATOM      9  H   UNL     1     -37.222  27.152   3.803  0.00  0.00    +0.150 HD
BRANCH   7  10
ATOM     10  C   UNL     1     -38.424  25.882   2.641  0.00  0.00    +0.200 C 
BRANCH  10  12
ATOM     11  O   UNL     1     -40.690  26.684   2.767  0.00  0.00    -0.248 OA
ATOM     12  C   UNL     1     -39.847  25.878   3.140  0.00  0.00    +0.334 C 
BRANCH  12  13
ATOM     13  O   UNL     1     -40.103  24.899   4.039  0.00  0.00    -0.479 OA
ATOM     14  H   UNL     1     -40.975  24.573   4.140  0.00  0.00    +0.295 HD
ENDBRANCH  12  13
ENDBRANCH  10  12
ENDBRANCH   7  10
ENDBRANCH   5   8
ENDBRANCH   2   5
BRANCH   3  15
ATOM     15  C   UNL     1     -33.178  27.589   3.408  0.00  0.00    +0.176 C 
BRANCH  15  17
ATOM     16  O   UNL     1     -30.850  27.790   5.118  0.00  0.00    -0.274 OA
ATOM     17  N   UNL     1     -32.865  28.642   4.328  0.00  0.00    -0.296 N 
ATOM     18  C   UNL     1     -31.719  28.661   5.117  0.00  0.00    +0.234 C 
ATOM     19  H   UNL     1     -33.497  29.394   4.407  0.00  0.00    +0.150 HD
BRANCH  18  20
ATOM     20  C   UNL     1     -31.630  29.872   6.017  0.00  0.00    +0.138 C 
BRANCH  20  21
ATOM     21  S   UNL     1     -31.232  31.322   5.011  0.00  0.00    -0.159 S 
ATOM     22  H   UNL     1     -30.772  30.918   3.796  0.00  0.00    +0.103 HD
ENDBRANCH  20  21
ENDBRANCH  18  20
ENDBRANCH  15  17
ENDBRANCH   3  15
TORSDOF 9
ENDMDL
MODEL 5
REMARK VINA RESULT:      -4.5      1.547      1.573
REMARK  Name = 60778
REMARK  9 active torsions:
REMARK  status: ('A' for Active; 'I' for Inactive)
REMARK    1  A    between atoms: N_2  and  C_5
REMARK    2  A    between atoms: C_3  and  C_15
REMARK    3  A    between atoms: C_5  and  C_8
REMARK    4  A    between atoms: N_7  and  C_10
REMARK    5  A    between atoms: C_10  and  C_12
REMARK    6  A    between atoms: C_12  and  O_13
REMARK    7  A    between atoms: C_15  and  N_17
REMARK    8  A    between atoms: C_18  and  C_20
REMARK    9  A    between atoms: C_20  and  S_21
REMARK                            x       y       z     vdW  Elec       q    Type
REMARK                         _______ _______ _______ _____ _____    ______ ____
ROOT
ATOM      1  O   UNL     1     -34.573  24.683   3.767  0.00  0.00    -0.273 OA
ATOM      2  N   UNL     1     -36.196  23.295   4.686  0.00  0.00    -0.295 N 
ATOM      3  C   UNL     1     -35.628  24.522   4.378  0.00  0.00    +0.243 C 
ATOM      4  H   UNL     1     -37.046  23.284   5.181  0.00  0.00    +0.150 HD
ENDROOT
BRANCH   2   5
ATOM      5  C   UNL     1     -35.601  22.031   4.316  0.00  0.00    +0.176 C 
BRANCH   5   8
ATOM      6  O   UNL     1     -35.239  21.344   2.028  0.00  0.00    -0.273 OA
ATOM      7  N   UNL     1     -37.404  21.772   2.755  0.00  0.00    -0.294 N 
ATOM      8  C   UNL     1     -36.030  21.660   2.913  0.00  0.00    +0.243 C 
ATOM      9  H   UNL     1     -37.945  22.033   3.535  0.00  0.00    +0.150 HD
BRANCH   7  10
ATOM     10  C   UNL     1     -38.082  21.527   1.501  0.00  0.00    +0.200 C 
BRANCH  10  12
ATOM     11  O   UNL     1     -40.077  22.769   0.983  0.00  0.00    -0.248 OA
ATOM     12  C   UNL     1     -39.558  21.824   1.565  0.00  0.00    +0.334 C 
BRANCH  12  13
ATOM     13  O   UNL     1     -40.255  20.949   2.326  0.00  0.00    -0.479 OA
ATOM     14  H   UNL     1     -40.969  21.252   2.852  0.00  0.00    +0.295 HD
ENDBRANCH  12  13
ENDBRANCH  10  12
ENDBRANCH   7  10
ENDBRANCH   5   8
ENDBRANCH   2   5
BRANCH   3  15
ATOM     15  C   UNL     1     -36.500  25.670   4.842  0.00  0.00    +0.176 C 
BRANCH  15  17
ATOM     16  O   UNL     1     -38.855  24.415   3.718  0.00  0.00    -0.274 OA
ATOM     17  N   UNL     1     -37.296  26.141   3.747  0.00  0.00    -0.296 N 
ATOM     18  C   UNL     1     -38.418  25.473   3.267  0.00  0.00    +0.234 C 
ATOM     19  H   UNL     1     -37.033  26.984   3.310  0.00  0.00    +0.150 HD
BRANCH  18  20
ATOM     20  C   UNL     1     -39.072  26.166   2.094  0.00  0.00    +0.138 C 
BRANCH  20  21
ATOM     21  S   UNL     1     -40.869  26.071   2.284  0.00  0.00    -0.159 S 
ATOM     22  H   UNL     1     -41.314  27.174   2.943  0.00  0.00    +0.103 HD
ENDBRANCH  20  21
ENDBRANCH  18  20
ENDBRANCH  15  17
ENDBRANCH   3  15
TORSDOF 9
ENDMDL
MODEL 6
REMARK VINA RESULT:      -4.5      4.701      7.737
REMARK  Name = 60778
REMARK  9 active torsions:
REMARK  status: ('A' for Active; 'I' for Inactive)
REMARK    1  A    between atoms: N_2  and  C_5
REMARK    2  A    between atoms: C_3  and  C_15
REMARK    3  A    between atoms: C_5  and  C_8
REMARK    4  A    between atoms: N_7  and  C_10
REMARK    5  A    between atoms: C_10  and  C_12
REMARK    6  A    between atoms: C_12  and  O_13
REMARK    7  A    between atoms: C_15  and  N_17
REMARK    8  A    between atoms: C_18  and  C_20
REMARK    9  A    between atoms: C_20  and  S_21
REMARK                            x       y       z     vdW  Elec       q    Type
REMARK                         _______ _______ _______ _____ _____    ______ ____
ROOT
ATOM      1  O   UNL     1     -33.459  25.106   4.620  0.00  0.00    -0.273 OA
ATOM      2  N   UNL     1     -33.641  27.363   5.145  0.00  0.00    -0.295 N 
ATOM      3  C   UNL     1     -34.094  26.054   5.077  0.00  0.00    +0.243 C 
ATOM      4  H   UNL     1     -34.237  28.045   5.531  0.00  0.00    +0.150 HD
ENDROOT
BRANCH   2   5
ATOM      5  C   UNL     1     -32.338  27.776   4.676  0.00  0.00    +0.176 C 
BRANCH   5   8
ATOM      6  O   UNL     1     -32.189  29.081   6.703  0.00  0.00    -0.273 OA
ATOM      7  N   UNL     1     -30.238  28.494   5.587  0.00  0.00    -0.294 N 
ATOM      8  C   UNL     1     -31.611  28.511   5.782  0.00  0.00    +0.243 C 
ATOM      9  H   UNL     1     -29.881  28.003   4.812  0.00  0.00    +0.150 HD
BRANCH   7  10
ATOM     10  C   UNL     1     -29.303  29.162   6.465  0.00  0.00    +0.200 C 
BRANCH  10  12
ATOM     11  O   UNL     1     -27.620  28.563   8.077  0.00  0.00    -0.248 OA
ATOM     12  C   UNL     1     -28.498  28.203   7.303  0.00  0.00    +0.334 C 
BRANCH  12  13
ATOM     13  O   UNL     1     -28.837  26.906   7.118  0.00  0.00    -0.479 OA
ATOM     14  H   UNL     1     -29.719  26.626   7.267  0.00  0.00    +0.295 HD
ENDBRANCH  12  13
ENDBRANCH  10  12
ENDBRANCH   7  10
ENDBRANCH   5   8
ENDBRANCH   2   5
BRANCH   3  15
ATOM     15  C   UNL     1     -35.470  25.910   5.691  0.00  0.00    +0.176 C 
BRANCH  15  17
ATOM     16  O   UNL     1     -37.091  24.015   4.219  0.00  0.00    -0.274 OA
ATOM     17  N   UNL     1     -36.469  26.203   4.707  0.00  0.00    -0.296 N 
ATOM     18  C   UNL     1     -37.206  25.227   4.043  0.00  0.00    +0.234 C 
ATOM     19  H   UNL     1     -36.643  27.147   4.487  0.00  0.00    +0.150 HD
BRANCH  18  20
ATOM     20  C   UNL     1     -38.183  25.793   3.038  0.00  0.00    +0.138 C 
BRANCH  20  21
ATOM     21  S   UNL     1     -39.717  24.836   3.109  0.00  0.00    -0.159 S 
ATOM     22  H   UNL     1     -40.556  25.393   4.024  0.00  0.00    +0.103 HD
ENDBRANCH  20  21
ENDBRANCH  18  20
ENDBRANCH  15  17
ENDBRANCH   3  15
TORSDOF 9
ENDMDL
MODEL 7
REMARK VINA RESULT:      -4.5      2.583      4.136
REMARK  Name = 60778
REMARK  9 active torsions:
REMARK  status: ('A' for Active; 'I' for Inactive)
REMARK    1  A    between atoms: N_2  and  C_5
REMARK    2  A    between atoms: C_3  and  C_15
REMARK    3  A    between atoms: C_5  and  C_8
REMARK    4  A    between atoms: N_7  and  C_10
REMARK    5  A    between atoms: C_10  and  C_12
REMARK    6  A    between atoms: C_12  and  O_13
REMARK    7  A    between atoms: C_15  and  N_17
REMARK    8  A    between atoms: C_18  and  C_20
REMARK    9  A    between atoms: C_20  and  S_21
REMARK                            x       y       z     vdW  Elec       q    Type
REMARK                         _______ _______ _______ _____ _____    ______ ____
ROOT
ATOM      1  O   UNL     1     -38.420  26.454   2.668  0.00  0.00    -0.273 OA
ATOM      2  N   UNL     1     -38.010  24.669   4.099  0.00  0.00    -0.295 N 
ATOM      3  C   UNL     1     -38.746  25.376   3.161  0.00  0.00    +0.243 C 
ATOM      4  H   UNL     1     -38.368  23.813   4.427  0.00  0.00    +0.150 HD
ENDROOT
BRANCH   2   5
ATOM      5  C   UNL     1     -36.742  25.127   4.621  0.00  0.00    +0.176 C 
BRANCH   5   8
ATOM      6  O   UNL     1     -34.665  24.051   5.224  0.00  0.00    -0.273 OA
ATOM      7  N   UNL     1     -36.341  22.796   4.216  0.00  0.00    -0.294 N 
ATOM      8  C   UNL     1     -35.793  23.955   4.747  0.00  0.00    +0.243 C 
ATOM      9  H   UNL     1     -37.258  22.834   3.859  0.00  0.00    +0.150 HD
BRANCH   7  10
ATOM     10  C   UNL     1     -35.634  21.537   4.159  0.00  0.00    +0.200 C 
BRANCH  10  12
ATOM     11  O   UNL     1     -34.996  21.251   1.855  0.00  0.00    -0.248 OA
ATOM     12  C   UNL     1     -35.693  20.893   2.797  0.00  0.00    +0.334 C 
BRANCH  12  13
ATOM     13  O   UNL     1     -36.589  19.882   2.714  0.00  0.00    -0.479 OA
ATOM     14  H   UNL     1     -36.837  19.412   3.485  0.00  0.00    +0.295 HD
ENDBRANCH  12  13
ENDBRANCH  10  12
ENDBRANCH   7  10
ENDBRANCH   5   8
ENDBRANCH   2   5
BRANCH   3  15
ATOM     15  C   UNL     1     -40.000  24.629   2.761  0.00  0.00    +0.176 C 
BRANCH  15  17
ATOM     16  O   UNL     1     -38.654  22.109   2.290  0.00  0.00    -0.274 OA
ATOM     17  N   UNL     1     -39.791  23.979   1.501  0.00  0.00    -0.296 N 
ATOM     18  C   UNL     1     -39.130  22.762   1.362  0.00  0.00    +0.234 C 
ATOM     19  H   UNL     1     -40.133  24.418   0.689  0.00  0.00    +0.150 HD
BRANCH  18  20
ATOM     20  C   UNL     1     -39.023  22.298  -0.072  0.00  0.00    +0.138 C 
BRANCH  20  21
ATOM     21  S   UNL     1     -38.888  20.494  -0.096  0.00  0.00    -0.159 S 
ATOM     22  H   UNL     1     -39.632  19.997  -1.120  0.00  0.00    +0.103 HD
ENDBRANCH  20  21
ENDBRANCH  18  20
ENDBRANCH  15  17
ENDBRANCH   3  15
TORSDOF 9
ENDMDL
MODEL 8
REMARK VINA RESULT:      -4.4      5.026      6.548
REMARK  Name = 60778
REMARK  9 active torsions:
REMARK  status: ('A' for Active; 'I' for Inactive)
REMARK    1  A    between atoms: N_2  and  C_5
REMARK    2  A    between atoms: C_3  and  C_15
REMARK    3  A    between atoms: C_5  and  C_8
REMARK    4  A    between atoms: N_7  and  C_10
REMARK    5  A    between atoms: C_10  and  C_12
REMARK    6  A    between atoms: C_12  and  O_13
REMARK    7  A    between atoms: C_15  and  N_17
REMARK    8  A    between atoms: C_18  and  C_20
REMARK    9  A    between atoms: C_20  and  S_21
REMARK                            x       y       z     vdW  Elec       q    Type
REMARK                         _______ _______ _______ _____ _____    ______ ____
ROOT
ATOM      1  O   UNL     1     -31.535  27.846   4.228  0.00  0.00    -0.273 OA
ATOM      2  N   UNL     1     -33.396  27.264   5.495  0.00  0.00    -0.295 N 
ATOM      3  C   UNL     1     -32.195  27.919   5.262  0.00  0.00    +0.243 C 
ATOM      4  H   UNL     1     -33.840  27.395   6.363  0.00  0.00    +0.150 HD
ENDROOT
BRANCH   2   5
ATOM      5  C   UNL     1     -34.027  26.398   4.524  0.00  0.00    +0.176 C 
BRANCH   5   8
ATOM      6  O   UNL     1     -36.062  25.933   5.741  0.00  0.00    -0.273 OA
ATOM      7  N   UNL     1     -34.620  24.183   5.231  0.00  0.00    -0.294 N 
ATOM      8  C   UNL     1     -35.034  25.508   5.220  0.00  0.00    +0.243 C 
ATOM      9  H   UNL     1     -33.776  23.954   4.780  0.00  0.00    +0.150 HD
BRANCH   7  10
ATOM     10  C   UNL     1     -35.366  23.124   5.873  0.00  0.00    +0.200 C 
BRANCH  10  12
ATOM     11  O   UNL     1     -35.501  21.840   3.841  0.00  0.00    -0.248 OA
ATOM     12  C   UNL     1     -35.396  21.854   5.062  0.00  0.00    +0.334 C 
BRANCH  12  13
ATOM     13  O   UNL     1     -35.297  20.731   5.810  0.00  0.00    -0.479 OA
ATOM     14  H   UNL     1     -35.156  19.903   5.394  0.00  0.00    +0.295 HD
ENDBRANCH  12  13
ENDBRANCH  10  12
ENDBRANCH   7  10
ENDBRANCH   5   8
ENDBRANCH   2   5
BRANCH   3  15
ATOM     15  C   UNL     1     -31.807  28.797   6.432  0.00  0.00    +0.176 C 
BRANCH  15  17
ATOM     16  O   UNL     1     -29.510  30.465   5.864  0.00  0.00    -0.274 OA
ATOM     17  N   UNL     1     -30.442  28.545   6.789  0.00  0.00    -0.296 N 
ATOM     18  C   UNL     1     -29.393  29.404   6.475  0.00  0.00    +0.234 C 
ATOM     19  H   UNL     1     -30.235  27.719   7.284  0.00  0.00    +0.150 HD
BRANCH  18  20
ATOM     20  C   UNL     1     -28.047  28.903   6.946  0.00  0.00    +0.138 C 
BRANCH  20  21
ATOM     21  S   UNL     1     -28.081  27.095   7.002  0.00  0.00    -0.159 S 
ATOM     22  H   UNL     1     -29.307  26.678   7.417  0.00  0.00    +0.103 HD
ENDBRANCH  20  21
ENDBRANCH  18  20
ENDBRANCH  15  17
ENDBRANCH   3  15
TORSDOF 9
ENDMDL
MODEL 9
REMARK VINA RESULT:      -4.4      3.872      5.796
REMARK  Name = 60778
REMARK  9 active torsions:
REMARK  status: ('A' for Active; 'I' for Inactive)
REMARK    1  A    between atoms: N_2  and  C_5
REMARK    2  A    between atoms: C_3  and  C_15
REMARK    3  A    between atoms: C_5  and  C_8
REMARK    4  A    between atoms: N_7  and  C_10
REMARK    5  A    between atoms: C_10  and  C_12
REMARK    6  A    between atoms: C_12  and  O_13
REMARK    7  A    between atoms: C_15  and  N_17
REMARK    8  A    between atoms: C_18  and  C_20
REMARK    9  A    between atoms: C_20  and  S_21
REMARK                            x       y       z     vdW  Elec       q    Type
REMARK                         _______ _______ _______ _____ _____    ______ ____
ROOT
ATOM      1  O   UNL     1     -40.008  26.645   2.058  0.00  0.00    -0.273 OA
ATOM      2  N   UNL     1     -39.432  25.046   3.645  0.00  0.00    -0.295 N 
ATOM      3  C   UNL     1     -40.237  26.037   3.101  0.00  0.00    +0.243 C 
ATOM      4  H   UNL     1     -39.714  24.626   4.489  0.00  0.00    +0.150 HD
ENDROOT
BRANCH   2   5
ATOM      5  C   UNL     1     -38.200  24.602   3.034  0.00  0.00    +0.176 C 
BRANCH   5   8
ATOM      6  O   UNL     1     -36.613  23.465   4.457  0.00  0.00    -0.273 OA
ATOM      7  N   UNL     1     -36.805  25.777   4.592  0.00  0.00    -0.294 N 
ATOM      8  C   UNL     1     -37.113  24.523   4.085  0.00  0.00    +0.243 C 
ATOM      9  H   UNL     1     -37.269  26.560   4.218  0.00  0.00    +0.150 HD
BRANCH   7  10
ATOM     10  C   UNL     1     -35.836  25.991   5.644  0.00  0.00    +0.200 C 
BRANCH  10  12
ATOM     11  O   UNL     1     -33.891  27.214   4.929  0.00  0.00    -0.248 OA
ATOM     12  C   UNL     1     -34.428  26.131   5.125  0.00  0.00    +0.334 C 
BRANCH  12  13
ATOM     13  O   UNL     1     -33.815  24.947   4.895  0.00  0.00    -0.479 OA
ATOM     14  H   UNL     1     -33.774  24.302   5.573  0.00  0.00    +0.295 HD
ENDBRANCH  12  13
ENDBRANCH  10  12
ENDBRANCH   7  10
ENDBRANCH   5   8
ENDBRANCH   2   5
BRANCH   3  15
ATOM     15  C   UNL     1     -41.487  26.253   3.929  0.00  0.00    +0.176 C 
BRANCH  15  17
ATOM     16  O   UNL     1     -42.145  28.959   4.717  0.00  0.00    -0.274 OA
ATOM     17  N   UNL     1     -42.359  27.166   3.251  0.00  0.00    -0.296 N 
ATOM     18  C   UNL     1     -42.622  28.456   3.701  0.00  0.00    +0.234 C 
ATOM     19  H   UNL     1     -42.797  26.863   2.423  0.00  0.00    +0.150 HD
BRANCH  18  20
ATOM     20  C   UNL     1     -43.590  29.212   2.820  0.00  0.00    +0.138 C 
BRANCH  20  21
ATOM     21  S   UNL     1     -43.054  29.064   1.099  0.00  0.00    -0.159 S 
ATOM     22  H   UNL     1     -44.137  28.843   0.305  0.00  0.00    +0.103 HD
ENDBRANCH  20  21
ENDBRANCH  18  20
ENDBRANCH  15  17
ENDBRANCH   3  15
TORSDOF 9
ENDMDL
