MODEL 1
REMARK VINA RESULT:      -5.9      0.000      0.000
REMARK  Name = 53318848
REMARK  5 active torsions:
REMARK  status: ('A' for Active; 'I' for Inactive)
REMARK    1  A    between atoms: C_2  and  N_7
REMARK    2  A    between atoms: C_3  and  O_19
REMARK    3  A    between atoms: C_4  and  O_21
REMARK    4  A    between atoms: C_5  and  C_23
REMARK    5  A    between atoms: C_23  and  O_24
REMARK                            x       y       z     vdW  Elec       q    Type
REMARK                         _______ _______ _______ _____ _____    ______ ____
ROOT
ATOM      1  I   UNL     1     -35.287  22.431   5.119  0.00  0.00    -0.046 I 
ATOM      2  C   UNL     1     -36.828  24.909   4.099  0.00  0.00    +0.133 C 
ATOM      3  C   UNL     1     -38.076  25.140   3.223  0.00  0.00    +0.164 C 
ATOM      4  C   UNL     1     -38.070  24.011   2.183  0.00  0.00    +0.160 C 
ATOM      5  C   UNL     1     -37.250  22.936   2.848  0.00  0.00    +0.017 C 
ATOM      6  C   UNL     1     -36.551  23.436   3.882  0.00  0.00    +0.025 C 
ENDROOT
BRANCH   2   7
ATOM      7  N   UNL     1     -35.672  25.830   3.754  0.00  0.00    -0.267 N 
ATOM      8  N   UNL     1     -34.332  27.125   2.531  0.00  0.00    -0.242 NA
ATOM      9  N   UNL     1     -34.575  26.016   5.913  0.00  0.00    -0.228 NA
ATOM     10  N   UNL     1     -32.608  27.454   5.786  0.00  0.00    -0.229 NA
ATOM     11  C   UNL     1     -34.706  26.283   4.606  0.00  0.00    +0.151 C 
ATOM     12  C   UNL     1     -35.406  26.362   2.521  0.00  0.00    +0.221 C 
ATOM     13  C   UNL     1     -33.885  27.084   3.828  0.00  0.00    +0.140 C 
ATOM     14  C   UNL     1     -32.802  27.681   4.465  0.00  0.00    +0.143 C 
ATOM     15  C   UNL     1     -33.492  26.647   6.419  0.00  0.00    +0.253 C 
ATOM     16  N   UNL     1     -31.917  28.511   3.753  0.00  0.00    -0.342 N 
ATOM     17  H   UNL     1     -31.154  28.928   4.214  0.00  0.00    +0.144 HD
ATOM     18  H   UNL     1     -32.062  28.674   2.793  0.00  0.00    +0.144 HD
ENDBRANCH   2   7
BRANCH   3  19
ATOM     19  O   UNL     1     -39.228  25.049   4.065  0.00  0.00    -0.380 OA
ATOM     20  H   UNL     1     -39.217  24.202   4.538  0.00  0.00    +0.211 HD
ENDBRANCH   3  19
BRANCH   4  21
ATOM     21  O   UNL     1     -39.388  23.595   1.877  0.00  0.00    -0.378 OA
ATOM     22  H   UNL     1     -39.887  23.470   2.699  0.00  0.00    +0.211 HD
ENDBRANCH   4  21
BRANCH   5  23
ATOM     23  C   UNL     1     -37.254  21.555   2.280  0.00  0.00    +0.162 C 
BRANCH  23  24
ATOM     24  O   UNL     1     -38.554  20.997   2.371  0.00  0.00    -0.377 OA
ATOM     25  H   UNL     1     -39.184  21.688   2.630  0.00  0.00    +0.211 HD
ENDBRANCH  23  24
ENDBRANCH   5  23
TORSDOF 5
ENDMDL
MODEL 2
REMARK VINA RESULT:      -5.8      2.467      3.599
REMARK  Name = 53318848
REMARK  5 active torsions:
REMARK  status: ('A' for Active; 'I' for Inactive)
REMARK    1  A    between atoms: C_2  and  N_7
REMARK    2  A    between atoms: C_3  and  O_19
REMARK    3  A    between atoms: C_4  and  O_21
REMARK    4  A    between atoms: C_5  and  C_23
REMARK    5  A    between atoms: C_23  and  O_24
REMARK                            x       y       z     vdW  Elec       q    Type
REMARK                         _______ _______ _______ _____ _____    ______ ____
ROOT
ATOM      1  I   UNL     1     -35.456  20.497   1.921  0.00  0.00    -0.046 I 
ATOM      2  C   UNL     1     -38.121  21.991   2.401  0.00  0.00    +0.133 C 
ATOM      3  C   UNL     1     -39.552  21.888   1.836  0.00  0.00    +0.164 C 
ATOM      4  C   UNL     1     -39.391  21.476   0.366  0.00  0.00    +0.160 C 
ATOM      5  C   UNL     1     -38.039  20.814   0.340  0.00  0.00    +0.017 C 
ATOM      6  C   UNL     1     -37.334  21.117   1.445  0.00  0.00    +0.025 C 
ENDROOT
BRANCH   2   7
ATOM      7  N   UNL     1     -37.620  23.419   2.514  0.00  0.00    -0.267 N 
ATOM      8  N   UNL     1     -37.277  25.555   1.982  0.00  0.00    -0.242 NA
ATOM      9  N   UNL     1     -36.423  23.318   4.625  0.00  0.00    -0.228 NA
ATOM     10  N   UNL     1     -35.436  25.478   5.189  0.00  0.00    -0.229 NA
ATOM     11  C   UNL     1     -36.870  23.944   3.527  0.00  0.00    +0.151 C 
ATOM     12  C   UNL     1     -37.839  24.423   1.610  0.00  0.00    +0.221 C 
ATOM     13  C   UNL     1     -36.668  25.270   3.178  0.00  0.00    +0.140 C 
ATOM     14  C   UNL     1     -35.920  26.045   4.058  0.00  0.00    +0.143 C 
ATOM     15  C   UNL     1     -35.713  24.168   5.399  0.00  0.00    +0.253 C 
ATOM     16  N   UNL     1     -35.667  27.401   3.784  0.00  0.00    -0.342 N 
ATOM     17  H   UNL     1     -35.137  27.940   4.413  0.00  0.00    +0.144 HD
ATOM     18  H   UNL     1     -36.021  27.811   2.961  0.00  0.00    +0.144 HD
ENDBRANCH   2   7
BRANCH   3  19
ATOM     19  O   UNL     1     -40.245  20.878   2.574  0.00  0.00    -0.380 OA
ATOM     20  H   UNL     1     -39.740  20.049   2.540  0.00  0.00    +0.211 HD
ENDBRANCH   3  19
BRANCH   4  21
ATOM     21  O   UNL     1     -40.440  20.615  -0.038  0.00  0.00    -0.378 OA
ATOM     22  H   UNL     1     -40.211  20.201  -0.884  0.00  0.00    +0.211 HD
ENDBRANCH   4  21
BRANCH   5  23
ATOM     23  C   UNL     1     -37.638  20.011  -0.853  0.00  0.00    +0.162 C 
BRANCH  23  24
ATOM     24  O   UNL     1     -38.247  18.732  -0.804  0.00  0.00    -0.377 OA
ATOM     25  H   UNL     1     -37.965  18.211  -1.572  0.00  0.00    +0.211 HD
ENDBRANCH  23  24
ENDBRANCH   5  23
TORSDOF 5
ENDMDL
MODEL 3
REMARK VINA RESULT:      -5.7      3.612      6.375
REMARK  Name = 53318848
REMARK  5 active torsions:
REMARK  status: ('A' for Active; 'I' for Inactive)
REMARK    1  A    between atoms: C_2  and  N_7
REMARK    2  A    between atoms: C_3  and  O_19
REMARK    3  A    between atoms: C_4  and  O_21
REMARK    4  A    between atoms: C_5  and  C_23
REMARK    5  A    between atoms: C_23  and  O_24
REMARK                            x       y       z     vdW  Elec       q    Type
REMARK                         _______ _______ _______ _____ _____    ______ ____
ROOT
ATOM      1  I   UNL     1     -33.801  25.594   1.291  0.00  0.00    -0.046 I 
ATOM      2  C   UNL     1     -36.433  24.699   2.645  0.00  0.00    +0.133 C 
ATOM      3  C   UNL     1     -37.210  25.114   3.911  0.00  0.00    +0.164 C 
ATOM      4  C   UNL     1     -36.145  25.500   4.946  0.00  0.00    +0.160 C 
ATOM      5  C   UNL     1     -34.954  25.858   4.096  0.00  0.00    +0.017 C 
ATOM      6  C   UNL     1     -35.102  25.397   2.842  0.00  0.00    +0.025 C 
ENDROOT
BRANCH   2   7
ATOM      7  N   UNL     1     -36.341  23.196   2.460  0.00  0.00    -0.267 N 
ATOM      8  N   UNL     1     -35.712  21.087   2.816  0.00  0.00    -0.242 NA
ATOM      9  N   UNL     1     -37.826  22.875   0.565  0.00  0.00    -0.228 NA
ATOM     10  N   UNL     1     -37.959  20.521  -0.067  0.00  0.00    -0.229 NA
ATOM     11  C   UNL     1     -36.984  22.447   1.518  0.00  0.00    +0.151 C 
ATOM     12  C   UNL     1     -35.589  22.336   3.216  0.00  0.00    +0.221 C 
ATOM     13  C   UNL     1     -36.581  21.142   1.755  0.00  0.00    +0.140 C 
ATOM     14  C   UNL     1     -37.102  20.161   0.918  0.00  0.00    +0.143 C 
ATOM     15  C   UNL     1     -38.263  21.836  -0.181  0.00  0.00    +0.253 C 
ATOM     16  N   UNL     1     -36.748  18.810   1.087  0.00  0.00    -0.342 N 
ATOM     17  H   UNL     1     -37.123  18.124   0.489  0.00  0.00    +0.144 HD
ATOM     18  H   UNL     1     -36.125  18.551   1.804  0.00  0.00    +0.144 HD
ENDBRANCH   2   7
BRANCH   3  19
ATOM     19  O   UNL     1     -38.027  26.239   3.576  0.00  0.00    -0.380 OA
ATOM     20  H   UNL     1     -37.538  27.058   3.755  0.00  0.00    +0.211 HD
ENDBRANCH   3  19
BRANCH   4  21
ATOM     21  O   UNL     1     -36.591  26.572   5.757  0.00  0.00    -0.378 OA
ATOM     22  H   UNL     1     -37.075  26.220   6.520  0.00  0.00    +0.211 HD
ENDBRANCH   4  21
BRANCH   5  23
ATOM     23  C   UNL     1     -33.798  26.571   4.717  0.00  0.00    +0.162 C 
BRANCH  23  24
ATOM     24  O   UNL     1     -33.908  26.535   6.130  0.00  0.00    -0.377 OA
ATOM     25  H   UNL     1     -33.687  27.407   6.493  0.00  0.00    +0.211 HD
ENDBRANCH  23  24
ENDBRANCH   5  23
TORSDOF 5
ENDMDL
MODEL 4
REMARK VINA RESULT:      -5.6      3.616      6.316
REMARK  Name = 53318848
REMARK  5 active torsions:
REMARK  status: ('A' for Active; 'I' for Inactive)
REMARK    1  A    between atoms: C_2  and  N_7
REMARK    2  A    between atoms: C_3  and  O_19
REMARK    3  A    between atoms: C_4  and  O_21
REMARK    4  A    between atoms: C_5  and  C_23
REMARK    5  A    between atoms: C_23  and  O_24
REMARK                            x       y       z     vdW  Elec       q    Type
REMARK                         _______ _______ _______ _____ _____    ______ ____
ROOT
ATOM      1  I   UNL     1     -35.425  27.260   1.234  0.00  0.00    -0.046 I 
ATOM      2  C   UNL     1     -36.198  25.553   3.694  0.00  0.00    +0.133 C 
ATOM      3  C   UNL     1     -35.765  25.503   5.173  0.00  0.00    +0.164 C 
ATOM      4  C   UNL     1     -34.274  25.868   5.183  0.00  0.00    +0.160 C 
ATOM      5  C   UNL     1     -34.102  26.648   3.906  0.00  0.00    +0.017 C 
ATOM      6  C   UNL     1     -35.145  26.455   3.081  0.00  0.00    +0.025 C 
ENDROOT
BRANCH   2   7
ATOM      7  N   UNL     1     -36.310  24.182   3.053  0.00  0.00    -0.267 N 
ATOM      8  N   UNL     1     -35.677  22.249   2.143  0.00  0.00    -0.242 NA
ATOM      9  N   UNL     1     -38.723  23.921   2.951  0.00  0.00    -0.228 NA
ATOM     10  N   UNL     1     -39.341  21.781   1.954  0.00  0.00    -0.229 NA
ATOM     11  C   UNL     1     -37.461  23.514   2.749  0.00  0.00    +0.151 C 
ATOM     12  C   UNL     1     -35.266  23.384   2.671  0.00  0.00    +0.221 C 
ATOM     13  C   UNL     1     -37.046  22.317   2.186  0.00  0.00    +0.140 C 
ATOM     14  C   UNL     1     -38.043  21.435   1.781  0.00  0.00    +0.143 C 
ATOM     15  C   UNL     1     -39.597  22.985   2.519  0.00  0.00    +0.253 C 
ATOM     16  N   UNL     1     -37.713  20.197   1.199  0.00  0.00    -0.342 N 
ATOM     17  H   UNL     1     -38.426  19.580   0.917  0.00  0.00    +0.144 HD
ATOM     18  H   UNL     1     -36.768  19.948   1.076  0.00  0.00    +0.144 HD
ENDBRANCH   2   7
BRANCH   3  19
ATOM     19  O   UNL     1     -36.531  26.476   5.889  0.00  0.00    -0.380 OA
ATOM     20  H   UNL     1     -37.472  26.241   5.848  0.00  0.00    +0.211 HD
ENDBRANCH   3  19
BRANCH   4  21
ATOM     21  O   UNL     1     -33.941  26.615   6.340  0.00  0.00    -0.378 OA
ATOM     22  H   UNL     1     -33.163  26.223   6.765  0.00  0.00    +0.211 HD
ENDBRANCH   4  21
BRANCH   5  23
ATOM     23  C   UNL     1     -32.851  27.434   3.691  0.00  0.00    +0.162 C 
BRANCH  23  24
ATOM     24  O   UNL     1     -32.887  28.624   4.461  0.00  0.00    -0.377 OA
ATOM     25  H   UNL     1     -33.652  28.600   5.056  0.00  0.00    +0.211 HD
ENDBRANCH  23  24
ENDBRANCH   5  23
TORSDOF 5
ENDMDL
MODEL 5
REMARK VINA RESULT:      -5.6      4.062      5.754
REMARK  Name = 53318848
REMARK  5 active torsions:
REMARK  status: ('A' for Active; 'I' for Inactive)
REMARK    1  A    between atoms: C_2  and  N_7
REMARK    2  A    between atoms: C_3  and  O_19
REMARK    3  A    between atoms: C_4  and  O_21
REMARK    4  A    between atoms: C_5  and  C_23
REMARK    5  A    between atoms: C_23  and  O_24
REMARK                            x       y       z     vdW  Elec       q    Type
REMARK                         _______ _______ _______ _____ _____    ______ ____
ROOT
ATOM      1  I   UNL     1     -39.221  21.887   1.497  0.00  0.00    -0.046 I 
ATOM      2  C   UNL     1     -36.512  22.240   2.945  0.00  0.00    +0.133 C 
ATOM      3  C   UNL     1     -35.988  23.134   4.087  0.00  0.00    +0.164 C 
ATOM      4  C   UNL     1     -36.732  24.469   3.946  0.00  0.00    +0.160 C 
ATOM      5  C   UNL     1     -37.980  24.089   3.193  0.00  0.00    +0.017 C 
ATOM      6  C   UNL     1     -37.848  22.878   2.625  0.00  0.00    +0.025 C 
ENDROOT
BRANCH   2   7
ATOM      7  N   UNL     1     -35.557  22.143   1.769  0.00  0.00    -0.267 N 
ATOM      8  N   UNL     1     -34.458  22.735  -0.077  0.00  0.00    -0.242 NA
ATOM      9  N   UNL     1     -34.629  19.925   2.114  0.00  0.00    -0.228 NA
ATOM     10  N   UNL     1     -33.001  19.367   0.383  0.00  0.00    -0.229 NA
ATOM     11  C   UNL     1     -34.750  21.088   1.456  0.00  0.00    +0.151 C 
ATOM     12  C   UNL     1     -35.347  23.108   0.821  0.00  0.00    +0.221 C 
ATOM     13  C   UNL     1     -34.077  21.475   0.308  0.00  0.00    +0.140 C 
ATOM     14  C   UNL     1     -33.174  20.563  -0.229  0.00  0.00    +0.143 C 
ATOM     15  C   UNL     1     -33.729  19.125   1.500  0.00  0.00    +0.253 C 
ATOM     16  N   UNL     1     -32.446  20.873  -1.393  0.00  0.00    -0.342 N 
ATOM     17  H   UNL     1     -31.810  20.220  -1.764  0.00  0.00    +0.144 HD
ATOM     18  H   UNL     1     -32.574  21.743  -1.835  0.00  0.00    +0.144 HD
ENDBRANCH   2   7
BRANCH   3  19
ATOM     19  O   UNL     1     -36.312  22.499   5.326  0.00  0.00    -0.380 OA
ATOM     20  H   UNL     1     -36.916  23.066   5.832  0.00  0.00    +0.211 HD
ENDBRANCH   3  19
BRANCH   4  21
ATOM     21  O   UNL     1     -36.999  25.038   5.215  0.00  0.00    -0.378 OA
ATOM     22  H   UNL     1     -36.494  24.565   5.894  0.00  0.00    +0.211 HD
ENDBRANCH   4  21
BRANCH   5  23
ATOM     23  C   UNL     1     -39.112  25.060   3.113  0.00  0.00    +0.162 C 
BRANCH  23  24
ATOM     24  O   UNL     1     -38.645  26.373   3.375  0.00  0.00    -0.377 OA
ATOM     25  H   UNL     1     -38.335  26.428   4.293  0.00  0.00    +0.211 HD
ENDBRANCH  23  24
ENDBRANCH   5  23
TORSDOF 5
ENDMDL
MODEL 6
REMARK VINA RESULT:      -5.5      1.419      2.472
REMARK  Name = 53318848
REMARK  5 active torsions:
REMARK  status: ('A' for Active; 'I' for Inactive)
REMARK    1  A    between atoms: C_2  and  N_7
REMARK    2  A    between atoms: C_3  and  O_19
REMARK    3  A    between atoms: C_4  and  O_21
REMARK    4  A    between atoms: C_5  and  C_23
REMARK    5  A    between atoms: C_23  and  O_24
REMARK                            x       y       z     vdW  Elec       q    Type
REMARK                         _______ _______ _______ _____ _____    ______ ____
ROOT
ATOM      1  I   UNL     1     -35.243  22.130   5.961  0.00  0.00    -0.046 I 
ATOM      2  C   UNL     1     -36.740  24.141   4.152  0.00  0.00    +0.133 C 
ATOM      3  C   UNL     1     -37.511  24.054   2.819  0.00  0.00    +0.164 C 
ATOM      4  C   UNL     1     -36.794  22.976   1.994  0.00  0.00    +0.160 C 
ATOM      5  C   UNL     1     -36.107  22.141   3.042  0.00  0.00    +0.017 C 
ATOM      6  C   UNL     1     -36.057  22.791   4.218  0.00  0.00    +0.025 C 
ENDROOT
BRANCH   2   7
ATOM      7  N   UNL     1     -35.802  25.332   4.229  0.00  0.00    -0.267 N 
ATOM      8  N   UNL     1     -34.183  26.663   4.984  0.00  0.00    -0.242 NA
ATOM      9  N   UNL     1     -36.522  26.608   2.291  0.00  0.00    -0.228 NA
ATOM     10  N   UNL     1     -35.225  28.661   2.050  0.00  0.00    -0.229 NA
ATOM     11  C   UNL     1     -35.757  26.394   3.372  0.00  0.00    +0.151 C 
ATOM     12  C   UNL     1     -34.839  25.538   5.179  0.00  0.00    +0.221 C 
ATOM     13  C   UNL     1     -34.746  27.208   3.857  0.00  0.00    +0.140 C 
ATOM     14  C   UNL     1     -34.489  28.379   3.153  0.00  0.00    +0.143 C 
ATOM     15  C   UNL     1     -36.182  27.771   1.694  0.00  0.00    +0.253 C 
ATOM     16  N   UNL     1     -33.480  29.264   3.574  0.00  0.00    -0.342 N 
ATOM     17  H   UNL     1     -33.307  30.090   3.067  0.00  0.00    +0.144 HD
ATOM     18  H   UNL     1     -32.947  29.057   4.375  0.00  0.00    +0.144 HD
ENDBRANCH   2   7
BRANCH   3  19
ATOM     19  O   UNL     1     -38.854  23.661   3.112  0.00  0.00    -0.380 OA
ATOM     20  H   UNL     1     -38.918  22.693   3.099  0.00  0.00    +0.211 HD
ENDBRANCH   3  19
BRANCH   4  21
ATOM     21  O   UNL     1     -37.716  22.239   1.212  0.00  0.00    -0.378 OA
ATOM     22  H   UNL     1     -38.503  22.040   1.742  0.00  0.00    +0.211 HD
ENDBRANCH   4  21
BRANCH   5  23
ATOM     23  C   UNL     1     -35.542  20.811   2.665  0.00  0.00    +0.162 C 
BRANCH  23  24
ATOM     24  O   UNL     1     -36.571  19.837   2.634  0.00  0.00    -0.377 OA
ATOM     25  H   UNL     1     -36.962  19.752   3.518  0.00  0.00    +0.211 HD
ENDBRANCH  23  24
ENDBRANCH   5  23
TORSDOF 5
ENDMDL
MODEL 7
REMARK VINA RESULT:      -5.4      2.373      3.600
REMARK  Name = 53318848
REMARK  5 active torsions:
REMARK  status: ('A' for Active; 'I' for Inactive)
REMARK    1  A    between atoms: C_2  and  N_7
REMARK    2  A    between atoms: C_3  and  O_19
REMARK    3  A    between atoms: C_4  and  O_21
REMARK    4  A    between atoms: C_5  and  C_23
REMARK    5  A    between atoms: C_23  and  O_24
REMARK                            x       y       z     vdW  Elec       q    Type
REMARK                         _______ _______ _______ _____ _____    ______ ____
ROOT
ATOM      1  I   UNL     1     -37.303  24.626   0.555  0.00  0.00    -0.046 I 
ATOM      2  C   UNL     1     -35.351  22.737   2.032  0.00  0.00    +0.133 C 
ATOM      3  C   UNL     1     -35.255  21.213   2.251  0.00  0.00    +0.164 C 
ATOM      4  C   UNL     1     -36.703  20.713   2.342  0.00  0.00    +0.160 C 
ATOM      5  C   UNL     1     -37.480  21.775   1.609  0.00  0.00    +0.017 C 
ATOM      6  C   UNL     1     -36.746  22.892   1.462  0.00  0.00    +0.025 C 
ENDROOT
BRANCH   2   7
ATOM      7  N   UNL     1     -35.085  23.544   3.289  0.00  0.00    -0.267 N 
ATOM      8  N   UNL     1     -35.179  24.159   5.429  0.00  0.00    -0.242 NA
ATOM      9  N   UNL     1     -33.622  25.277   2.421  0.00  0.00    -0.228 NA
ATOM     10  N   UNL     1     -32.946  26.829   4.178  0.00  0.00    -0.229 NA
ATOM     11  C   UNL     1     -34.308  24.662   3.394  0.00  0.00    +0.151 C 
ATOM     12  C   UNL     1     -35.586  23.281   4.536  0.00  0.00    +0.221 C 
ATOM     13  C   UNL     1     -34.380  25.027   4.729  0.00  0.00    +0.140 C 
ATOM     14  C   UNL     1     -33.663  26.157   5.111  0.00  0.00    +0.143 C 
ATOM     15  C   UNL     1     -32.970  26.355   2.910  0.00  0.00    +0.253 C 
ATOM     16  N   UNL     1     -33.678  26.600   6.446  0.00  0.00    -0.342 N 
ATOM     17  H   UNL     1     -33.166  27.400   6.705  0.00  0.00    +0.144 HD
ATOM     18  H   UNL     1     -34.199  26.109   7.121  0.00  0.00    +0.144 HD
ENDBRANCH   2   7
BRANCH   3  19
ATOM     19  O   UNL     1     -34.591  20.647   1.117  0.00  0.00    -0.380 OA
ATOM     20  H   UNL     1     -33.639  20.590   1.295  0.00  0.00    +0.211 HD
ENDBRANCH   3  19
BRANCH   4  21
ATOM     21  O   UNL     1     -36.834  19.429   1.761  0.00  0.00    -0.378 OA
ATOM     22  H   UNL     1     -36.669  18.751   2.435  0.00  0.00    +0.211 HD
ENDBRANCH   4  21
BRANCH   5  23
ATOM     23  C   UNL     1     -38.897  21.509   1.220  0.00  0.00    +0.162 C 
BRANCH  23  24
ATOM     24  O   UNL     1     -39.580  20.867   2.283  0.00  0.00    -0.377 OA
ATOM     25  H   UNL     1     -40.198  20.212   1.920  0.00  0.00    +0.211 HD
ENDBRANCH  23  24
ENDBRANCH   5  23
TORSDOF 5
ENDMDL
MODEL 8
REMARK VINA RESULT:      -5.3      3.711      5.624
REMARK  Name = 53318848
REMARK  5 active torsions:
REMARK  status: ('A' for Active; 'I' for Inactive)
REMARK    1  A    between atoms: C_2  and  N_7
REMARK    2  A    between atoms: C_3  and  O_19
REMARK    3  A    between atoms: C_4  and  O_21
REMARK    4  A    between atoms: C_5  and  C_23
REMARK    5  A    between atoms: C_23  and  O_24
REMARK                            x       y       z     vdW  Elec       q    Type
REMARK                         _______ _______ _______ _____ _____    ______ ____
ROOT
ATOM      1  I   UNL     1     -38.926  26.246   0.850  0.00  0.00    -0.046 I 
ATOM      2  C   UNL     1     -36.913  25.424   3.049  0.00  0.00    +0.133 C 
ATOM      3  C   UNL     1     -35.834  26.153   3.875  0.00  0.00    +0.164 C 
ATOM      4  C   UNL     1     -35.249  27.224   2.945  0.00  0.00    +0.160 C 
ATOM      5  C   UNL     1     -36.351  27.448   1.943  0.00  0.00    +0.017 C 
ATOM      6  C   UNL     1     -37.249  26.448   1.984  0.00  0.00    +0.025 C 
ENDROOT
BRANCH   2   7
ATOM      7  N   UNL     1     -36.455  24.080   2.514  0.00  0.00    -0.267 N 
ATOM      8  N   UNL     1     -35.943  22.488   1.041  0.00  0.00    -0.242 NA
ATOM      9  N   UNL     1     -35.966  22.906   4.583  0.00  0.00    -0.228 NA
ATOM     10  N   UNL     1     -35.177  20.637   4.150  0.00  0.00    -0.229 NA
ATOM     11  C   UNL     1     -36.048  23.003   3.248  0.00  0.00    +0.151 C 
ATOM     12  C   UNL     1     -36.375  23.722   1.195  0.00  0.00    +0.221 C 
ATOM     13  C   UNL     1     -35.735  22.026   2.316  0.00  0.00    +0.140 C 
ATOM     14  C   UNL     1     -35.285  20.806   2.810  0.00  0.00    +0.143 C 
ATOM     15  C   UNL     1     -35.520  21.681   4.942  0.00  0.00    +0.253 C 
ATOM     16  N   UNL     1     -34.944  19.759   1.936  0.00  0.00    -0.342 N 
ATOM     17  H   UNL     1     -34.626  18.900   2.297  0.00  0.00    +0.144 HD
ATOM     18  H   UNL     1     -35.022  19.885   0.963  0.00  0.00    +0.144 HD
ENDBRANCH   2   7
BRANCH   3  19
ATOM     19  O   UNL     1     -36.476  26.754   5.003  0.00  0.00    -0.380 OA
ATOM     20  H   UNL     1     -37.149  26.149   5.354  0.00  0.00    +0.211 HD
ENDBRANCH   3  19
BRANCH   4  21
ATOM     21  O   UNL     1     -34.908  28.393   3.667  0.00  0.00    -0.378 OA
ATOM     22  H   UNL     1     -34.050  28.724   3.360  0.00  0.00    +0.211 HD
ENDBRANCH   4  21
BRANCH   5  23
ATOM     23  C   UNL     1     -36.288  28.634   1.037  0.00  0.00    +0.162 C 
BRANCH  23  24
ATOM     24  O   UNL     1     -36.540  29.820   1.773  0.00  0.00    -0.377 OA
ATOM     25  H   UNL     1     -36.696  30.553   1.158  0.00  0.00    +0.211 HD
ENDBRANCH  23  24
ENDBRANCH   5  23
TORSDOF 5
ENDMDL
MODEL 9
REMARK VINA RESULT:      -5.3      3.653      6.377
REMARK  Name = 53318848
REMARK  5 active torsions:
REMARK  status: ('A' for Active; 'I' for Inactive)
REMARK    1  A    between atoms: C_2  and  N_7
REMARK    2  A    between atoms: C_3  and  O_19
REMARK    3  A    between atoms: C_4  and  O_21
REMARK    4  A    between atoms: C_5  and  C_23
REMARK    5  A    between atoms: C_23  and  O_24
REMARK                            x       y       z     vdW  Elec       q    Type
REMARK                         _______ _______ _______ _____ _____    ______ ____
ROOT
ATOM      1  I   UNL     1     -37.670  26.668   1.399  0.00  0.00    -0.046 I 
ATOM      2  C   UNL     1     -36.715  24.978   3.806  0.00  0.00    +0.133 C 
ATOM      3  C   UNL     1     -35.746  25.199   4.985  0.00  0.00    +0.164 C 
ATOM      4  C   UNL     1     -34.622  26.091   4.438  0.00  0.00    +0.160 C 
ATOM      5  C   UNL     1     -35.271  26.785   3.270  0.00  0.00    +0.017 C 
ATOM      6  C   UNL     1     -36.405  26.159   2.909  0.00  0.00    +0.025 C 
ENDROOT
BRANCH   2   7
ATOM      7  N   UNL     1     -36.559  23.621   3.145  0.00  0.00    -0.267 N 
ATOM      8  N   UNL     1     -35.573  21.764   2.405  0.00  0.00    -0.242 NA
ATOM      9  N   UNL     1     -38.843  23.191   2.436  0.00  0.00    -0.228 NA
ATOM     10  N   UNL     1     -39.027  21.042   1.296  0.00  0.00    -0.229 NA
ATOM     11  C   UNL     1     -37.544  22.881   2.555  0.00  0.00    +0.151 C 
ATOM     12  C   UNL     1     -35.395  22.910   3.030  0.00  0.00    +0.221 C 
ATOM     13  C   UNL     1     -36.911  21.734   2.102  0.00  0.00    +0.140 C 
ATOM     14  C   UNL     1     -37.705  20.794   1.452  0.00  0.00    +0.143 C 
ATOM     15  C   UNL     1     -39.507  22.208   1.790  0.00  0.00    +0.253 C 
ATOM     16  N   UNL     1     -37.147  19.600   0.961  0.00  0.00    -0.342 N 
ATOM     17  H   UNL     1     -37.718  18.942   0.502  0.00  0.00    +0.144 HD
ATOM     18  H   UNL     1     -36.186  19.422   1.076  0.00  0.00    +0.144 HD
ENDBRANCH   2   7
BRANCH   3  19
ATOM     19  O   UNL     1     -36.464  25.866   6.026  0.00  0.00    -0.380 OA
ATOM     20  H   UNL     1     -36.468  25.312   6.822  0.00  0.00    +0.211 HD
ENDBRANCH   3  19
BRANCH   4  21
ATOM     21  O   UNL     1     -34.159  26.988   5.431  0.00  0.00    -0.378 OA
ATOM     22  H   UNL     1     -33.971  27.849   5.025  0.00  0.00    +0.211 HD
ENDBRANCH   4  21
BRANCH   5  23
ATOM     23  C   UNL     1     -34.594  27.962   2.648  0.00  0.00    +0.162 C 
BRANCH  23  24
ATOM     24  O   UNL     1     -34.923  29.142   3.361  0.00  0.00    -0.377 OA
ATOM     25  H   UNL     1     -35.301  29.793   2.750  0.00  0.00    +0.211 HD
ENDBRANCH  23  24
ENDBRANCH   5  23
TORSDOF 5
ENDMDL
