MODEL 1
REMARK VINA RESULT:      -5.1      0.000      0.000
REMARK  Name = 5479212
REMARK  11 active torsions:
REMARK  status: ('A' for Active; 'I' for Inactive)
REMARK    1  A    between atoms: N_1  and  C_2
REMARK    2  A    between atoms: N_1  and  N_3
REMARK    3  A    between atoms: C_2  and  C_12
REMARK    4  A    between atoms: C_2  and  C_24
REMARK    5  A    between atoms: N_3  and  C_6
REMARK    6  A    between atoms: N_11  and  C_12
REMARK    7  A    between atoms: N_11  and  N_13
REMARK    8  A    between atoms: C_12  and  C_21
REMARK    9  A    between atoms: N_13  and  C_16
REMARK   10  A    between atoms: C_21  and  C_22
REMARK   11  A    between atoms: C_24  and  C_25
REMARK                            x       y       z     vdW  Elec       q    Type
REMARK                         _______ _______ _______ _____ _____    ______ ____
ROOT
ATOM      1  C   UNL     1     -35.257  24.169   3.944  0.00  0.00    +0.116 C 
ENDROOT
BRANCH   1   2
ATOM      2  N   UNL     1     -34.550  24.994   3.240  0.00  0.00    -0.097 NA
BRANCH   2   3
ATOM      3  N   UNL     1     -35.232  26.159   2.913  0.00  0.00    -0.145 NA
BRANCH   3   6
ATOM      4  N   UNL     1     -35.239  28.464   3.277  0.00  0.00    -0.369 N 
ATOM      5  N   UNL     1     -33.734  27.215   4.460  0.00  0.00    -0.369 N 
ATOM      6  C   UNL     1     -34.748  27.206   3.528  0.00  0.00    +0.207 C 
ATOM      7  H   UNL     1     -35.968  28.588   2.628  0.00  0.00    +0.159 HD
ATOM      8  H   UNL     1     -34.863  29.243   3.748  0.00  0.00    +0.159 HD
ATOM      9  H   UNL     1     -33.300  26.371   4.723  0.00  0.00    +0.159 HD
ATOM     10  H   UNL     1     -33.444  28.064   4.863  0.00  0.00    +0.159 HD
ENDBRANCH   3   6
ENDBRANCH   2   3
ENDBRANCH   1   2
BRANCH   1  11
ATOM     11  C   UNL     1     -36.106  23.202   3.168  0.00  0.00    +0.116 C 
BRANCH  11  12
ATOM     12  N   UNL     1     -37.373  23.218   3.437  0.00  0.00    -0.097 NA
BRANCH  12  13
ATOM     13  N   UNL     1     -38.098  24.061   2.605  0.00  0.00    -0.145 NA
BRANCH  13  16
ATOM     14  N   UNL     1     -38.203  26.242   3.428  0.00  0.00    -0.369 N 
ATOM     15  N   UNL     1     -39.965  24.858   3.879  0.00  0.00    -0.369 N 
ATOM     16  C   UNL     1     -38.737  24.987   3.271  0.00  0.00    +0.207 C 
ATOM     17  H   UNL     1     -37.325  26.457   3.036  0.00  0.00    +0.159 HD
ATOM     18  H   UNL     1     -38.697  26.928   3.933  0.00  0.00    +0.159 HD
ATOM     19  H   UNL     1     -40.449  24.002   3.835  0.00  0.00    +0.159 HD
ATOM     20  H   UNL     1     -40.359  25.623   4.359  0.00  0.00    +0.159 HD
ENDBRANCH  13  16
ENDBRANCH  12  13
ENDBRANCH  11  12
BRANCH  11  21
ATOM     21  C   UNL     1     -35.382  22.306   2.192  0.00  0.00    +0.021 C 
BRANCH  21  22
ATOM     22  C   UNL     1     -35.379  20.864   2.689  0.00  0.00    +0.002 C 
ATOM     23  C   UNL     1     -34.594  19.956   1.756  0.00  0.00    +0.000 C 
ENDBRANCH  21  22
ENDBRANCH  11  21
ENDBRANCH   1  11
BRANCH   1  24
ATOM     24  C   UNL     1     -35.305  24.047   5.448  0.00  0.00    +0.021 C 
BRANCH  24  25
ATOM     25  C   UNL     1     -34.654  22.743   5.902  0.00  0.00    +0.002 C 
ATOM     26  C   UNL     1     -35.682  21.775   6.463  0.00  0.00    +0.000 C 
ENDBRANCH  24  25
ENDBRANCH   1  24
TORSDOF 11
ENDMDL
MODEL 2
REMARK VINA RESULT:      -4.9      0.238      4.184
REMARK  Name = 5479212
REMARK  11 active torsions:
REMARK  status: ('A' for Active; 'I' for Inactive)
REMARK    1  A    between atoms: N_1  and  C_2
REMARK    2  A    between atoms: N_1  and  N_3
REMARK    3  A    between atoms: C_2  and  C_12
REMARK    4  A    between atoms: C_2  and  C_24
REMARK    5  A    between atoms: N_3  and  C_6
REMARK    6  A    between atoms: N_11  and  C_12
REMARK    7  A    between atoms: N_11  and  N_13
REMARK    8  A    between atoms: C_12  and  C_21
REMARK    9  A    between atoms: N_13  and  C_16
REMARK   10  A    between atoms: C_21  and  C_22
REMARK   11  A    between atoms: C_24  and  C_25
REMARK                            x       y       z     vdW  Elec       q    Type
REMARK                         _______ _______ _______ _____ _____    ______ ____
ROOT
ATOM      1  C   UNL     1     -36.198  23.130   3.110  0.00  0.00    +0.116 C 
ENDROOT
BRANCH   1   2
ATOM      2  N   UNL     1     -37.480  23.149   3.293  0.00  0.00    -0.097 NA
BRANCH   2   3
ATOM      3  N   UNL     1     -38.130  24.093   2.508  0.00  0.00    -0.145 NA
BRANCH   3   6
ATOM      4  N   UNL     1     -38.198  26.242   3.416  0.00  0.00    -0.369 N 
ATOM      5  N   UNL     1     -39.955  24.851   3.866  0.00  0.00    -0.369 N 
ATOM      6  C   UNL     1     -38.745  24.996   3.226  0.00  0.00    +0.207 C 
ATOM      7  H   UNL     1     -37.332  26.467   3.007  0.00  0.00    +0.159 HD
ATOM      8  H   UNL     1     -38.674  26.911   3.960  0.00  0.00    +0.159 HD
ATOM      9  H   UNL     1     -40.446  24.000   3.805  0.00  0.00    +0.159 HD
ATOM     10  H   UNL     1     -40.330  25.598   4.385  0.00  0.00    +0.159 HD
ENDBRANCH   3   6
ENDBRANCH   2   3
ENDBRANCH   1   2
BRANCH   1  11
ATOM     11  C   UNL     1     -35.392  24.029   4.005  0.00  0.00    +0.116 C 
BRANCH  11  12
ATOM     12  N   UNL     1     -34.551  24.813   3.410  0.00  0.00    -0.097 NA
BRANCH  12  13
ATOM     13  N   UNL     1     -35.138  25.970   2.914  0.00  0.00    -0.145 NA
BRANCH  13  16
ATOM     14  N   UNL     1     -33.818  26.966   4.559  0.00  0.00    -0.369 N 
ATOM     15  N   UNL     1     -35.266  28.311   3.412  0.00  0.00    -0.369 N 
ATOM     16  C   UNL     1     -34.777  27.035   3.579  0.00  0.00    +0.207 C 
ATOM     17  H   UNL     1     -33.391  26.104   4.771  0.00  0.00    +0.159 HD
ATOM     18  H   UNL     1     -33.556  27.779   5.051  0.00  0.00    +0.159 HD
ATOM     19  H   UNL     1     -35.960  28.487   2.737  0.00  0.00    +0.159 HD
ATOM     20  H   UNL     1     -34.923  29.047   3.969  0.00  0.00    +0.159 HD
ENDBRANCH  13  16
ENDBRANCH  12  13
ENDBRANCH  11  12
BRANCH  11  21
ATOM     21  C   UNL     1     -35.634  23.891   5.488  0.00  0.00    +0.021 C 
BRANCH  21  22
ATOM     22  C   UNL     1     -34.749  22.795   6.076  0.00  0.00    +0.002 C 
ATOM     23  C   UNL     1     -35.460  21.451   6.081  0.00  0.00    +0.000 C 
ENDBRANCH  21  22
ENDBRANCH  11  21
ENDBRANCH   1  11
BRANCH   1  24
ATOM     24  C   UNL     1     -35.420  22.289   2.127  0.00  0.00    +0.021 C 
BRANCH  24  25
ATOM     25  C   UNL     1     -35.642  20.803   2.396  0.00  0.00    +0.002 C 
ATOM     26  C   UNL     1     -34.525  19.959   1.806  0.00  0.00    +0.000 C 
ENDBRANCH  24  25
ENDBRANCH   1  24
TORSDOF 11
ENDMDL
MODEL 3
REMARK VINA RESULT:      -4.9      1.792      3.024
REMARK  Name = 5479212
REMARK  11 active torsions:
REMARK  status: ('A' for Active; 'I' for Inactive)
REMARK    1  A    between atoms: N_1  and  C_2
REMARK    2  A    between atoms: N_1  and  N_3
REMARK    3  A    between atoms: C_2  and  C_12
REMARK    4  A    between atoms: C_2  and  C_24
REMARK    5  A    between atoms: N_3  and  C_6
REMARK    6  A    between atoms: N_11  and  C_12
REMARK    7  A    between atoms: N_11  and  N_13
REMARK    8  A    between atoms: C_12  and  C_21
REMARK    9  A    between atoms: N_13  and  C_16
REMARK   10  A    between atoms: C_21  and  C_22
REMARK   11  A    between atoms: C_24  and  C_25
REMARK                            x       y       z     vdW  Elec       q    Type
REMARK                         _______ _______ _______ _____ _____    ______ ____
ROOT
ATOM      1  C   UNL     1     -35.620  23.964   3.333  0.00  0.00    +0.116 C 
ENDROOT
BRANCH   1   2
ATOM      2  N   UNL     1     -36.008  25.069   2.783  0.00  0.00    -0.097 NA
BRANCH   2   3
ATOM      3  N   UNL     1     -36.891  25.794   3.573  0.00  0.00    -0.145 NA
BRANCH   3   6
ATOM      4  N   UNL     1     -39.050  24.937   3.793  0.00  0.00    -0.369 N 
ATOM      5  N   UNL     1     -38.650  26.350   2.042  0.00  0.00    -0.369 N 
ATOM      6  C   UNL     1     -38.122  25.714   3.143  0.00  0.00    +0.207 C 
ATOM      7  H   UNL     1     -38.793  24.431   4.597  0.00  0.00    +0.159 HD
ATOM      8  H   UNL     1     -39.974  24.886   3.455  0.00  0.00    +0.159 HD
ATOM      9  H   UNL     1     -38.081  26.936   1.493  0.00  0.00    +0.159 HD
ATOM     10  H   UNL     1     -39.596  26.219   1.803  0.00  0.00    +0.159 HD
ENDBRANCH   3   6
ENDBRANCH   2   3
ENDBRANCH   1   2
BRANCH   1  11
ATOM     11  C   UNL     1     -36.117  22.699   2.691  0.00  0.00    +0.116 C 
BRANCH  11  12
ATOM     12  N   UNL     1     -37.365  22.416   2.887  0.00  0.00    -0.097 NA
BRANCH  12  13
ATOM     13  N   UNL     1     -38.134  22.505   1.734  0.00  0.00    -0.145 NA
BRANCH  13  16
ATOM     14  N   UNL     1     -40.064  21.254   2.127  0.00  0.00    -0.369 N 
ATOM     15  N   UNL     1     -38.498  20.362   0.722  0.00  0.00    -0.369 N 
ATOM     16  C   UNL     1     -38.842  21.426   1.526  0.00  0.00    +0.207 C 
ATOM     17  H   UNL     1     -40.420  21.950   2.727  0.00  0.00    +0.159 HD
ATOM     18  H   UNL     1     -40.586  20.436   1.960  0.00  0.00    +0.159 HD
ATOM     19  H   UNL     1     -37.643  20.369   0.236  0.00  0.00    +0.159 HD
ATOM     20  H   UNL     1     -39.108  19.594   0.634  0.00  0.00    +0.159 HD
ENDBRANCH  13  16
ENDBRANCH  12  13
ENDBRANCH  11  12
BRANCH  11  21
ATOM     21  C   UNL     1     -35.099  21.893   1.922  0.00  0.00    +0.021 C 
BRANCH  21  22
ATOM     22  C   UNL     1     -35.153  20.425   2.336  0.00  0.00    +0.002 C 
ATOM     23  C   UNL     1     -34.137  19.594   1.570  0.00  0.00    +0.000 C 
ENDBRANCH  21  22
ENDBRANCH  11  21
ENDBRANCH   1  11
BRANCH   1  24
ATOM     24  C   UNL     1     -34.705  23.798   4.524  0.00  0.00    +0.021 C 
BRANCH  24  25
ATOM     25  C   UNL     1     -35.486  23.296   5.735  0.00  0.00    +0.002 C 
ATOM     26  C   UNL     1     -35.051  21.896   6.134  0.00  0.00    +0.000 C 
ENDBRANCH  24  25
ENDBRANCH   1  24
TORSDOF 11
ENDMDL
MODEL 4
REMARK VINA RESULT:      -4.9      1.051      3.319
REMARK  Name = 5479212
REMARK  11 active torsions:
REMARK  status: ('A' for Active; 'I' for Inactive)
REMARK    1  A    between atoms: N_1  and  C_2
REMARK    2  A    between atoms: N_1  and  N_3
REMARK    3  A    between atoms: C_2  and  C_12
REMARK    4  A    between atoms: C_2  and  C_24
REMARK    5  A    between atoms: N_3  and  C_6
REMARK    6  A    between atoms: N_11  and  C_12
REMARK    7  A    between atoms: N_11  and  N_13
REMARK    8  A    between atoms: C_12  and  C_21
REMARK    9  A    between atoms: N_13  and  C_16
REMARK   10  A    between atoms: C_21  and  C_22
REMARK   11  A    between atoms: C_24  and  C_25
REMARK                            x       y       z     vdW  Elec       q    Type
REMARK                         _______ _______ _______ _____ _____    ______ ____
ROOT
ATOM      1  C   UNL     1     -35.726  23.649   3.945  0.00  0.00    +0.116 C 
ENDROOT
BRANCH   1   2
ATOM      2  N   UNL     1     -37.018  23.578   4.001  0.00  0.00    -0.097 NA
BRANCH   2   3
ATOM      3  N   UNL     1     -37.621  24.794   4.294  0.00  0.00    -0.145 NA
BRANCH   3   6
ATOM      4  N   UNL     1     -39.885  24.921   3.744  0.00  0.00    -0.369 N 
ATOM      5  N   UNL     1     -38.378  25.621   2.175  0.00  0.00    -0.369 N 
ATOM      6  C   UNL     1     -38.558  25.102   3.437  0.00  0.00    +0.207 C 
ATOM      7  H   UNL     1     -40.142  24.555   4.621  0.00  0.00    +0.159 HD
ATOM      8  H   UNL     1     -40.579  25.157   3.087  0.00  0.00    +0.159 HD
ATOM      9  H   UNL     1     -37.469  25.795   1.840  0.00  0.00    +0.159 HD
ATOM     10  H   UNL     1     -39.158  25.817   1.607  0.00  0.00    +0.159 HD
ENDBRANCH   3   6
ENDBRANCH   2   3
ENDBRANCH   1   2
BRANCH   1  11
ATOM     11  C   UNL     1     -35.136  23.836   2.576  0.00  0.00    +0.116 C 
BRANCH  11  12
ATOM     12  N   UNL     1     -34.427  24.907   2.406  0.00  0.00    -0.097 NA
BRANCH  12  13
ATOM     13  N   UNL     1     -35.187  26.016   2.060  0.00  0.00    -0.145 NA
BRANCH  13  16
ATOM     14  N   UNL     1     -34.163  28.063   2.517  0.00  0.00    -0.369 N 
ATOM     15  N   UNL     1     -35.543  27.194   4.118  0.00  0.00    -0.369 N 
ATOM     16  C   UNL     1     -34.990  27.025   2.869  0.00  0.00    +0.207 C 
ATOM     17  H   UNL     1     -33.707  28.055   1.643  0.00  0.00    +0.159 HD
ATOM     18  H   UNL     1     -34.025  28.815   3.137  0.00  0.00    +0.159 HD
ATOM     19  H   UNL     1     -36.155  26.514   4.481  0.00  0.00    +0.159 HD
ATOM     20  H   UNL     1     -35.327  27.995   4.647  0.00  0.00    +0.159 HD
ENDBRANCH  13  16
ENDBRANCH  12  13
ENDBRANCH  11  12
BRANCH  11  21
ATOM     21  C   UNL     1     -35.462  22.775   1.553  0.00  0.00    +0.021 C 
BRANCH  21  22
ATOM     22  C   UNL     1     -34.872  21.431   1.969  0.00  0.00    +0.002 C 
ATOM     23  C   UNL     1     -35.959  20.395   2.206  0.00  0.00    +0.000 C 
ENDBRANCH  21  22
ENDBRANCH  11  21
ENDBRANCH   1  11
BRANCH   1  24
ATOM     24  C   UNL     1     -34.750  23.595   5.096  0.00  0.00    +0.021 C 
BRANCH  24  25
ATOM     25  C   UNL     1     -35.262  22.664   6.192  0.00  0.00    +0.002 C 
ATOM     26  C   UNL     1     -35.035  21.206   5.833  0.00  0.00    +0.000 C 
ENDBRANCH  24  25
ENDBRANCH   1  24
TORSDOF 11
ENDMDL
MODEL 5
REMARK VINA RESULT:      -4.9      2.515      4.686
REMARK  Name = 5479212
REMARK  11 active torsions:
REMARK  status: ('A' for Active; 'I' for Inactive)
REMARK    1  A    between atoms: N_1  and  C_2
REMARK    2  A    between atoms: N_1  and  N_3
REMARK    3  A    between atoms: C_2  and  C_12
REMARK    4  A    between atoms: C_2  and  C_24
REMARK    5  A    between atoms: N_3  and  C_6
REMARK    6  A    between atoms: N_11  and  C_12
REMARK    7  A    between atoms: N_11  and  N_13
REMARK    8  A    between atoms: C_12  and  C_21
REMARK    9  A    between atoms: N_13  and  C_16
REMARK   10  A    between atoms: C_21  and  C_22
REMARK   11  A    between atoms: C_24  and  C_25
REMARK                            x       y       z     vdW  Elec       q    Type
REMARK                         _______ _______ _______ _____ _____    ______ ____
ROOT
ATOM      1  C   UNL     1     -36.679  23.229   3.567  0.00  0.00    +0.116 C 
ENDROOT
BRANCH   1   2
ATOM      2  N   UNL     1     -37.592  22.463   3.061  0.00  0.00    -0.097 NA
BRANCH   2   3
ATOM      3  N   UNL     1     -37.342  22.110   1.741  0.00  0.00    -0.145 NA
BRANCH   3   6
ATOM      4  N   UNL     1     -36.867  19.880   2.236  0.00  0.00    -0.369 N 
ATOM      5  N   UNL     1     -38.407  20.292   0.599  0.00  0.00    -0.369 N 
ATOM      6  C   UNL     1     -37.544  20.838   1.521  0.00  0.00    +0.207 C 
ATOM      7  H   UNL     1     -36.220  20.147   2.928  0.00  0.00    +0.159 HD
ATOM      8  H   UNL     1     -37.031  18.925   2.058  0.00  0.00    +0.159 HD
ATOM      9  H   UNL     1     -38.950  20.879   0.024  0.00  0.00    +0.159 HD
ATOM     10  H   UNL     1     -38.483  19.314   0.513  0.00  0.00    +0.159 HD
ENDBRANCH   3   6
ENDBRANCH   2   3
ENDBRANCH   1   2
BRANCH   1  11
ATOM     11  C   UNL     1     -37.096  24.642   3.865  0.00  0.00    +0.116 C 
BRANCH  11  12
ATOM     12  N   UNL     1     -38.372  24.860   3.901  0.00  0.00    -0.097 NA
BRANCH  12  13
ATOM     13  N   UNL     1     -38.801  25.754   2.928  0.00  0.00    -0.145 NA
BRANCH  13  16
ATOM     14  N   UNL     1     -40.040  23.967   2.082  0.00  0.00    -0.369 N 
ATOM     15  N   UNL     1     -40.840  26.075   1.708  0.00  0.00    -0.369 N 
ATOM     16  C   UNL     1     -39.842  25.312   2.273  0.00  0.00    +0.207 C 
ATOM     17  H   UNL     1     -39.392  23.317   2.441  0.00  0.00    +0.159 HD
ATOM     18  H   UNL     1     -40.830  23.650   1.586  0.00  0.00    +0.159 HD
ATOM     19  H   UNL     1     -40.808  27.056   1.779  0.00  0.00    +0.159 HD
ATOM     20  H   UNL     1     -41.584  25.639   1.233  0.00  0.00    +0.159 HD
ENDBRANCH  13  16
ENDBRANCH  12  13
ENDBRANCH  11  12
BRANCH  11  21
ATOM     21  C   UNL     1     -35.983  25.643   4.056  0.00  0.00    +0.021 C 
BRANCH  21  22
ATOM     22  C   UNL     1     -35.798  25.962   5.537  0.00  0.00    +0.002 C 
ATOM     23  C   UNL     1     -34.328  25.970   5.924  0.00  0.00    +0.000 C 
ENDBRANCH  21  22
ENDBRANCH  11  21
ENDBRANCH   1  11
BRANCH   1  24
ATOM     24  C   UNL     1     -35.258  22.860   3.918  0.00  0.00    +0.021 C 
BRANCH  24  25
ATOM     25  C   UNL     1     -35.234  21.737   4.951  0.00  0.00    +0.002 C 
ATOM     26  C   UNL     1     -35.403  22.276   6.362  0.00  0.00    +0.000 C 
ENDBRANCH  24  25
ENDBRANCH   1  24
TORSDOF 11
ENDMDL
MODEL 6
REMARK VINA RESULT:      -4.9      1.051      2.682
REMARK  Name = 5479212
REMARK  11 active torsions:
REMARK  status: ('A' for Active; 'I' for Inactive)
REMARK    1  A    between atoms: N_1  and  C_2
REMARK    2  A    between atoms: N_1  and  N_3
REMARK    3  A    between atoms: C_2  and  C_12
REMARK    4  A    between atoms: C_2  and  C_24
REMARK    5  A    between atoms: N_3  and  C_6
REMARK    6  A    between atoms: N_11  and  C_12
REMARK    7  A    between atoms: N_11  and  N_13
REMARK    8  A    between atoms: C_12  and  C_21
REMARK    9  A    between atoms: N_13  and  C_16
REMARK   10  A    between atoms: C_21  and  C_22
REMARK   11  A    between atoms: C_24  and  C_25
REMARK                            x       y       z     vdW  Elec       q    Type
REMARK                         _______ _______ _______ _____ _____    ______ ____
ROOT
ATOM      1  C   UNL     1     -35.194  23.818   2.488  0.00  0.00    +0.116 C 
ENDROOT
BRANCH   1   2
ATOM      2  N   UNL     1     -34.443  24.855   2.295  0.00  0.00    -0.097 NA
BRANCH   2   3
ATOM      3  N   UNL     1     -35.164  26.007   2.007  0.00  0.00    -0.145 NA
BRANCH   3   6
ATOM      4  N   UNL     1     -33.905  27.882   2.595  0.00  0.00    -0.369 N 
ATOM      5  N   UNL     1     -35.552  27.224   4.036  0.00  0.00    -0.369 N 
ATOM      6  C   UNL     1     -34.906  26.976   2.846  0.00  0.00    +0.207 C 
ATOM      7  H   UNL     1     -33.370  27.809   1.772  0.00  0.00    +0.159 HD
ATOM      8  H   UNL     1     -33.723  28.606   3.237  0.00  0.00    +0.159 HD
ATOM      9  H   UNL     1     -36.289  26.641   4.327  0.00  0.00    +0.159 HD
ATOM     10  H   UNL     1     -35.276  27.984   4.597  0.00  0.00    +0.159 HD
ENDBRANCH   3   6
ENDBRANCH   2   3
ENDBRANCH   1   2
BRANCH   1  11
ATOM     11  C   UNL     1     -35.723  23.640   3.883  0.00  0.00    +0.116 C 
BRANCH  11  12
ATOM     12  N   UNL     1     -37.012  23.579   3.997  0.00  0.00    -0.097 NA
BRANCH  12  13
ATOM     13  N   UNL     1     -37.593  24.804   4.298  0.00  0.00    -0.145 NA
BRANCH  13  16
ATOM     14  N   UNL     1     -39.860  24.913   3.758  0.00  0.00    -0.369 N 
ATOM     15  N   UNL     1     -38.369  25.693   2.212  0.00  0.00    -0.369 N 
ATOM     16  C   UNL     1     -38.538  25.126   3.455  0.00  0.00    +0.207 C 
ATOM     17  H   UNL     1     -40.109  24.511   4.623  0.00  0.00    +0.159 HD
ATOM     18  H   UNL     1     -40.560  25.162   3.112  0.00  0.00    +0.159 HD
ATOM     19  H   UNL     1     -37.464  25.894   1.882  0.00  0.00    +0.159 HD
ATOM     20  H   UNL     1     -39.153  25.897   1.653  0.00  0.00    +0.159 HD
ENDBRANCH  13  16
ENDBRANCH  12  13
ENDBRANCH  11  12
BRANCH  11  21
ATOM     21  C   UNL     1     -34.697  23.584   4.988  0.00  0.00    +0.021 C 
BRANCH  21  22
ATOM     22  C   UNL     1     -35.217  22.761   6.163  0.00  0.00    +0.002 C 
ATOM     23  C   UNL     1     -35.040  21.271   5.918  0.00  0.00    +0.000 C 
ENDBRANCH  21  22
ENDBRANCH  11  21
ENDBRANCH   1  11
BRANCH   1  24
ATOM     24  C   UNL     1     -35.622  22.788   1.471  0.00  0.00    +0.021 C 
BRANCH  24  25
ATOM     25  C   UNL     1     -34.659  21.604   1.467  0.00  0.00    +0.002 C 
ATOM     26  C   UNL     1     -35.216  20.432   2.258  0.00  0.00    +0.000 C 
ENDBRANCH  24  25
ENDBRANCH   1  24
TORSDOF 11
ENDMDL
MODEL 7
REMARK VINA RESULT:      -4.8      2.911      4.173
REMARK  Name = 5479212
REMARK  11 active torsions:
REMARK  status: ('A' for Active; 'I' for Inactive)
REMARK    1  A    between atoms: N_1  and  C_2
REMARK    2  A    between atoms: N_1  and  N_3
REMARK    3  A    between atoms: C_2  and  C_12
REMARK    4  A    between atoms: C_2  and  C_24
REMARK    5  A    between atoms: N_3  and  C_6
REMARK    6  A    between atoms: N_11  and  C_12
REMARK    7  A    between atoms: N_11  and  N_13
REMARK    8  A    between atoms: C_12  and  C_21
REMARK    9  A    between atoms: N_13  and  C_16
REMARK   10  A    between atoms: C_21  and  C_22
REMARK   11  A    between atoms: C_24  and  C_25
REMARK                            x       y       z     vdW  Elec       q    Type
REMARK                         _______ _______ _______ _____ _____    ______ ____
ROOT
ATOM      1  C   UNL     1     -34.043  25.799   5.181  0.00  0.00    +0.116 C 
ENDROOT
BRANCH   1   2
ATOM      2  N   UNL     1     -33.767  26.633   6.132  0.00  0.00    -0.097 NA
BRANCH   2   3
ATOM      3  N   UNL     1     -32.415  26.938   6.217  0.00  0.00    -0.145 NA
BRANCH   3   6
ATOM      4  N   UNL     1     -31.727  28.805   7.437  0.00  0.00    -0.369 N 
ATOM      5  N   UNL     1     -32.404  29.145   5.281  0.00  0.00    -0.369 N 
ATOM      6  C   UNL     1     -32.201  28.225   6.285  0.00  0.00    +0.207 C 
ATOM      7  H   UNL     1     -31.542  28.249   8.228  0.00  0.00    +0.159 HD
ATOM      8  H   UNL     1     -31.571  29.777   7.472  0.00  0.00    +0.159 HD
ATOM      9  H   UNL     1     -32.743  28.851   4.405  0.00  0.00    +0.159 HD
ATOM     10  H   UNL     1     -32.211  30.097   5.438  0.00  0.00    +0.159 HD
ENDBRANCH   3   6
ENDBRANCH   2   3
ENDBRANCH   1   2
BRANCH   1  11
ATOM     11  C   UNL     1     -34.339  26.407   3.839  0.00  0.00    +0.116 C 
BRANCH  11  12
ATOM     12  N   UNL     1     -34.984  27.530   3.855  0.00  0.00    -0.097 NA
BRANCH  12  13
ATOM     13  N   UNL     1     -34.328  28.547   3.173  0.00  0.00    -0.145 NA
BRANCH  13  16
ATOM     14  N   UNL     1     -35.396  30.604   3.442  0.00  0.00    -0.369 N 
ATOM     15  N   UNL     1     -35.862  29.414   1.548  0.00  0.00    -0.369 N 
ATOM     16  C   UNL     1     -35.153  29.457   2.727  0.00  0.00    +0.207 C 
ATOM     17  H   UNL     1     -34.945  30.751   4.306  0.00  0.00    +0.159 HD
ATOM     18  H   UNL     1     -36.020  31.281   3.092  0.00  0.00    +0.159 HD
ATOM     19  H   UNL     1     -35.771  28.640   0.947  0.00  0.00    +0.159 HD
ATOM     20  H   UNL     1     -36.460  30.158   1.305  0.00  0.00    +0.159 HD
ENDBRANCH  13  16
ENDBRANCH  12  13
ENDBRANCH  11  12
BRANCH  11  21
ATOM     21  C   UNL     1     -33.880  25.625   2.632  0.00  0.00    +0.021 C 
BRANCH  21  22
ATOM     22  C   UNL     1     -35.078  25.102   1.845  0.00  0.00    +0.002 C 
ATOM     23  C   UNL     1     -35.046  23.586   1.726  0.00  0.00    +0.000 C 
ENDBRANCH  21  22
ENDBRANCH  11  21
ENDBRANCH   1  11
BRANCH   1  24
ATOM     24  C   UNL     1     -34.074  24.291   5.257  0.00  0.00    +0.021 C 
BRANCH  24  25
ATOM     25  C   UNL     1     -35.471  23.800   5.624  0.00  0.00    +0.002 C 
ATOM     26  C   UNL     1     -35.443  22.361   6.111  0.00  0.00    +0.000 C 
ENDBRANCH  24  25
ENDBRANCH   1  24
TORSDOF 11
ENDMDL
MODEL 8
REMARK VINA RESULT:      -4.8      1.538      4.522
REMARK  Name = 5479212
REMARK  11 active torsions:
REMARK  status: ('A' for Active; 'I' for Inactive)
REMARK    1  A    between atoms: N_1  and  C_2
REMARK    2  A    between atoms: N_1  and  N_3
REMARK    3  A    between atoms: C_2  and  C_12
REMARK    4  A    between atoms: C_2  and  C_24
REMARK    5  A    between atoms: N_3  and  C_6
REMARK    6  A    between atoms: N_11  and  C_12
REMARK    7  A    between atoms: N_11  and  N_13
REMARK    8  A    between atoms: C_12  and  C_21
REMARK    9  A    between atoms: N_13  and  C_16
REMARK   10  A    between atoms: C_21  and  C_22
REMARK   11  A    between atoms: C_24  and  C_25
REMARK                            x       y       z     vdW  Elec       q    Type
REMARK                         _______ _______ _______ _____ _____    ______ ____
ROOT
ATOM      1  C   UNL     1     -36.369  23.268   3.270  0.00  0.00    +0.116 C 
ENDROOT
BRANCH   1   2
ATOM      2  N   UNL     1     -37.661  23.215   3.340  0.00  0.00    -0.097 NA
BRANCH   2   3
ATOM      3  N   UNL     1     -38.282  23.336   2.104  0.00  0.00    -0.145 NA
BRANCH   3   6
ATOM      4  N   UNL     1     -40.486  22.850   1.513  0.00  0.00    -0.369 N 
ATOM      5  N   UNL     1     -39.161  21.106   2.167  0.00  0.00    -0.369 N 
ATOM      6  C   UNL     1     -39.240  22.462   1.943  0.00  0.00    +0.207 C 
ATOM      7  H   UNL     1     -40.667  23.797   1.318  0.00  0.00    +0.159 HD
ATOM      8  H   UNL     1     -41.198  22.179   1.397  0.00  0.00    +0.159 HD
ATOM      9  H   UNL     1     -38.317  20.707   2.480  0.00  0.00    +0.159 HD
ATOM     10  H   UNL     1     -39.948  20.535   2.015  0.00  0.00    +0.159 HD
ENDBRANCH   3   6
ENDBRANCH   2   3
ENDBRANCH   1   2
BRANCH   1  11
ATOM     11  C   UNL     1     -35.699  24.241   4.198  0.00  0.00    +0.116 C 
BRANCH  11  12
ATOM     12  N   UNL     1     -36.062  25.479   4.080  0.00  0.00    -0.097 NA
BRANCH  12  13
ATOM     13  N   UNL     1     -35.730  26.031   2.850  0.00  0.00    -0.145 NA
BRANCH  13  16
ATOM     14  N   UNL     1     -37.993  26.444   2.459  0.00  0.00    -0.369 N 
ATOM     15  N   UNL     1     -36.499  28.037   1.788  0.00  0.00    -0.369 N 
ATOM     16  C   UNL     1     -36.671  26.809   2.385  0.00  0.00    +0.207 C 
ATOM     17  H   UNL     1     -38.244  25.583   2.867  0.00  0.00    +0.159 HD
ATOM     18  H   UNL     1     -38.690  27.042   2.104  0.00  0.00    +0.159 HD
ATOM     19  H   UNL     1     -35.594  28.408   1.678  0.00  0.00    +0.159 HD
ATOM     20  H   UNL     1     -37.280  28.545   1.471  0.00  0.00    +0.159 HD
ENDBRANCH  13  16
ENDBRANCH  12  13
ENDBRANCH  11  12
BRANCH  11  21
ATOM     21  C   UNL     1     -34.662  23.670   5.134  0.00  0.00    +0.021 C 
BRANCH  21  22
ATOM     22  C   UNL     1     -35.324  22.811   6.208  0.00  0.00    +0.002 C 
ATOM     23  C   UNL     1     -34.861  21.365   6.127  0.00  0.00    +0.000 C 
ENDBRANCH  21  22
ENDBRANCH  11  21
ENDBRANCH   1  11
BRANCH   1  24
ATOM     24  C   UNL     1     -35.459  22.446   2.388  0.00  0.00    +0.021 C 
BRANCH  24  25
ATOM     25  C   UNL     1     -35.601  20.961   2.705  0.00  0.00    +0.002 C 
ATOM     26  C   UNL     1     -34.773  20.109   1.759  0.00  0.00    +0.000 C 
ENDBRANCH  24  25
ENDBRANCH   1  24
TORSDOF 11
ENDMDL
MODEL 9
REMARK VINA RESULT:      -4.8      2.138      4.191
REMARK  Name = 5479212
REMARK  11 active torsions:
REMARK  status: ('A' for Active; 'I' for Inactive)
REMARK    1  A    between atoms: N_1  and  C_2
REMARK    2  A    between atoms: N_1  and  N_3
REMARK    3  A    between atoms: C_2  and  C_12
REMARK    4  A    between atoms: C_2  and  C_24
REMARK    5  A    between atoms: N_3  and  C_6
REMARK    6  A    between atoms: N_11  and  C_12
REMARK    7  A    between atoms: N_11  and  N_13
REMARK    8  A    between atoms: C_12  and  C_21
REMARK    9  A    between atoms: N_13  and  C_16
REMARK   10  A    between atoms: C_21  and  C_22
REMARK   11  A    between atoms: C_24  and  C_25
REMARK                            x       y       z     vdW  Elec       q    Type
REMARK                         _______ _______ _______ _____ _____    ______ ____
ROOT
ATOM      1  C   UNL     1     -35.943  23.611   3.913  0.00  0.00    +0.116 C 
ENDROOT
BRANCH   1   2
ATOM      2  N   UNL     1     -37.227  23.588   4.071  0.00  0.00    -0.097 NA
BRANCH   2   3
ATOM      3  N   UNL     1     -37.814  24.842   3.971  0.00  0.00    -0.145 NA
BRANCH   3   6
ATOM      4  N   UNL     1     -40.083  25.307   3.682  0.00  0.00    -0.369 N 
ATOM      5  N   UNL     1     -38.966  24.371   1.921  0.00  0.00    -0.369 N 
ATOM      6  C   UNL     1     -38.881  24.832   3.216  0.00  0.00    +0.207 C 
ATOM      7  H   UNL     1     -40.150  25.665   4.596  0.00  0.00    +0.159 HD
ATOM      8  H   UNL     1     -40.877  25.292   3.100  0.00  0.00    +0.159 HD
ATOM      9  H   UNL     1     -38.167  24.005   1.477  0.00  0.00    +0.159 HD
ATOM     10  H   UNL     1     -39.823  24.409   1.440  0.00  0.00    +0.159 HD
ENDBRANCH   3   6
ENDBRANCH   2   3
ENDBRANCH   1   2
BRANCH   1  11
ATOM     11  C   UNL     1     -35.453  23.572   2.493  0.00  0.00    +0.116 C 
BRANCH  11  12
ATOM     12  N   UNL     1     -36.030  22.708   1.719  0.00  0.00    -0.097 NA
BRANCH  12  13
ATOM     13  N   UNL     1     -35.668  21.397   1.998  0.00  0.00    -0.145 NA
BRANCH  13  16
ATOM     14  N   UNL     1     -37.941  20.967   2.306  0.00  0.00    -0.369 N 
ATOM     15  N   UNL     1     -36.651  19.274   1.474  0.00  0.00    -0.369 N 
ATOM     16  C   UNL     1     -36.683  20.575   1.922  0.00  0.00    +0.207 C 
ATOM     17  H   UNL     1     -38.091  21.880   2.645  0.00  0.00    +0.159 HD
ATOM     18  H   UNL     1     -38.695  20.336   2.242  0.00  0.00    +0.159 HD
ATOM     19  H   UNL     1     -35.803  18.879   1.170  0.00  0.00    +0.159 HD
ATOM     20  H   UNL     1     -37.478  18.739   1.457  0.00  0.00    +0.159 HD
ENDBRANCH  13  16
ENDBRANCH  12  13
ENDBRANCH  11  12
BRANCH  11  21
ATOM     21  C   UNL     1     -34.330  24.518   2.144  0.00  0.00    +0.021 C 
BRANCH  21  22
ATOM     22  C   UNL     1     -34.820  25.963   2.165  0.00  0.00    +0.002 C 
ATOM     23  C   UNL     1     -35.879  26.205   1.101  0.00  0.00    +0.000 C 
ENDBRANCH  21  22
ENDBRANCH  11  21
ENDBRANCH   1  11
BRANCH   1  24
ATOM     24  C   UNL     1     -34.884  23.703   4.986  0.00  0.00    +0.021 C 
BRANCH  24  25
ATOM     25  C   UNL     1     -35.226  22.789   6.159  0.00  0.00    +0.002 C 
ATOM     26  C   UNL     1     -35.052  21.325   5.792  0.00  0.00    +0.000 C 
ENDBRANCH  24  25
ENDBRANCH   1  24
TORSDOF 11
ENDMDL
