MODEL 1
REMARK VINA RESULT:      -5.8      0.000      0.000
REMARK  Name = 21124038
REMARK  8 active torsions:
REMARK  status: ('A' for Active; 'I' for Inactive)
REMARK    1  A    between atoms: C_2  and  O_18
REMARK    2  A    between atoms: C_3  and  C_22
REMARK    3  A    between atoms: C_4  and  O_20
REMARK    4  A    between atoms: C_5  and  N_6
REMARK    5  A    between atoms: C_22  and  O_23
REMARK    6  A    between atoms: C_22  and  C_26
REMARK    7  A    between atoms: C_26  and  O_27
REMARK    8  A    between atoms: O_27  and  C_28
REMARK                            x       y       z     vdW  Elec       q    Type
REMARK                         _______ _______ _______ _____ _____    ______ ____
ROOT
ATOM      1  O   UNL     1     -35.908  24.821   2.483  0.00  0.00    -0.332 OA
ATOM      2  C   UNL     1     -37.879  25.970   3.165  0.00  0.00    +0.172 C 
ATOM      3  C   UNL     1     -36.377  25.839   3.397  0.00  0.00    +0.184 C 
ATOM      4  C   UNL     1     -38.254  24.580   2.691  0.00  0.00    +0.187 C 
ATOM      5  C   UNL     1     -37.046  24.211   1.844  0.00  0.00    +0.225 C 
ENDROOT
BRANCH   5   6
ATOM      6  N   UNL     1     -36.826  22.772   1.714  0.00  0.00    -0.247 N 
ATOM      7  N   UNL     1     -35.936  20.759   2.071  0.00  0.00    -0.242 NA
ATOM      8  N   UNL     1     -38.493  22.201   0.043  0.00  0.00    -0.228 NA
ATOM      9  N   UNL     1     -38.452  19.816  -0.470  0.00  0.00    -0.229 NA
ATOM     10  C   UNL     1     -37.498  21.912   0.895  0.00  0.00    +0.152 C 
ATOM     11  C   UNL     1     -35.898  22.035   2.400  0.00  0.00    +0.223 C 
ATOM     12  C   UNL     1     -36.931  20.669   1.131  0.00  0.00    +0.140 C 
ATOM     13  C   UNL     1     -37.445  19.597   0.410  0.00  0.00    +0.143 C 
ATOM     14  C   UNL     1     -38.906  21.086  -0.597  0.00  0.00    +0.253 C 
ATOM     15  N   UNL     1     -36.931  18.299   0.587  0.00  0.00    -0.342 N 
ATOM     16  H   UNL     1     -37.302  17.548   0.070  0.00  0.00    +0.144 HD
ATOM     17  H   UNL     1     -36.200  18.144   1.227  0.00  0.00    +0.144 HD
ENDBRANCH   5   6
BRANCH   2  18
ATOM     18  O   UNL     1     -38.101  26.908   2.111  0.00  0.00    -0.379 OA
ATOM     19  H   UNL     1     -37.321  26.939   1.536  0.00  0.00    +0.211 HD
ENDBRANCH   2  18
BRANCH   4  20
ATOM     20  O   UNL     1     -39.452  24.556   1.940  0.00  0.00    -0.378 OA
ATOM     21  H   UNL     1     -39.796  23.650   1.910  0.00  0.00    +0.211 HD
ENDBRANCH   4  20
BRANCH   3  22
ATOM     22  C   UNL     1     -36.032  25.405   4.816  0.00  0.00    +0.240 C 
BRANCH  22  23
ATOM     23  O   UNL     1     -36.331  26.483   5.687  0.00  0.00    -0.373 OA
ATOM     24  H   UNL     1     -37.034  27.027   5.299  0.00  0.00    +0.211 HD
ENDBRANCH  22  23
BRANCH  22  26
ATOM     25  O   UNL     1     -33.655  25.885   4.892  0.00  0.00    -0.247 OA
ATOM     26  C   UNL     1     -34.562  25.066   4.944  0.00  0.00    +0.347 C 
BRANCH  26  27
ATOM     27  O   UNL     1     -34.416  23.724   5.155  0.00  0.00    -0.447 OA
BRANCH  27  28
ATOM     28  C   UNL     1     -35.479  23.094   5.876  0.00  0.00    +0.209 C 
ATOM     29  C   UNL     1     -35.153  21.626   6.055  0.00  0.00    +0.051 C 
ENDBRANCH  27  28
ENDBRANCH  26  27
ENDBRANCH  22  26
ENDBRANCH   3  22
TORSDOF 8
ENDMDL
MODEL 2
REMARK VINA RESULT:      -5.8      1.772      2.299
REMARK  Name = 21124038
REMARK  8 active torsions:
REMARK  status: ('A' for Active; 'I' for Inactive)
REMARK    1  A    between atoms: C_2  and  O_18
REMARK    2  A    between atoms: C_3  and  C_22
REMARK    3  A    between atoms: C_4  and  O_20
REMARK    4  A    between atoms: C_5  and  N_6
REMARK    5  A    between atoms: C_22  and  O_23
REMARK    6  A    between atoms: C_22  and  C_26
REMARK    7  A    between atoms: C_26  and  O_27
REMARK    8  A    between atoms: O_27  and  C_28
REMARK                            x       y       z     vdW  Elec       q    Type
REMARK                         _______ _______ _______ _____ _____    ______ ____
ROOT
ATOM      1  O   UNL     1     -35.564  24.700   2.544  0.00  0.00    -0.332 OA
ATOM      2  C   UNL     1     -37.781  25.470   2.944  0.00  0.00    +0.172 C 
ATOM      3  C   UNL     1     -36.312  25.681   3.299  0.00  0.00    +0.184 C 
ATOM      4  C   UNL     1     -37.823  23.993   2.607  0.00  0.00    +0.187 C 
ATOM      5  C   UNL     1     -36.490  23.805   1.898  0.00  0.00    +0.225 C 
ENDROOT
BRANCH   5   6
ATOM      6  N   UNL     1     -35.974  22.440   1.951  0.00  0.00    -0.247 N 
ATOM      7  N   UNL     1     -35.802  20.298   2.548  0.00  0.00    -0.242 NA
ATOM      8  N   UNL     1     -34.114  22.590   0.397  0.00  0.00    -0.228 NA
ATOM      9  N   UNL     1     -32.955  20.452   0.193  0.00  0.00    -0.229 NA
ATOM     10  C   UNL     1     -34.907  21.940   1.261  0.00  0.00    +0.152 C 
ATOM     11  C   UNL     1     -36.478  21.417   2.710  0.00  0.00    +0.223 C 
ATOM     12  C   UNL     1     -34.818  20.611   1.645  0.00  0.00    +0.140 C 
ATOM     13  C   UNL     1     -33.795  19.860   1.075  0.00  0.00    +0.143 C 
ATOM     14  C   UNL     1     -33.164  21.761  -0.087  0.00  0.00    +0.253 C 
ATOM     15  N   UNL     1     -33.631  18.502   1.405  0.00  0.00    -0.342 N 
ATOM     16  H   UNL     1     -32.902  17.981   0.996  0.00  0.00    +0.144 HD
ATOM     17  H   UNL     1     -34.243  18.075   2.046  0.00  0.00    +0.144 HD
ENDBRANCH   5   6
BRANCH   2  18
ATOM     18  O   UNL     1     -38.085  26.234   1.776  0.00  0.00    -0.379 OA
ATOM     19  H   UNL     1     -38.690  26.955   2.010  0.00  0.00    +0.211 HD
ENDBRANCH   2  18
BRANCH   4  20
ATOM     20  O   UNL     1     -38.913  23.646   1.778  0.00  0.00    -0.378 OA
ATOM     21  H   UNL     1     -39.472  24.425   1.636  0.00  0.00    +0.211 HD
ENDBRANCH   4  20
BRANCH   3  22
ATOM     22  C   UNL     1     -36.024  25.469   4.779  0.00  0.00    +0.240 C 
BRANCH  22  23
ATOM     23  O   UNL     1     -36.375  26.657   5.468  0.00  0.00    -0.373 OA
ATOM     24  H   UNL     1     -36.989  27.176   4.924  0.00  0.00    +0.211 HD
ENDBRANCH  22  23
BRANCH  22  26
ATOM     25  O   UNL     1     -33.674  26.031   5.010  0.00  0.00    -0.247 OA
ATOM     26  C   UNL     1     -34.556  25.182   5.018  0.00  0.00    +0.347 C 
BRANCH  26  27
ATOM     27  O   UNL     1     -34.382  23.851   5.270  0.00  0.00    -0.447 OA
BRANCH  27  28
ATOM     28  C   UNL     1     -35.538  23.158   5.751  0.00  0.00    +0.209 C 
ATOM     29  C   UNL     1     -35.129  21.774   6.206  0.00  0.00    +0.051 C 
ENDBRANCH  27  28
ENDBRANCH  26  27
ENDBRANCH  22  26
ENDBRANCH   3  22
TORSDOF 8
ENDMDL
MODEL 3
REMARK VINA RESULT:      -5.6      3.867      6.658
REMARK  Name = 21124038
REMARK  8 active torsions:
REMARK  status: ('A' for Active; 'I' for Inactive)
REMARK    1  A    between atoms: C_2  and  O_18
REMARK    2  A    between atoms: C_3  and  C_22
REMARK    3  A    between atoms: C_4  and  O_20
REMARK    4  A    between atoms: C_5  and  N_6
REMARK    5  A    between atoms: C_22  and  O_23
REMARK    6  A    between atoms: C_22  and  C_26
REMARK    7  A    between atoms: C_26  and  O_27
REMARK    8  A    between atoms: O_27  and  C_28
REMARK                            x       y       z     vdW  Elec       q    Type
REMARK                         _______ _______ _______ _____ _____    ______ ____
ROOT
ATOM      1  O   UNL     1     -35.737  24.217   4.157  0.00  0.00    -0.332 OA
ATOM      2  C   UNL     1     -37.787  24.349   2.953  0.00  0.00    +0.172 C 
ATOM      3  C   UNL     1     -36.716  23.397   3.477  0.00  0.00    +0.184 C 
ATOM      4  C   UNL     1     -37.004  25.629   2.740  0.00  0.00    +0.187 C 
ATOM      5  C   UNL     1     -36.052  25.603   3.926  0.00  0.00    +0.225 C 
ENDROOT
BRANCH   5   6
ATOM      6  N   UNL     1     -34.820  26.361   3.718  0.00  0.00    -0.247 N 
ATOM      7  N   UNL     1     -33.215  27.476   2.645  0.00  0.00    -0.242 NA
ATOM      8  N   UNL     1     -33.975  26.498   5.991  0.00  0.00    -0.228 NA
ATOM      9  N   UNL     1     -31.868  27.725   6.080  0.00  0.00    -0.229 NA
ATOM     10  C   UNL     1     -33.920  26.739   4.672  0.00  0.00    +0.152 C 
ATOM     11  C   UNL     1     -34.354  26.825   2.517  0.00  0.00    +0.223 C 
ATOM     12  C   UNL     1     -32.933  27.429   3.986  0.00  0.00    +0.140 C 
ATOM     13  C   UNL     1     -31.878  27.932   4.741  0.00  0.00    +0.143 C 
ATOM     14  C   UNL     1     -32.902  27.031   6.614  0.00  0.00    +0.253 C 
ATOM     15  N   UNL     1     -30.833  28.646   4.128  0.00  0.00    -0.342 N 
ATOM     16  H   UNL     1     -30.090  28.996   4.672  0.00  0.00    +0.144 HD
ATOM     17  H   UNL     1     -30.844  28.795   3.155  0.00  0.00    +0.144 HD
ENDBRANCH   5   6
BRANCH   2  18
ATOM     18  O   UNL     1     -38.763  24.552   3.976  0.00  0.00    -0.379 OA
ATOM     19  H   UNL     1     -39.035  25.482   3.983  0.00  0.00    +0.211 HD
ENDBRANCH   2  18
BRANCH   4  20
ATOM     20  O   UNL     1     -37.820  26.783   2.745  0.00  0.00    -0.378 OA
ATOM     21  H   UNL     1     -37.488  27.412   3.405  0.00  0.00    +0.211 HD
ENDBRANCH   4  20
BRANCH   3  22
ATOM     22  C   UNL     1     -36.012  22.628   2.368  0.00  0.00    +0.240 C 
BRANCH  22  23
ATOM     23  O   UNL     1     -36.928  22.465   1.298  0.00  0.00    -0.373 OA
ATOM     24  H   UNL     1     -37.826  22.668   1.608  0.00  0.00    +0.211 HD
ENDBRANCH  22  23
BRANCH  22  26
ATOM     25  O   UNL     1     -35.366  20.966   4.014  0.00  0.00    -0.247 OA
ATOM     26  C   UNL     1     -35.568  21.261   2.844  0.00  0.00    +0.347 C 
BRANCH  26  27
ATOM     27  O   UNL     1     -35.462  20.414   1.777  0.00  0.00    -0.447 OA
BRANCH  27  28
ATOM     28  C   UNL     1     -34.171  20.359   1.161  0.00  0.00    +0.209 C 
ATOM     29  C   UNL     1     -33.537  19.018   1.464  0.00  0.00    +0.051 C 
ENDBRANCH  27  28
ENDBRANCH  26  27
ENDBRANCH  22  26
ENDBRANCH   3  22
TORSDOF 8
ENDMDL
MODEL 4
REMARK VINA RESULT:      -5.5      1.950      2.795
REMARK  Name = 21124038
REMARK  8 active torsions:
REMARK  status: ('A' for Active; 'I' for Inactive)
REMARK    1  A    between atoms: C_2  and  O_18
REMARK    2  A    between atoms: C_3  and  C_22
REMARK    3  A    between atoms: C_4  and  O_20
REMARK    4  A    between atoms: C_5  and  N_6
REMARK    5  A    between atoms: C_22  and  O_23
REMARK    6  A    between atoms: C_22  and  C_26
REMARK    7  A    between atoms: C_26  and  O_27
REMARK    8  A    between atoms: O_27  and  C_28
REMARK                            x       y       z     vdW  Elec       q    Type
REMARK                         _______ _______ _______ _____ _____    ______ ____
ROOT
ATOM      1  O   UNL     1     -37.776  23.656   1.429  0.00  0.00    -0.332 OA
ATOM      2  C   UNL     1     -40.040  23.422   2.127  0.00  0.00    +0.172 C 
ATOM      3  C   UNL     1     -38.864  24.390   2.037  0.00  0.00    +0.184 C 
ATOM      4  C   UNL     1     -39.345  22.080   2.241  0.00  0.00    +0.187 C 
ATOM      5  C   UNL     1     -38.159  22.273   1.309  0.00  0.00    +0.225 C 
ENDROOT
BRANCH   5   6
ATOM      6  N   UNL     1     -37.015  21.417   1.616  0.00  0.00    -0.247 N 
ATOM      7  N   UNL     1     -35.454  20.377   2.822  0.00  0.00    -0.242 NA
ATOM      8  N   UNL     1     -36.443  20.602  -0.599  0.00  0.00    -0.228 NA
ATOM      9  N   UNL     1     -34.526  19.094  -0.521  0.00  0.00    -0.229 NA
ATOM     10  C   UNL     1     -36.277  20.687   0.729  0.00  0.00    +0.152 C 
ATOM     11  C   UNL     1     -36.483  21.199   2.859  0.00  0.00    +0.223 C 
ATOM     12  C   UNL     1     -35.315  20.049   1.497  0.00  0.00    +0.140 C 
ATOM     13  C   UNL     1     -34.418  19.227   0.823  0.00  0.00    +0.143 C 
ATOM     14  C   UNL     1     -35.518  19.779  -1.139  0.00  0.00    +0.253 C 
ATOM     15  N   UNL     1     -33.409  18.539   1.522  0.00  0.00    -0.342 N 
ATOM     16  H   UNL     1     -32.779  17.961   1.035  0.00  0.00    +0.144 HD
ATOM     17  H   UNL     1     -33.334  18.638   2.498  0.00  0.00    +0.144 HD
ENDBRANCH   5   6
BRANCH   2  18
ATOM     18  O   UNL     1     -40.775  23.476   0.904  0.00  0.00    -0.379 OA
ATOM     19  H   UNL     1     -41.157  22.605   0.718  0.00  0.00    +0.211 HD
ENDBRANCH   2  18
BRANCH   4  20
ATOM     20  O   UNL     1     -40.162  20.999   1.838  0.00  0.00    -0.378 OA
ATOM     21  H   UNL     1     -40.426  20.485   2.617  0.00  0.00    +0.211 HD
ENDBRANCH   4  20
BRANCH   3  22
ATOM     22  C   UNL     1     -38.403  24.892   3.398  0.00  0.00    +0.240 C 
BRANCH  22  23
ATOM     23  O   UNL     1     -38.645  26.288   3.455  0.00  0.00    -0.373 OA
ATOM     24  H   UNL     1     -38.569  26.592   4.374  0.00  0.00    +0.211 HD
ENDBRANCH  22  23
BRANCH  22  26
ATOM     25  O   UNL     1     -36.034  25.212   2.983  0.00  0.00    -0.247 OA
ATOM     26  C   UNL     1     -36.923  24.644   3.603  0.00  0.00    +0.347 C 
BRANCH  26  27
ATOM     27  O   UNL     1     -36.743  23.723   4.595  0.00  0.00    -0.447 OA
BRANCH  27  28
ATOM     28  C   UNL     1     -35.539  23.864   5.356  0.00  0.00    +0.209 C 
ATOM     29  C   UNL     1     -35.274  22.574   6.103  0.00  0.00    +0.051 C 
ENDBRANCH  27  28
ENDBRANCH  26  27
ENDBRANCH  22  26
ENDBRANCH   3  22
TORSDOF 8
ENDMDL
MODEL 5
REMARK VINA RESULT:      -5.5      3.077      6.240
REMARK  Name = 21124038
REMARK  8 active torsions:
REMARK  status: ('A' for Active; 'I' for Inactive)
REMARK    1  A    between atoms: C_2  and  O_18
REMARK    2  A    between atoms: C_3  and  C_22
REMARK    3  A    between atoms: C_4  and  O_20
REMARK    4  A    between atoms: C_5  and  N_6
REMARK    5  A    between atoms: C_22  and  O_23
REMARK    6  A    between atoms: C_22  and  C_26
REMARK    7  A    between atoms: C_26  and  O_27
REMARK    8  A    between atoms: O_27  and  C_28
REMARK                            x       y       z     vdW  Elec       q    Type
REMARK                         _______ _______ _______ _____ _____    ______ ____
ROOT
ATOM      1  O   UNL     1     -36.983  22.980   1.793  0.00  0.00    -0.332 OA
ATOM      2  C   UNL     1     -37.047  20.600   1.740  0.00  0.00    +0.172 C 
ATOM      3  C   UNL     1     -37.838  21.869   1.438  0.00  0.00    +0.184 C 
ATOM      4  C   UNL     1     -36.142  21.046   2.871  0.00  0.00    +0.187 C 
ATOM      5  C   UNL     1     -35.806  22.468   2.448  0.00  0.00    +0.225 C 
ENDROOT
BRANCH   5   6
ATOM      6  N   UNL     1     -35.436  23.348   3.554  0.00  0.00    -0.247 N 
ATOM      7  N   UNL     1     -35.360  24.175   5.624  0.00  0.00    -0.242 NA
ATOM      8  N   UNL     1     -33.961  24.912   2.425  0.00  0.00    -0.228 NA
ATOM      9  N   UNL     1     -33.102  26.593   3.971  0.00  0.00    -0.229 NA
ATOM     10  C   UNL     1     -34.607  24.431   3.498  0.00  0.00    +0.152 C 
ATOM     11  C   UNL     1     -35.864  23.235   4.850  0.00  0.00    +0.223 C 
ATOM     12  C   UNL     1     -34.572  24.929   4.791  0.00  0.00    +0.140 C 
ATOM     13  C   UNL     1     -33.783  26.053   5.010  0.00  0.00    +0.143 C 
ATOM     14  C   UNL     1     -33.232  25.998   2.761  0.00  0.00    +0.253 C 
ATOM     15  N   UNL     1     -33.688  26.625   6.292  0.00  0.00    -0.342 N 
ATOM     16  H   UNL     1     -33.126  27.421   6.435  0.00  0.00    +0.144 HD
ATOM     17  H   UNL     1     -34.183  26.229   7.045  0.00  0.00    +0.144 HD
ENDBRANCH   5   6
BRANCH   2  18
ATOM     18  O   UNL     1     -36.256  20.269   0.599  0.00  0.00    -0.379 OA
ATOM     19  H   UNL     1     -36.418  20.916  -0.105  0.00  0.00    +0.211 HD
ENDBRANCH   2  18
BRANCH   4  20
ATOM     20  O   UNL     1     -34.983  20.248   3.000  0.00  0.00    -0.378 OA
ATOM     21  H   UNL     1     -34.520  20.210   2.149  0.00  0.00    +0.211 HD
ENDBRANCH   4  20
BRANCH   3  22
ATOM     22  C   UNL     1     -39.123  21.975   2.250  0.00  0.00    +0.240 C 
BRANCH  22  23
ATOM     23  O   UNL     1     -40.030  21.000   1.762  0.00  0.00    -0.373 OA
ATOM     24  H   UNL     1     -40.921  21.382   1.717  0.00  0.00    +0.211 HD
ENDBRANCH  22  23
BRANCH  22  26
ATOM     25  O   UNL     1     -40.342  23.733   1.106  0.00  0.00    -0.247 OA
ATOM     26  C   UNL     1     -39.753  23.344   2.106  0.00  0.00    +0.347 C 
BRANCH  26  27
ATOM     27  O   UNL     1     -39.587  24.051   3.263  0.00  0.00    -0.447 OA
BRANCH  27  28
ATOM     28  C   UNL     1     -39.509  25.472   3.110  0.00  0.00    +0.209 C 
ATOM     29  C   UNL     1     -38.054  25.877   3.000  0.00  0.00    +0.051 C 
ENDBRANCH  27  28
ENDBRANCH  26  27
ENDBRANCH  22  26
ENDBRANCH   3  22
TORSDOF 8
ENDMDL
MODEL 6
REMARK VINA RESULT:      -5.5      4.791      7.522
REMARK  Name = 21124038
REMARK  8 active torsions:
REMARK  status: ('A' for Active; 'I' for Inactive)
REMARK    1  A    between atoms: C_2  and  O_18
REMARK    2  A    between atoms: C_3  and  C_22
REMARK    3  A    between atoms: C_4  and  O_20
REMARK    4  A    between atoms: C_5  and  N_6
REMARK    5  A    between atoms: C_22  and  O_23
REMARK    6  A    between atoms: C_22  and  C_26
REMARK    7  A    between atoms: C_26  and  O_27
REMARK    8  A    between atoms: O_27  and  C_28
REMARK                            x       y       z     vdW  Elec       q    Type
REMARK                         _______ _______ _______ _____ _____    ______ ____
ROOT
ATOM      1  O   UNL     1     -35.152  26.037   3.094  0.00  0.00    -0.332 OA
ATOM      2  C   UNL     1     -34.061  24.954   1.275  0.00  0.00    +0.172 C 
ATOM      3  C   UNL     1     -35.258  24.890   2.219  0.00  0.00    +0.184 C 
ATOM      4  C   UNL     1     -33.026  25.675   2.115  0.00  0.00    +0.187 C 
ATOM      5  C   UNL     1     -33.887  26.685   2.858  0.00  0.00    +0.225 C 
ENDROOT
BRANCH   5   6
ATOM      6  N   UNL     1     -33.319  27.135   4.126  0.00  0.00    -0.247 N 
ATOM      7  N   UNL     1     -32.934  27.230   6.321  0.00  0.00    -0.242 NA
ATOM      8  N   UNL     1     -31.857  28.920   3.368  0.00  0.00    -0.228 NA
ATOM      9  N   UNL     1     -30.686  29.960   5.240  0.00  0.00    -0.229 NA
ATOM     10  C   UNL     1     -32.413  28.140   4.308  0.00  0.00    +0.152 C 
ATOM     11  C   UNL     1     -33.603  26.619   5.363  0.00  0.00    +0.223 C 
ATOM     12  C   UNL     1     -32.187  28.182   5.674  0.00  0.00    +0.140 C 
ATOM     13  C   UNL     1     -31.285  29.137   6.133  0.00  0.00    +0.143 C 
ATOM     14  C   UNL     1     -31.004  29.803   3.932  0.00  0.00    +0.253 C 
ATOM     15  N   UNL     1     -30.995  29.251   7.504  0.00  0.00    -0.342 N 
ATOM     16  H   UNL     1     -30.356  29.931   7.817  0.00  0.00    +0.144 HD
ATOM     17  H   UNL     1     -31.432  28.651   8.150  0.00  0.00    +0.144 HD
ENDBRANCH   5   6
BRANCH   2  18
ATOM     18  O   UNL     1     -34.407  25.762   0.149  0.00  0.00    -0.379 OA
ATOM     19  H   UNL     1     -35.025  25.277  -0.419  0.00  0.00    +0.211 HD
ENDBRANCH   2  18
BRANCH   4  20
ATOM     20  O   UNL     1     -32.025  26.304   1.341  0.00  0.00    -0.378 OA
ATOM     21  H   UNL     1     -32.378  26.506   0.460  0.00  0.00    +0.211 HD
ENDBRANCH   4  20
BRANCH   3  22
ATOM     22  C   UNL     1     -35.269  23.632   3.077  0.00  0.00    +0.240 C 
BRANCH  22  23
ATOM     23  O   UNL     1     -35.156  22.512   2.214  0.00  0.00    -0.373 OA
ATOM     24  H   UNL     1     -34.905  22.813   1.326  0.00  0.00    +0.211 HD
ENDBRANCH  22  23
BRANCH  22  26
ATOM     25  O   UNL     1     -37.643  23.225   3.375  0.00  0.00    -0.247 OA
ATOM     26  C   UNL     1     -36.558  23.514   3.863  0.00  0.00    +0.347 C 
BRANCH  26  27
ATOM     27  O   UNL     1     -36.314  23.749   5.186  0.00  0.00    -0.447 OA
BRANCH  27  28
ATOM     28  C   UNL     1     -35.084  23.219   5.689  0.00  0.00    +0.209 C 
ATOM     29  C   UNL     1     -35.359  21.897   6.375  0.00  0.00    +0.051 C 
ENDBRANCH  27  28
ENDBRANCH  26  27
ENDBRANCH  22  26
ENDBRANCH   3  22
TORSDOF 8
ENDMDL
MODEL 7
REMARK VINA RESULT:      -5.4      3.290      6.026
REMARK  Name = 21124038
REMARK  8 active torsions:
REMARK  status: ('A' for Active; 'I' for Inactive)
REMARK    1  A    between atoms: C_2  and  O_18
REMARK    2  A    between atoms: C_3  and  C_22
REMARK    3  A    between atoms: C_4  and  O_20
REMARK    4  A    between atoms: C_5  and  N_6
REMARK    5  A    between atoms: C_22  and  O_23
REMARK    6  A    between atoms: C_22  and  C_26
REMARK    7  A    between atoms: C_26  and  O_27
REMARK    8  A    between atoms: O_27  and  C_28
REMARK                            x       y       z     vdW  Elec       q    Type
REMARK                         _______ _______ _______ _____ _____    ______ ____
ROOT
ATOM      1  O   UNL     1     -37.467  21.946   2.249  0.00  0.00    -0.332 OA
ATOM      2  C   UNL     1     -39.531  21.480   1.158  0.00  0.00    +0.172 C 
ATOM      3  C   UNL     1     -38.086  21.020   1.327  0.00  0.00    +0.184 C 
ATOM      4  C   UNL     1     -39.423  22.973   1.399  0.00  0.00    +0.187 C 
ATOM      5  C   UNL     1     -38.382  23.027   2.507  0.00  0.00    +0.225 C 
ENDROOT
BRANCH   5   6
ATOM      6  N   UNL     1     -37.649  24.289   2.575  0.00  0.00    -0.247 N 
ATOM      7  N   UNL     1     -36.891  26.294   1.962  0.00  0.00    -0.242 NA
ATOM      8  N   UNL     1     -36.555  24.070   4.732  0.00  0.00    -0.228 NA
ATOM      9  N   UNL     1     -35.193  26.031   5.236  0.00  0.00    -0.229 NA
ATOM     10  C   UNL     1     -36.843  24.714   3.591  0.00  0.00    +0.152 C 
ATOM     11  C   UNL     1     -37.646  25.270   1.619  0.00  0.00    +0.223 C 
ATOM     12  C   UNL     1     -36.383  25.959   3.191  0.00  0.00    +0.140 C 
ATOM     13  C   UNL     1     -35.527  26.623   4.065  0.00  0.00    +0.143 C 
ATOM     14  C   UNL     1     -35.720  24.809   5.493  0.00  0.00    +0.253 C 
ATOM     15  N   UNL     1     -35.013  27.891   3.742  0.00  0.00    -0.342 N 
ATOM     16  H   UNL     1     -34.407  28.351   4.367  0.00  0.00    +0.144 HD
ATOM     17  H   UNL     1     -35.258  28.319   2.890  0.00  0.00    +0.144 HD
ENDBRANCH   5   6
BRANCH   2  18
ATOM     18  O   UNL     1     -40.326  20.888   2.186  0.00  0.00    -0.379 OA
ATOM     19  H   UNL     1     -39.779  20.279   2.707  0.00  0.00    +0.211 HD
ENDBRANCH   2  18
BRANCH   4  20
ATOM     20  O   UNL     1     -40.647  23.558   1.797  0.00  0.00    -0.378 OA
ATOM     21  H   UNL     1     -40.502  24.110   2.581  0.00  0.00    +0.211 HD
ENDBRANCH   4  20
BRANCH   3  22
ATOM     22  C   UNL     1     -37.300  21.041   0.024  0.00  0.00    +0.240 C 
BRANCH  22  23
ATOM     23  O   UNL     1     -37.686  19.910  -0.739  0.00  0.00    -0.373 OA
ATOM     24  H   UNL     1     -38.394  20.161  -1.354  0.00  0.00    +0.211 HD
ENDBRANCH  22  23
BRANCH  22  26
ATOM     25  O   UNL     1     -35.024  21.882   0.053  0.00  0.00    -0.247 OA
ATOM     26  C   UNL     1     -35.809  20.971   0.280  0.00  0.00    +0.347 C 
BRANCH  26  27
ATOM     27  O   UNL     1     -35.492  19.759   0.824  0.00  0.00    -0.447 OA
BRANCH  27  28
ATOM     28  C   UNL     1     -34.447  19.777   1.801  0.00  0.00    +0.209 C 
ATOM     29  C   UNL     1     -33.344  18.838   1.362  0.00  0.00    +0.051 C 
ENDBRANCH  27  28
ENDBRANCH  26  27
ENDBRANCH  22  26
ENDBRANCH   3  22
TORSDOF 8
ENDMDL
MODEL 8
REMARK VINA RESULT:      -5.4      1.712      3.937
REMARK  Name = 21124038
REMARK  8 active torsions:
REMARK  status: ('A' for Active; 'I' for Inactive)
REMARK    1  A    between atoms: C_2  and  O_18
REMARK    2  A    between atoms: C_3  and  C_22
REMARK    3  A    between atoms: C_4  and  O_20
REMARK    4  A    between atoms: C_5  and  N_6
REMARK    5  A    between atoms: C_22  and  O_23
REMARK    6  A    between atoms: C_22  and  C_26
REMARK    7  A    between atoms: C_26  and  O_27
REMARK    8  A    between atoms: O_27  and  C_28
REMARK                            x       y       z     vdW  Elec       q    Type
REMARK                         _______ _______ _______ _____ _____    ______ ____
ROOT
ATOM      1  O   UNL     1     -37.495  24.309   4.026  0.00  0.00    -0.332 OA
ATOM      2  C   UNL     1     -36.132  26.246   4.268  0.00  0.00    +0.172 C 
ATOM      3  C   UNL     1     -37.489  25.737   3.794  0.00  0.00    +0.184 C 
ATOM      4  C   UNL     1     -35.243  25.038   4.058  0.00  0.00    +0.187 C 
ATOM      5  C   UNL     1     -36.178  23.901   4.443  0.00  0.00    +0.225 C 
ENDROOT
BRANCH   5   6
ATOM      6  N   UNL     1     -35.842  22.619   3.829  0.00  0.00    -0.247 N 
ATOM      7  N   UNL     1     -35.195  20.491   3.667  0.00  0.00    -0.242 NA
ATOM      8  N   UNL     1     -36.242  23.113   1.485  0.00  0.00    -0.228 NA
ATOM      9  N   UNL     1     -35.785  21.170   0.080  0.00  0.00    -0.229 NA
ATOM     10  C   UNL     1     -35.885  22.311   2.499  0.00  0.00    +0.152 C 
ATOM     11  C   UNL     1     -35.421  21.496   4.490  0.00  0.00    +0.223 C 
ATOM     12  C   UNL     1     -35.481  20.988   2.420  0.00  0.00    +0.140 C 
ATOM     13  C   UNL     1     -35.438  20.418   1.152  0.00  0.00    +0.143 C 
ATOM     14  C   UNL     1     -36.160  22.452   0.310  0.00  0.00    +0.253 C 
ATOM     15  N   UNL     1     -35.040  19.080   0.978  0.00  0.00    -0.342 N 
ATOM     16  H   UNL     1     -35.012  18.688   0.075  0.00  0.00    +0.144 HD
ATOM     17  H   UNL     1     -34.789  18.537   1.759  0.00  0.00    +0.144 HD
ENDBRANCH   5   6
BRANCH   2  18
ATOM     18  O   UNL     1     -36.214  26.541   5.664  0.00  0.00    -0.379 OA
ATOM     19  H   UNL     1     -36.751  27.338   5.795  0.00  0.00    +0.211 HD
ENDBRANCH   2  18
BRANCH   4  20
ATOM     20  O   UNL     1     -34.081  25.059   4.863  0.00  0.00    -0.378 OA
ATOM     21  H   UNL     1     -33.367  25.512   4.389  0.00  0.00    +0.211 HD
ENDBRANCH   4  20
BRANCH   3  22
ATOM     22  C   UNL     1     -37.729  25.982   2.310  0.00  0.00    +0.240 C 
BRANCH  22  23
ATOM     23  O   UNL     1     -37.343  27.315   2.019  0.00  0.00    -0.373 OA
ATOM     24  H   UNL     1     -36.379  27.397   2.100  0.00  0.00    +0.211 HD
ENDBRANCH  22  23
BRANCH  22  26
ATOM     25  O   UNL     1     -40.096  26.514   2.379  0.00  0.00    -0.247 OA
ATOM     26  C   UNL     1     -39.190  25.809   1.953  0.00  0.00    +0.347 C 
BRANCH  26  27
ATOM     27  O   UNL     1     -39.330  24.775   1.071  0.00  0.00    -0.447 OA
BRANCH  27  28
ATOM     28  C   UNL     1     -40.360  23.832   1.385  0.00  0.00    +0.209 C 
ATOM     29  C   UNL     1     -39.730  22.596   1.992  0.00  0.00    +0.051 C 
ENDBRANCH  27  28
ENDBRANCH  26  27
ENDBRANCH  22  26
ENDBRANCH   3  22
TORSDOF 8
ENDMDL
MODEL 9
REMARK VINA RESULT:      -5.4      2.958      5.021
REMARK  Name = 21124038
REMARK  8 active torsions:
REMARK  status: ('A' for Active; 'I' for Inactive)
REMARK    1  A    between atoms: C_2  and  O_18
REMARK    2  A    between atoms: C_3  and  C_22
REMARK    3  A    between atoms: C_4  and  O_20
REMARK    4  A    between atoms: C_5  and  N_6
REMARK    5  A    between atoms: C_22  and  O_23
REMARK    6  A    between atoms: C_22  and  C_26
REMARK    7  A    between atoms: C_26  and  O_27
REMARK    8  A    between atoms: O_27  and  C_28
REMARK                            x       y       z     vdW  Elec       q    Type
REMARK                         _______ _______ _______ _____ _____    ______ ____
ROOT
ATOM      1  O   UNL     1     -35.429  24.387   2.950  0.00  0.00    -0.332 OA
ATOM      2  C   UNL     1     -35.264  24.433   5.325  0.00  0.00    +0.172 C 
ATOM      3  C   UNL     1     -35.098  23.557   4.087  0.00  0.00    +0.184 C 
ATOM      4  C   UNL     1     -36.329  25.417   4.883  0.00  0.00    +0.187 C 
ATOM      5  C   UNL     1     -35.948  25.643   3.427  0.00  0.00    +0.225 C 
ENDROOT
BRANCH   5   6
ATOM      6  N   UNL     1     -37.059  26.071   2.581  0.00  0.00    -0.247 N 
ATOM      7  N   UNL     1     -38.204  27.281   1.098  0.00  0.00    -0.242 NA
ATOM      8  N   UNL     1     -38.733  24.403   3.140  0.00  0.00    -0.228 NA
ATOM      9  N   UNL     1     -40.802  24.774   1.899  0.00  0.00    -0.229 NA
ATOM     10  C   UNL     1     -38.288  25.485   2.484  0.00  0.00    +0.152 C 
ATOM     11  C   UNL     1     -37.056  27.145   1.731  0.00  0.00    +0.223 C 
ATOM     12  C   UNL     1     -38.982  26.250   1.560  0.00  0.00    +0.140 C 
ATOM     13  C   UNL     1     -40.286  25.859   1.273  0.00  0.00    +0.143 C 
ATOM     14  C   UNL     1     -40.004  24.122   2.780  0.00  0.00    +0.253 C 
ATOM     15  N   UNL     1     -41.064  26.576   0.346  0.00  0.00    -0.342 N 
ATOM     16  H   UNL     1     -41.986  26.290   0.152  0.00  0.00    +0.144 HD
ATOM     17  H   UNL     1     -40.687  27.363  -0.108  0.00  0.00    +0.144 HD
ENDBRANCH   5   6
BRANCH   2  18
ATOM     18  O   UNL     1     -34.040  25.130   5.561  0.00  0.00    -0.379 OA
ATOM     19  H   UNL     1     -33.888  25.200   6.516  0.00  0.00    +0.211 HD
ENDBRANCH   2  18
BRANCH   4  20
ATOM     20  O   UNL     1     -36.312  26.620   5.625  0.00  0.00    -0.378 OA
ATOM     21  H   UNL     1     -36.865  26.520   6.415  0.00  0.00    +0.211 HD
ENDBRANCH   4  20
BRANCH   3  22
ATOM     22  C   UNL     1     -36.027  22.350   4.086  0.00  0.00    +0.240 C 
BRANCH  22  23
ATOM     23  O   UNL     1     -35.562  21.440   5.069  0.00  0.00    -0.373 OA
ATOM     24  H   UNL     1     -36.108  21.521   5.868  0.00  0.00    +0.211 HD
ENDBRANCH  22  23
BRANCH  22  26
ATOM     25  O   UNL     1     -36.818  21.895   1.837  0.00  0.00    -0.247 OA
ATOM     26  C   UNL     1     -36.026  21.657   2.740  0.00  0.00    +0.347 C 
BRANCH  26  27
ATOM     27  O   UNL     1     -34.997  20.760   2.684  0.00  0.00    -0.447 OA
BRANCH  27  28
ATOM     28  C   UNL     1     -35.003  19.885   1.552  0.00  0.00    +0.209 C 
ATOM     29  C   UNL     1     -33.687  19.137   1.500  0.00  0.00    +0.051 C 
ENDBRANCH  27  28
ENDBRANCH  26  27
ENDBRANCH  22  26
ENDBRANCH   3  22
TORSDOF 8
ENDMDL
