MODEL 1
REMARK VINA RESULT:      -6.8      0.000      0.000
REMARK  Name = 193644
REMARK  10 active torsions:
REMARK  status: ('A' for Active; 'I' for Inactive)
REMARK    1  A    between atoms: N_3  and  C_23
REMARK    2  A    between atoms: C_12  and  C_22
REMARK    3  A    between atoms: C_23  and  C_24
REMARK    4  A    between atoms: C_24  and  O_25
REMARK    5  A    between atoms: C_24  and  C_27
REMARK    6  A    between atoms: C_27  and  O_28
REMARK    7  A    between atoms: C_27  and  C_30
REMARK    8  A    between atoms: C_30  and  O_31
REMARK    9  A    between atoms: C_30  and  C_33
REMARK   10  A    between atoms: C_33  and  O_34
REMARK                            x       y       z     vdW  Elec       q    Type
REMARK                         _______ _______ _______ _____ _____    ______ ____
ROOT
ATOM      1  O   UNL     1     -40.741  21.000   0.747  0.00  0.00    -0.266 OA
ATOM      2  O   UNL     1     -39.834  24.806   3.157  0.00  0.00    -0.193 OA
ATOM      3  N   UNL     1     -36.223  22.053   2.104  0.00  0.00    -0.255 N 
ATOM      4  N   UNL     1     -38.114  20.389   0.810  0.00  0.00    -0.396 NA
ATOM      5  N   UNL     1     -38.067  23.467   2.646  0.00  0.00    -0.303 NA
ATOM      6  N   UNL     1     -40.303  22.933   1.967  0.00  0.00    -0.196 N 
ATOM      7  C   UNL     1     -35.791  20.867   1.472  0.00  0.00    +0.079 C 
ATOM      8  C   UNL     1     -37.569  22.401   2.093  0.00  0.00    +0.236 C 
ATOM      9  C   UNL     1     -36.751  20.056   0.834  0.00  0.00    +0.127 C 
ATOM     10  C   UNL     1     -34.448  20.447   1.440  0.00  0.00    +0.020 C 
ATOM     11  C   UNL     1     -38.519  21.473   1.388  0.00  0.00    +0.230 C 
ATOM     12  C   UNL     1     -34.071  19.264   0.798  0.00  0.00    +0.065 C 
ATOM     13  C   UNL     1     -35.027  18.475   0.174  0.00  0.00    -0.033 C 
ATOM     14  C   UNL     1     -36.361  18.869   0.192  0.00  0.00    +0.082 C 
ATOM     15  C   UNL     1     -39.983  21.762   1.322  0.00  0.00    +0.293 C 
ATOM     16  C   UNL     1     -34.652  17.205  -0.517  0.00  0.00    +0.027 C 
ATOM     17  C   UNL     1     -39.408  23.784   2.616  0.00  0.00    +0.273 C 
ATOM     18  H   UNL     1     -41.252  23.196   1.970  0.00  0.00    +0.169 HD
ENDROOT
BRANCH  12  22
ATOM     19  F   UNL     1     -32.285  18.065   1.846  0.00  0.00    -0.166 F 
ATOM     20  F   UNL     1     -32.257  18.177  -0.321  0.00  0.00    -0.166 F 
ATOM     21  F   UNL     1     -31.792  19.941   0.863  0.00  0.00    -0.166 F 
ATOM     22  C   UNL     1     -32.630  18.868   0.797  0.00  0.00    +0.418 C 
ENDBRANCH  12  22
BRANCH   3  23
ATOM     23  C   UNL     1     -35.219  22.889   2.762  0.00  0.00    +0.130 C 
BRANCH  23  24
ATOM     24  C   UNL     1     -35.123  22.522   4.248  0.00  0.00    +0.160 C 
BRANCH  24  25
ATOM     25  O   UNL     1     -36.424  22.156   4.711  0.00  0.00    -0.380 OA
ATOM     26  H   UNL     1     -36.989  21.941   3.952  0.00  0.00    +0.211 HD
ENDBRANCH  24  25
BRANCH  24  27
ATOM     27  C   UNL     1     -34.584  23.680   5.112  0.00  0.00    +0.168 C 
BRANCH  27  28
ATOM     28  O   UNL     1     -35.230  23.670   6.384  0.00  0.00    -0.379 OA
ATOM     29  H   UNL     1     -35.231  22.767   6.739  0.00  0.00    +0.211 HD
ENDBRANCH  27  28
BRANCH  27  30
ATOM     30  C   UNL     1     -34.793  25.062   4.464  0.00  0.00    +0.169 C 
BRANCH  30  31
ATOM     31  O   UNL     1     -33.589  25.823   4.592  0.00  0.00    -0.379 OA
ATOM     32  H   UNL     1     -32.876  25.249   4.910  0.00  0.00    +0.211 HD
ENDBRANCH  30  31
BRANCH  30  33
ATOM     33  C   UNL     1     -35.931  25.844   5.117  0.00  0.00    +0.169 C 
BRANCH  33  34
ATOM     34  O   UNL     1     -37.157  25.163   4.869  0.00  0.00    -0.379 OA
ATOM     35  H   UNL     1     -36.996  24.209   4.834  0.00  0.00    +0.211 HD
ENDBRANCH  33  34
ENDBRANCH  30  33
ENDBRANCH  27  30
ENDBRANCH  24  27
ENDBRANCH  23  24
ENDBRANCH   3  23
TORSDOF 10
ENDMDL
MODEL 2
REMARK VINA RESULT:      -6.3      3.169      5.919
REMARK  Name = 193644
REMARK  10 active torsions:
REMARK  status: ('A' for Active; 'I' for Inactive)
REMARK    1  A    between atoms: N_3  and  C_23
REMARK    2  A    between atoms: C_12  and  C_22
REMARK    3  A    between atoms: C_23  and  C_24
REMARK    4  A    between atoms: C_24  and  O_25
REMARK    5  A    between atoms: C_24  and  C_27
REMARK    6  A    between atoms: C_27  and  O_28
REMARK    7  A    between atoms: C_27  and  C_30
REMARK    8  A    between atoms: C_30  and  O_31
REMARK    9  A    between atoms: C_30  and  C_33
REMARK   10  A    between atoms: C_33  and  O_34
REMARK                            x       y       z     vdW  Elec       q    Type
REMARK                         _______ _______ _______ _____ _____    ______ ____
ROOT
ATOM      1  O   UNL     1     -40.767  27.534   1.433  0.00  0.00    -0.266 OA
ATOM      2  O   UNL     1     -42.543  23.763  -0.502  0.00  0.00    -0.193 OA
ATOM      3  N   UNL     1     -38.865  23.175   2.300  0.00  0.00    -0.255 N 
ATOM      4  N   UNL     1     -38.926  25.985   2.653  0.00  0.00    -0.396 NA
ATOM      5  N   UNL     1     -40.748  23.469   0.864  0.00  0.00    -0.303 NA
ATOM      6  N   UNL     1     -41.682  25.636   0.443  0.00  0.00    -0.196 N 
ATOM      7  C   UNL     1     -37.909  23.794   3.135  0.00  0.00    +0.079 C 
ATOM      8  C   UNL     1     -39.828  23.941   1.653  0.00  0.00    +0.236 C 
ATOM      9  C   UNL     1     -37.961  25.193   3.296  0.00  0.00    +0.127 C 
ATOM     10  C   UNL     1     -36.904  23.090   3.823  0.00  0.00    +0.020 C 
ATOM     11  C   UNL     1     -39.805  25.427   1.886  0.00  0.00    +0.230 C 
ATOM     12  C   UNL     1     -35.982  23.749   4.640  0.00  0.00    +0.065 C 
ATOM     13  C   UNL     1     -36.045  25.128   4.789  0.00  0.00    -0.033 C 
ATOM     14  C   UNL     1     -37.030  25.847   4.119  0.00  0.00    +0.082 C 
ATOM     15  C   UNL     1     -40.799  26.332   1.236  0.00  0.00    +0.293 C 
ATOM     16  C   UNL     1     -35.071  25.858   5.654  0.00  0.00    +0.027 C 
ATOM     17  C   UNL     1     -41.690  24.256   0.239  0.00  0.00    +0.273 C 
ATOM     18  H   UNL     1     -42.372  26.161  -0.024  0.00  0.00    +0.169 HD
ENDROOT
BRANCH  12  22
ATOM     19  F   UNL     1     -33.682  23.478   5.238  0.00  0.00    -0.166 F 
ATOM     20  F   UNL     1     -35.158  22.824   6.686  0.00  0.00    -0.166 F 
ATOM     21  F   UNL     1     -34.840  21.676   4.867  0.00  0.00    -0.166 F 
ATOM     22  C   UNL     1     -34.936  22.949   5.345  0.00  0.00    +0.418 C 
ENDBRANCH  12  22
BRANCH   3  23
ATOM     23  C   UNL     1     -38.804  21.723   2.140  0.00  0.00    +0.130 C 
BRANCH  23  24
ATOM     24  C   UNL     1     -37.991  21.367   0.890  0.00  0.00    +0.160 C 
BRANCH  24  25
ATOM     25  O   UNL     1     -38.878  20.825  -0.090  0.00  0.00    -0.380 OA
ATOM     26  H   UNL     1     -38.907  21.414  -0.860  0.00  0.00    +0.211 HD
ENDBRANCH  24  25
BRANCH  24  27
ATOM     27  C   UNL     1     -36.872  20.346   1.180  0.00  0.00    +0.168 C 
BRANCH  27  28
ATOM     28  O   UNL     1     -37.057  19.790   2.481  0.00  0.00    -0.379 OA
ATOM     29  H   UNL     1     -37.993  19.847   2.727  0.00  0.00    +0.211 HD
ENDBRANCH  27  28
BRANCH  27  30
ATOM     30  C   UNL     1     -35.461  20.962   1.104  0.00  0.00    +0.169 C 
BRANCH  30  31
ATOM     31  O   UNL     1     -35.203  21.369  -0.243  0.00  0.00    -0.379 OA
ATOM     32  H   UNL     1     -35.495  20.673  -0.852  0.00  0.00    +0.211 HD
ENDBRANCH  30  31
BRANCH  30  33
ATOM     33  C   UNL     1     -34.373  19.978   1.529  0.00  0.00    +0.169 C 
BRANCH  33  34
ATOM     34  O   UNL     1     -34.711  18.682   1.044  0.00  0.00    -0.379 OA
ATOM     35  H   UNL     1     -34.665  18.042   1.771  0.00  0.00    +0.211 HD
ENDBRANCH  33  34
ENDBRANCH  30  33
ENDBRANCH  27  30
ENDBRANCH  24  27
ENDBRANCH  23  24
ENDBRANCH   3  23
TORSDOF 10
ENDMDL
MODEL 3
REMARK VINA RESULT:      -6.1      3.170      4.503
REMARK  Name = 193644
REMARK  10 active torsions:
REMARK  status: ('A' for Active; 'I' for Inactive)
REMARK    1  A    between atoms: N_3  and  C_23
REMARK    2  A    between atoms: C_12  and  C_22
REMARK    3  A    between atoms: C_23  and  C_24
REMARK    4  A    between atoms: C_24  and  O_25
REMARK    5  A    between atoms: C_24  and  C_27
REMARK    6  A    between atoms: C_27  and  O_28
REMARK    7  A    between atoms: C_27  and  C_30
REMARK    8  A    between atoms: C_30  and  O_31
REMARK    9  A    between atoms: C_30  and  C_33
REMARK   10  A    between atoms: C_33  and  O_34
REMARK                            x       y       z     vdW  Elec       q    Type
REMARK                         _______ _______ _______ _____ _____    ______ ____
ROOT
ATOM      1  O   UNL     1     -33.077  27.719  -1.010  0.00  0.00    -0.266 OA
ATOM      2  O   UNL     1     -36.693  29.039   1.500  0.00  0.00    -0.193 OA
ATOM      3  N   UNL     1     -35.670  24.491   1.484  0.00  0.00    -0.255 N 
ATOM      4  N   UNL     1     -33.533  25.172  -0.245  0.00  0.00    -0.396 NA
ATOM      5  N   UNL     1     -36.199  26.817   1.497  0.00  0.00    -0.303 NA
ATOM      6  N   UNL     1     -34.905  28.408   0.255  0.00  0.00    -0.196 N 
ATOM      7  C   UNL     1     -34.812  23.478   1.002  0.00  0.00    +0.079 C 
ATOM      8  C   UNL     1     -35.467  25.814   1.111  0.00  0.00    +0.236 C 
ATOM      9  C   UNL     1     -33.756  23.842   0.144  0.00  0.00    +0.127 C 
ATOM     10  C   UNL     1     -34.952  22.117   1.333  0.00  0.00    +0.020 C 
ATOM     11  C   UNL     1     -34.313  26.107   0.191  0.00  0.00    +0.230 C 
ATOM     12  C   UNL     1     -34.075  21.153   0.831  0.00  0.00    +0.065 C 
ATOM     13  C   UNL     1     -33.039  21.526  -0.014  0.00  0.00    -0.033 C 
ATOM     14  C   UNL     1     -32.880  22.865  -0.356  0.00  0.00    +0.082 C 
ATOM     15  C   UNL     1     -34.015  27.498  -0.264  0.00  0.00    +0.293 C 
ATOM     16  C   UNL     1     -32.089  20.515  -0.567  0.00  0.00    +0.027 C 
ATOM     17  C   UNL     1     -35.970  28.120   1.109  0.00  0.00    +0.273 C 
ATOM     18  H   UNL     1     -34.778  29.351   0.002  0.00  0.00    +0.169 HD
ENDROOT
BRANCH  12  22
ATOM     19  F   UNL     1     -35.256  19.539   2.145  0.00  0.00    -0.166 F 
ATOM     20  F   UNL     1     -34.616  18.919   0.167  0.00  0.00    -0.166 F 
ATOM     21  F   UNL     1     -33.150  19.166   1.754  0.00  0.00    -0.166 F 
ATOM     22  C   UNL     1     -34.272  19.722   1.216  0.00  0.00    +0.418 C 
ENDBRANCH  12  22
BRANCH   3  23
ATOM     23  C   UNL     1     -36.763  24.103   2.375  0.00  0.00    +0.130 C 
BRANCH  23  24
ATOM     24  C   UNL     1     -36.244  23.958   3.810  0.00  0.00    +0.160 C 
BRANCH  24  25
ATOM     25  O   UNL     1     -36.767  22.749   4.363  0.00  0.00    -0.380 OA
ATOM     26  H   UNL     1     -37.271  22.275   3.683  0.00  0.00    +0.211 HD
ENDBRANCH  24  25
BRANCH  24  27
ATOM     27  C   UNL     1     -36.646  25.144   4.710  0.00  0.00    +0.168 C 
BRANCH  27  28
ATOM     28  O   UNL     1     -37.553  25.992   4.008  0.00  0.00    -0.379 OA
ATOM     29  H   UNL     1     -38.261  26.275   4.607  0.00  0.00    +0.211 HD
ENDBRANCH  27  28
BRANCH  27  30
ATOM     30  C   UNL     1     -35.441  25.985   5.171  0.00  0.00    +0.169 C 
BRANCH  30  31
ATOM     31  O   UNL     1     -35.395  27.192   4.406  0.00  0.00    -0.379 OA
ATOM     32  H   UNL     1     -35.998  27.118   3.650  0.00  0.00    +0.211 HD
ENDBRANCH  30  31
BRANCH  30  33
ATOM     33  C   UNL     1     -34.114  25.248   4.994  0.00  0.00    +0.169 C 
BRANCH  33  34
ATOM     34  O   UNL     1     -33.335  25.935   4.020  0.00  0.00    -0.379 OA
ATOM     35  H   UNL     1     -33.919  26.438   3.433  0.00  0.00    +0.211 HD
ENDBRANCH  33  34
ENDBRANCH  30  33
ENDBRANCH  27  30
ENDBRANCH  24  27
ENDBRANCH  23  24
ENDBRANCH   3  23
TORSDOF 10
ENDMDL
MODEL 4
REMARK VINA RESULT:      -5.9      4.855      7.713
REMARK  Name = 193644
REMARK  10 active torsions:
REMARK  status: ('A' for Active; 'I' for Inactive)
REMARK    1  A    between atoms: N_3  and  C_23
REMARK    2  A    between atoms: C_12  and  C_22
REMARK    3  A    between atoms: C_23  and  C_24
REMARK    4  A    between atoms: C_24  and  O_25
REMARK    5  A    between atoms: C_24  and  C_27
REMARK    6  A    between atoms: C_27  and  O_28
REMARK    7  A    between atoms: C_27  and  C_30
REMARK    8  A    between atoms: C_30  and  O_31
REMARK    9  A    between atoms: C_30  and  C_33
REMARK   10  A    between atoms: C_33  and  O_34
REMARK                            x       y       z     vdW  Elec       q    Type
REMARK                         _______ _______ _______ _____ _____    ______ ____
ROOT
ATOM      1  O   UNL     1     -31.904  28.627   6.985  0.00  0.00    -0.266 OA
ATOM      2  O   UNL     1     -31.558  30.971   3.048  0.00  0.00    -0.193 OA
ATOM      3  N   UNL     1     -33.768  26.870   2.886  0.00  0.00    -0.255 N 
ATOM      4  N   UNL     1     -33.231  26.687   5.661  0.00  0.00    -0.396 NA
ATOM      5  N   UNL     1     -32.638  28.970   2.962  0.00  0.00    -0.303 NA
ATOM      6  N   UNL     1     -31.718  29.830   5.002  0.00  0.00    -0.196 N 
ATOM      7  C   UNL     1     -34.202  25.736   3.607  0.00  0.00    +0.079 C 
ATOM      8  C   UNL     1     -33.080  27.889   3.534  0.00  0.00    +0.236 C 
ATOM      9  C   UNL     1     -33.924  25.669   4.987  0.00  0.00    +0.127 C 
ATOM     10  C   UNL     1     -34.902  24.663   3.024  0.00  0.00    +0.020 C 
ATOM     11  C   UNL     1     -32.829  27.729   5.009  0.00  0.00    +0.230 C 
ATOM     12  C   UNL     1     -35.312  23.564   3.783  0.00  0.00    +0.065 C 
ATOM     13  C   UNL     1     -35.031  23.511   5.141  0.00  0.00    -0.033 C 
ATOM     14  C   UNL     1     -34.339  24.559   5.740  0.00  0.00    +0.082 C 
ATOM     15  C   UNL     1     -32.100  28.771   5.791  0.00  0.00    +0.293 C 
ATOM     16  C   UNL     1     -35.455  22.347   5.974  0.00  0.00    +0.027 C 
ATOM     17  C   UNL     1     -31.959  29.963   3.634  0.00  0.00    +0.273 C 
ATOM     18  H   UNL     1     -31.229  30.562   5.443  0.00  0.00    +0.169 HD
ENDROOT
BRANCH  12  22
ATOM     19  F   UNL     1     -36.001  22.514   1.746  0.00  0.00    -0.166 F 
ATOM     20  F   UNL     1     -35.582  21.213   3.431  0.00  0.00    -0.166 F 
ATOM     21  F   UNL     1     -37.377  22.440   3.428  0.00  0.00    -0.166 F 
ATOM     22  C   UNL     1     -36.052  22.454   3.109  0.00  0.00    +0.418 C 
ENDBRANCH  12  22
BRANCH   3  23
ATOM     23  C   UNL     1     -34.062  26.931   1.455  0.00  0.00    +0.130 C 
BRANCH  23  24
ATOM     24  C   UNL     1     -35.456  27.529   1.231  0.00  0.00    +0.160 C 
BRANCH  24  25
ATOM     25  O   UNL     1     -36.214  26.626   0.424  0.00  0.00    -0.380 OA
ATOM     26  H   UNL     1     -35.841  26.602  -0.471  0.00  0.00    +0.211 HD
ENDBRANCH  24  25
BRANCH  24  27
ATOM     27  C   UNL     1     -35.408  28.907   0.542  0.00  0.00    +0.168 C 
BRANCH  27  28
ATOM     28  O   UNL     1     -34.081  29.427   0.604  0.00  0.00    -0.379 OA
ATOM     29  H   UNL     1     -33.487  28.755   0.975  0.00  0.00    +0.211 HD
ENDBRANCH  27  28
BRANCH  27  30
ATOM     30  C   UNL     1     -36.368  29.931   1.176  0.00  0.00    +0.169 C 
BRANCH  30  31
ATOM     31  O   UNL     1     -37.021  30.665   0.136  0.00  0.00    -0.379 OA
ATOM     32  H   UNL     1     -36.355  31.089  -0.427  0.00  0.00    +0.211 HD
ENDBRANCH  30  31
BRANCH  30  33
ATOM     33  C   UNL     1     -35.644  30.923   2.086  0.00  0.00    +0.169 C 
BRANCH  33  34
ATOM     34  O   UNL     1     -35.425  30.308   3.351  0.00  0.00    -0.379 OA
ATOM     35  H   UNL     1     -35.983  29.520   3.430  0.00  0.00    +0.211 HD
ENDBRANCH  33  34
ENDBRANCH  30  33
ENDBRANCH  27  30
ENDBRANCH  24  27
ENDBRANCH  23  24
ENDBRANCH   3  23
TORSDOF 10
ENDMDL
MODEL 5
REMARK VINA RESULT:      -5.9      3.170      5.749
REMARK  Name = 193644
REMARK  10 active torsions:
REMARK  status: ('A' for Active; 'I' for Inactive)
REMARK    1  A    between atoms: N_3  and  C_23
REMARK    2  A    between atoms: C_12  and  C_22
REMARK    3  A    between atoms: C_23  and  C_24
REMARK    4  A    between atoms: C_24  and  O_25
REMARK    5  A    between atoms: C_24  and  C_27
REMARK    6  A    between atoms: C_27  and  O_28
REMARK    7  A    between atoms: C_27  and  C_30
REMARK    8  A    between atoms: C_30  and  O_31
REMARK    9  A    between atoms: C_30  and  C_33
REMARK   10  A    between atoms: C_33  and  O_34
REMARK                            x       y       z     vdW  Elec       q    Type
REMARK                         _______ _______ _______ _____ _____    ______ ____
ROOT
ATOM      1  O   UNL     1     -41.622  24.022   0.416  0.00  0.00    -0.266 OA
ATOM      2  O   UNL     1     -40.934  19.765  -1.172  0.00  0.00    -0.193 OA
ATOM      3  N   UNL     1     -37.836  21.409   1.899  0.00  0.00    -0.255 N 
ATOM      4  N   UNL     1     -39.395  23.773   1.918  0.00  0.00    -0.396 NA
ATOM      5  N   UNL     1     -39.418  20.561   0.327  0.00  0.00    -0.303 NA
ATOM      6  N   UNL     1     -41.292  21.868  -0.400  0.00  0.00    -0.196 N 
ATOM      7  C   UNL     1     -37.447  22.495   2.713  0.00  0.00    +0.079 C 
ATOM      8  C   UNL     1     -38.977  21.501   1.110  0.00  0.00    +0.236 C 
ATOM      9  C   UNL     1     -38.239  23.660   2.706  0.00  0.00    +0.127 C 
ATOM     10  C   UNL     1     -36.306  22.480   3.538  0.00  0.00    +0.020 C 
ATOM     11  C   UNL     1     -39.759  22.784   1.168  0.00  0.00    +0.230 C 
ATOM     12  C   UNL     1     -35.965  23.580   4.327  0.00  0.00    +0.065 C 
ATOM     13  C   UNL     1     -36.754  24.722   4.310  0.00  0.00    -0.033 C 
ATOM     14  C   UNL     1     -37.887  24.761   3.503  0.00  0.00    +0.082 C 
ATOM     15  C   UNL     1     -40.999  22.977   0.359  0.00  0.00    +0.293 C 
ATOM     16  C   UNL     1     -36.411  25.913   5.142  0.00  0.00    +0.027 C 
ATOM     17  C   UNL     1     -40.555  20.684  -0.443  0.00  0.00    +0.273 C 
ATOM     18  H   UNL     1     -42.096  21.914  -0.966  0.00  0.00    +0.169 HD
ENDROOT
BRANCH  12  22
ATOM     19  F   UNL     1     -34.921  24.025   6.434  0.00  0.00    -0.166 F 
ATOM     20  F   UNL     1     -34.294  22.233   5.384  0.00  0.00    -0.166 F 
ATOM     21  F   UNL     1     -33.688  24.188   4.650  0.00  0.00    -0.166 F 
ATOM     22  C   UNL     1     -34.742  23.507   5.183  0.00  0.00    +0.418 C 
ENDBRANCH  12  22
BRANCH   3  23
ATOM     23  C   UNL     1     -37.008  20.204   1.913  0.00  0.00    +0.130 C 
BRANCH  23  24
ATOM     24  C   UNL     1     -35.962  20.273   0.794  0.00  0.00    +0.160 C 
BRANCH  24  25
ATOM     25  O   UNL     1     -36.484  19.610  -0.358  0.00  0.00    -0.380 OA
ATOM     26  H   UNL     1     -35.759  19.400  -0.967  0.00  0.00    +0.211 HD
ENDBRANCH  24  25
BRANCH  24  27
ATOM     27  C   UNL     1     -34.623  19.619   1.192  0.00  0.00    +0.168 C 
BRANCH  27  28
ATOM     28  O   UNL     1     -34.484  19.637   2.612  0.00  0.00    -0.379 OA
ATOM     29  H   UNL     1     -35.334  19.414   3.023  0.00  0.00    +0.211 HD
ENDBRANCH  27  28
BRANCH  27  30
ATOM     30  C   UNL     1     -33.401  20.321   0.568  0.00  0.00    +0.169 C 
BRANCH  30  31
ATOM     31  O   UNL     1     -33.729  20.731  -0.762  0.00  0.00    -0.379 OA
ATOM     32  H   UNL     1     -32.913  20.879  -1.264  0.00  0.00    +0.211 HD
ENDBRANCH  30  31
BRANCH  30  33
ATOM     33  C   UNL     1     -32.176  19.410   0.506  0.00  0.00    +0.169 C 
BRANCH  33  34
ATOM     34  O   UNL     1     -32.353  18.339   1.428  0.00  0.00    -0.379 OA
ATOM     35  H   UNL     1     -31.506  17.888   1.567  0.00  0.00    +0.211 HD
ENDBRANCH  33  34
ENDBRANCH  30  33
ENDBRANCH  27  30
ENDBRANCH  24  27
ENDBRANCH  23  24
ENDBRANCH   3  23
TORSDOF 10
ENDMDL
MODEL 6
REMARK VINA RESULT:      -5.8      4.349      7.289
REMARK  Name = 193644
REMARK  10 active torsions:
REMARK  status: ('A' for Active; 'I' for Inactive)
REMARK    1  A    between atoms: N_3  and  C_23
REMARK    2  A    between atoms: C_12  and  C_22
REMARK    3  A    between atoms: C_23  and  C_24
REMARK    4  A    between atoms: C_24  and  O_25
REMARK    5  A    between atoms: C_24  and  C_27
REMARK    6  A    between atoms: C_27  and  O_28
REMARK    7  A    between atoms: C_27  and  C_30
REMARK    8  A    between atoms: C_30  and  O_31
REMARK    9  A    between atoms: C_30  and  C_33
REMARK   10  A    between atoms: C_33  and  O_34
REMARK                            x       y       z     vdW  Elec       q    Type
REMARK                         _______ _______ _______ _____ _____    ______ ____
ROOT
ATOM      1  O   UNL     1     -35.934  26.259   5.550  0.00  0.00    -0.266 OA
ATOM      2  O   UNL     1     -34.717  21.830   5.674  0.00  0.00    -0.193 OA
ATOM      3  N   UNL     1     -38.021  23.035   2.615  0.00  0.00    -0.255 N 
ATOM      4  N   UNL     1     -37.705  25.671   3.602  0.00  0.00    -0.396 NA
ATOM      5  N   UNL     1     -36.330  22.411   4.179  0.00  0.00    -0.303 NA
ATOM      6  N   UNL     1     -35.303  24.020   5.628  0.00  0.00    -0.196 N 
ATOM      7  C   UNL     1     -38.808  24.079   2.081  0.00  0.00    +0.079 C 
ATOM      8  C   UNL     1     -37.099  23.299   3.621  0.00  0.00    +0.236 C 
ATOM      9  C   UNL     1     -38.632  25.382   2.588  0.00  0.00    +0.127 C 
ATOM     10  C   UNL     1     -39.762  23.891   1.064  0.00  0.00    +0.020 C 
ATOM     11  C   UNL     1     -36.981  24.721   4.098  0.00  0.00    +0.230 C 
ATOM     12  C   UNL     1     -40.515  24.959   0.567  0.00  0.00    +0.065 C 
ATOM     13  C   UNL     1     -40.331  26.237   1.076  0.00  0.00    -0.033 C 
ATOM     14  C   UNL     1     -39.394  26.447   2.082  0.00  0.00    +0.082 C 
ATOM     15  C   UNL     1     -36.018  25.103   5.173  0.00  0.00    +0.293 C 
ATOM     16  C   UNL     1     -41.124  27.395   0.565  0.00  0.00    +0.027 C 
ATOM     17  C   UNL     1     -35.424  22.707   5.174  0.00  0.00    +0.273 C 
ATOM     18  H   UNL     1     -34.645  24.188   6.341  0.00  0.00    +0.169 HD
ENDROOT
BRANCH  12  22
ATOM     19  F   UNL     1     -41.540  25.669  -1.475  0.00  0.00    -0.166 F 
ATOM     20  F   UNL     1     -41.298  23.532  -1.187  0.00  0.00    -0.166 F 
ATOM     21  F   UNL     1     -42.789  24.620  -0.038  0.00  0.00    -0.166 F 
ATOM     22  C   UNL     1     -41.514  24.700  -0.513  0.00  0.00    +0.418 C 
ENDBRANCH  12  22
BRANCH   3  23
ATOM     23  C   UNL     1     -38.210  21.686   2.082  0.00  0.00    +0.130 C 
BRANCH  23  24
ATOM     24  C   UNL     1     -37.131  21.379   1.037  0.00  0.00    +0.160 C 
BRANCH  24  25
ATOM     25  O   UNL     1     -37.772  21.103  -0.210  0.00  0.00    -0.380 OA
ATOM     26  H   UNL     1     -37.195  21.382  -0.938  0.00  0.00    +0.211 HD
ENDBRANCH  24  25
BRANCH  24  27
ATOM     27  C   UNL     1     -36.248  20.178   1.430  0.00  0.00    +0.168 C 
BRANCH  27  28
ATOM     28  O   UNL     1     -36.762  19.574   2.616  0.00  0.00    -0.379 OA
ATOM     29  H   UNL     1     -36.026  19.326   3.198  0.00  0.00    +0.211 HD
ENDBRANCH  27  28
BRANCH  27  30
ATOM     30  C   UNL     1     -34.777  20.567   1.672  0.00  0.00    +0.169 C 
BRANCH  30  31
ATOM     31  O   UNL     1     -34.477  21.747   0.922  0.00  0.00    -0.379 OA
ATOM     32  H   UNL     1     -33.676  21.600   0.397  0.00  0.00    +0.211 HD
ENDBRANCH  30  31
BRANCH  30  33
ATOM     33  C   UNL     1     -33.807  19.465   1.249  0.00  0.00    +0.169 C 
BRANCH  33  34
ATOM     34  O   UNL     1     -34.555  18.307   0.891  0.00  0.00    -0.379 OA
ATOM     35  H   UNL     1     -35.304  18.566   0.332  0.00  0.00    +0.211 HD
ENDBRANCH  33  34
ENDBRANCH  30  33
ENDBRANCH  27  30
ENDBRANCH  24  27
ENDBRANCH  23  24
ENDBRANCH   3  23
TORSDOF 10
ENDMDL
MODEL 7
REMARK VINA RESULT:      -5.8      4.856      7.689
REMARK  Name = 193644
REMARK  10 active torsions:
REMARK  status: ('A' for Active; 'I' for Inactive)
REMARK    1  A    between atoms: N_3  and  C_23
REMARK    2  A    between atoms: C_12  and  C_22
REMARK    3  A    between atoms: C_23  and  C_24
REMARK    4  A    between atoms: C_24  and  O_25
REMARK    5  A    between atoms: C_24  and  C_27
REMARK    6  A    between atoms: C_27  and  O_28
REMARK    7  A    between atoms: C_27  and  C_30
REMARK    8  A    between atoms: C_30  and  O_31
REMARK    9  A    between atoms: C_30  and  C_33
REMARK   10  A    between atoms: C_33  and  O_34
REMARK                            x       y       z     vdW  Elec       q    Type
REMARK                         _______ _______ _______ _____ _____    ______ ____
ROOT
ATOM      1  O   UNL     1     -35.932  22.506   6.353  0.00  0.00    -0.266 OA
ATOM      2  O   UNL     1     -36.966  21.676   1.953  0.00  0.00    -0.193 OA
ATOM      3  N   UNL     1     -34.422  25.477   2.852  0.00  0.00    -0.255 N 
ATOM      4  N   UNL     1     -34.600  24.719   5.576  0.00  0.00    -0.396 NA
ATOM      5  N   UNL     1     -35.723  23.533   2.385  0.00  0.00    -0.303 NA
ATOM      6  N   UNL     1     -36.466  22.067   4.130  0.00  0.00    -0.196 N 
ATOM      7  C   UNL     1     -33.801  26.273   3.840  0.00  0.00    +0.079 C 
ATOM      8  C   UNL     1     -35.118  24.330   3.215  0.00  0.00    +0.236 C 
ATOM      9  C   UNL     1     -33.903  25.874   5.188  0.00  0.00    +0.127 C 
ATOM     10  C   UNL     1     -33.080  27.447   3.554  0.00  0.00    +0.020 C 
ATOM     11  C   UNL     1     -35.173  23.985   4.678  0.00  0.00    +0.230 C 
ATOM     12  C   UNL     1     -32.482  28.199   4.568  0.00  0.00    +0.065 C 
ATOM     13  C   UNL     1     -32.591  27.795   5.892  0.00  0.00    -0.033 C 
ATOM     14  C   UNL     1     -33.299  26.638   6.200  0.00  0.00    +0.082 C 
ATOM     15  C   UNL     1     -35.895  22.772   5.164  0.00  0.00    +0.293 C 
ATOM     16  C   UNL     1     -31.964  28.581   6.995  0.00  0.00    +0.027 C 
ATOM     17  C   UNL     1     -36.405  22.401   2.777  0.00  0.00    +0.273 C 
ATOM     18  H   UNL     1     -36.964  21.252   4.367  0.00  0.00    +0.169 HD
ENDROOT
BRANCH  12  22
ATOM     19  F   UNL     1     -31.719  29.695   2.864  0.00  0.00    -0.166 F 
ATOM     20  F   UNL     1     -32.230  30.568   4.783  0.00  0.00    -0.166 F 
ATOM     21  F   UNL     1     -30.419  29.383   4.579  0.00  0.00    -0.166 F 
ATOM     22  C   UNL     1     -31.729  29.438   4.205  0.00  0.00    +0.418 C 
ENDBRANCH  12  22
BRANCH   3  23
ATOM     23  C   UNL     1     -34.309  25.898   1.457  0.00  0.00    +0.130 C 
BRANCH  23  24
ATOM     24  C   UNL     1     -35.639  26.493   0.979  0.00  0.00    +0.160 C 
BRANCH  24  25
ATOM     25  O   UNL     1     -36.108  25.725  -0.130  0.00  0.00    -0.380 OA
ATOM     26  H   UNL     1     -35.687  24.851  -0.119  0.00  0.00    +0.211 HD
ENDBRANCH  24  25
BRANCH  24  27
ATOM     27  C   UNL     1     -35.512  27.970   0.556  0.00  0.00    +0.168 C 
BRANCH  27  28
ATOM     28  O   UNL     1     -34.138  28.291   0.346  0.00  0.00    -0.379 OA
ATOM     29  H   UNL     1     -33.827  27.865  -0.469  0.00  0.00    +0.211 HD
ENDBRANCH  27  28
BRANCH  27  30
ATOM     30  C   UNL     1     -36.092  28.947   1.597  0.00  0.00    +0.169 C 
BRANCH  30  31
ATOM     31  O   UNL     1     -37.201  29.640   1.019  0.00  0.00    -0.379 OA
ATOM     32  H   UNL     1     -37.721  29.024   0.481  0.00  0.00    +0.211 HD
ENDBRANCH  30  31
BRANCH  30  33
ATOM     33  C   UNL     1     -35.066  29.979   2.062  0.00  0.00    +0.169 C 
BRANCH  33  34
ATOM     34  O   UNL     1     -35.351  30.334   3.412  0.00  0.00    -0.379 OA
ATOM     35  H   UNL     1     -36.068  29.776   3.749  0.00  0.00    +0.211 HD
ENDBRANCH  33  34
ENDBRANCH  30  33
ENDBRANCH  27  30
ENDBRANCH  24  27
ENDBRANCH  23  24
ENDBRANCH   3  23
TORSDOF 10
ENDMDL
MODEL 8
REMARK VINA RESULT:      -5.7      4.871      7.901
REMARK  Name = 193644
REMARK  10 active torsions:
REMARK  status: ('A' for Active; 'I' for Inactive)
REMARK    1  A    between atoms: N_3  and  C_23
REMARK    2  A    between atoms: C_12  and  C_22
REMARK    3  A    between atoms: C_23  and  C_24
REMARK    4  A    between atoms: C_24  and  O_25
REMARK    5  A    between atoms: C_24  and  C_27
REMARK    6  A    between atoms: C_27  and  O_28
REMARK    7  A    between atoms: C_27  and  C_30
REMARK    8  A    between atoms: C_30  and  O_31
REMARK    9  A    between atoms: C_30  and  C_33
REMARK   10  A    between atoms: C_33  and  O_34
REMARK                            x       y       z     vdW  Elec       q    Type
REMARK                         _______ _______ _______ _____ _____    ______ ____
ROOT
ATOM      1  O   UNL     1     -33.498  26.289   5.890  0.00  0.00    -0.266 OA
ATOM      2  O   UNL     1     -35.939  22.399   6.070  0.00  0.00    -0.193 OA
ATOM      3  N   UNL     1     -37.061  25.453   2.731  0.00  0.00    -0.255 N 
ATOM      4  N   UNL     1     -34.984  27.070   3.778  0.00  0.00    -0.396 NA
ATOM      5  N   UNL     1     -36.491  23.885   4.438  0.00  0.00    -0.303 NA
ATOM      6  N   UNL     1     -34.722  24.312   5.998  0.00  0.00    -0.196 N 
ATOM      7  C   UNL     1     -36.786  26.705   2.140  0.00  0.00    +0.079 C 
ATOM      8  C   UNL     1     -36.317  25.017   3.822  0.00  0.00    +0.236 C 
ATOM      9  C   UNL     1     -35.747  27.491   2.678  0.00  0.00    +0.127 C 
ATOM     10  C   UNL     1     -37.494  27.216   1.036  0.00  0.00    +0.020 C 
ATOM     11  C   UNL     1     -35.229  25.925   4.327  0.00  0.00    +0.230 C 
ATOM     12  C   UNL     1     -37.182  28.461   0.484  0.00  0.00    +0.065 C 
ATOM     13  C   UNL     1     -36.156  29.225   1.025  0.00  0.00    -0.033 C 
ATOM     14  C   UNL     1     -35.442  28.741   2.117  0.00  0.00    +0.082 C 
ATOM     15  C   UNL     1     -34.376  25.543   5.492  0.00  0.00    +0.293 C 
ATOM     16  C   UNL     1     -35.804  30.560   0.457  0.00  0.00    +0.027 C 
ATOM     17  C   UNL     1     -35.735  23.482   5.517  0.00  0.00    +0.273 C 
ATOM     18  H   UNL     1     -34.207  23.986   6.771  0.00  0.00    +0.169 HD
ENDROOT
BRANCH  12  22
ATOM     19  F   UNL     1     -38.628  30.123  -0.448  0.00  0.00    -0.166 F 
ATOM     20  F   UNL     1     -37.202  29.193  -1.793  0.00  0.00    -0.166 F 
ATOM     21  F   UNL     1     -38.922  28.066  -1.086  0.00  0.00    -0.166 F 
ATOM     22  C   UNL     1     -37.967  28.953  -0.688  0.00  0.00    +0.418 C 
ENDBRANCH  12  22
BRANCH   3  23
ATOM     23  C   UNL     1     -38.140  24.644   2.166  0.00  0.00    +0.130 C 
BRANCH  23  24
ATOM     24  C   UNL     1     -37.595  23.755   1.041  0.00  0.00    +0.160 C 
BRANCH  24  25
ATOM     25  O   UNL     1     -38.448  23.889  -0.097  0.00  0.00    -0.380 OA
ATOM     26  H   UNL     1     -37.984  24.380  -0.793  0.00  0.00    +0.211 HD
ENDBRANCH  24  25
BRANCH  24  27
ATOM     27  C   UNL     1     -37.516  22.269   1.444  0.00  0.00    +0.168 C 
BRANCH  27  28
ATOM     28  O   UNL     1     -38.113  22.089   2.728  0.00  0.00    -0.379 OA
ATOM     29  H   UNL     1     -38.965  21.637   2.628  0.00  0.00    +0.211 HD
ENDBRANCH  27  28
BRANCH  27  30
ATOM     30  C   UNL     1     -36.072  21.735   1.493  0.00  0.00    +0.169 C 
BRANCH  30  31
ATOM     31  O   UNL     1     -35.612  21.513   0.157  0.00  0.00    -0.379 OA
ATOM     32  H   UNL     1     -34.664  21.309   0.172  0.00  0.00    +0.211 HD
ENDBRANCH  30  31
BRANCH  30  33
ATOM     33  C   UNL     1     -35.963  20.422   2.266  0.00  0.00    +0.169 C 
BRANCH  33  34
ATOM     34  O   UNL     1     -35.763  20.716   3.645  0.00  0.00    -0.379 OA
ATOM     35  H   UNL     1     -36.242  21.526   3.876  0.00  0.00    +0.211 HD
ENDBRANCH  33  34
ENDBRANCH  30  33
ENDBRANCH  27  30
ENDBRANCH  24  27
ENDBRANCH  23  24
ENDBRANCH   3  23
TORSDOF 10
ENDMDL
MODEL 9
REMARK VINA RESULT:      -5.7      7.017     10.815
REMARK  Name = 193644
REMARK  10 active torsions:
REMARK  status: ('A' for Active; 'I' for Inactive)
REMARK    1  A    between atoms: N_3  and  C_23
REMARK    2  A    between atoms: C_12  and  C_22
REMARK    3  A    between atoms: C_23  and  C_24
REMARK    4  A    between atoms: C_24  and  O_25
REMARK    5  A    between atoms: C_24  and  C_27
REMARK    6  A    between atoms: C_27  and  O_28
REMARK    7  A    between atoms: C_27  and  C_30
REMARK    8  A    between atoms: C_30  and  O_31
REMARK    9  A    between atoms: C_30  and  C_33
REMARK   10  A    between atoms: C_33  and  O_34
REMARK                            x       y       z     vdW  Elec       q    Type
REMARK                         _______ _______ _______ _____ _____    ______ ____
ROOT
ATOM      1  O   UNL     1     -28.166  31.478   5.451  0.00  0.00    -0.266 OA
ATOM      2  O   UNL     1     -28.152  27.002   6.489  0.00  0.00    -0.193 OA
ATOM      3  N   UNL     1     -31.886  28.643   4.231  0.00  0.00    -0.255 N 
ATOM      4  N   UNL     1     -30.588  31.159   4.307  0.00  0.00    -0.396 NA
ATOM      5  N   UNL     1     -29.977  27.796   5.387  0.00  0.00    -0.303 NA
ATOM      6  N   UNL     1     -28.139  29.213   5.986  0.00  0.00    -0.196 N 
ATOM      7  C   UNL     1     -32.515  29.770   3.658  0.00  0.00    +0.079 C 
ATOM      8  C   UNL     1     -30.638  28.769   4.831  0.00  0.00    +0.236 C 
ATOM      9  C   UNL     1     -31.848  31.010   3.708  0.00  0.00    +0.127 C 
ATOM     10  C   UNL     1     -33.775  29.724   3.035  0.00  0.00    +0.020 C 
ATOM     11  C   UNL     1     -30.004  30.133   4.836  0.00  0.00    +0.230 C 
ATOM     12  C   UNL     1     -34.354  30.868   2.480  0.00  0.00    +0.065 C 
ATOM     13  C   UNL     1     -33.687  32.084   2.536  0.00  0.00    -0.033 C 
ATOM     14  C   UNL     1     -32.439  32.155   3.148  0.00  0.00    +0.082 C 
ATOM     15  C   UNL     1     -28.666  30.367   5.455  0.00  0.00    +0.293 C 
ATOM     16  C   UNL     1     -34.284  33.322   1.953  0.00  0.00    +0.027 C 
ATOM     17  C   UNL     1     -28.740  27.954   5.973  0.00  0.00    +0.273 C 
ATOM     18  H   UNL     1     -27.256  29.282   6.416  0.00  0.00    +0.169 HD
ENDROOT
BRANCH  12  22
ATOM     19  F   UNL     1     -36.650  31.538   2.419  0.00  0.00    -0.166 F 
ATOM     20  F   UNL     1     -35.695  31.127   0.515  0.00  0.00    -0.166 F 
ATOM     21  F   UNL     1     -36.189  29.489   1.858  0.00  0.00    -0.166 F 
ATOM     22  C   UNL     1     -35.696  30.760   1.831  0.00  0.00    +0.418 C 
ENDBRANCH  12  22
BRANCH   3  23
ATOM     23  C   UNL     1     -32.584  27.360   4.174  0.00  0.00    +0.130 C 
BRANCH  23  24
ATOM     24  C   UNL     1     -33.369  27.131   5.472  0.00  0.00    +0.160 C 
BRANCH  24  25
ATOM     25  O   UNL     1     -32.439  26.914   6.534  0.00  0.00    -0.380 OA
ATOM     26  H   UNL     1     -31.612  27.384   6.340  0.00  0.00    +0.211 HD
ENDBRANCH  24  25
BRANCH  24  27
ATOM     27  C   UNL     1     -34.327  25.926   5.381  0.00  0.00    +0.168 C 
BRANCH  27  28
ATOM     28  O   UNL     1     -33.663  24.832   4.751  0.00  0.00    -0.379 OA
ATOM     29  H   UNL     1     -33.805  24.025   5.270  0.00  0.00    +0.211 HD
ENDBRANCH  27  28
BRANCH  27  30
ATOM     30  C   UNL     1     -35.616  26.239   4.596  0.00  0.00    +0.169 C 
BRANCH  30  31
ATOM     31  O   UNL     1     -36.662  26.547   5.521  0.00  0.00    -0.379 OA
ATOM     32  H   UNL     1     -36.306  26.547   6.423  0.00  0.00    +0.211 HD
ENDBRANCH  30  31
BRANCH  30  33
ATOM     33  C   UNL     1     -36.067  25.066   3.727  0.00  0.00    +0.169 C 
BRANCH  33  34
ATOM     34  O   UNL     1     -36.675  24.085   4.561  0.00  0.00    -0.379 OA
ATOM     35  H   UNL     1     -37.622  24.275   4.647  0.00  0.00    +0.211 HD
ENDBRANCH  33  34
ENDBRANCH  30  33
ENDBRANCH  27  30
ENDBRANCH  24  27
ENDBRANCH  23  24
ENDBRANCH   3  23
TORSDOF 10
ENDMDL
