MODEL 1
REMARK VINA RESULT:      -5.9      0.000      0.000
REMARK  Name = 54753845
REMARK  15 active torsions:
REMARK  status: ('A' for Active; 'I' for Inactive)
REMARK    1  A    between atoms: O_1  and  C_2
REMARK    2  A    between atoms: O_1  and  C_18
REMARK    3  A    between atoms: C_3  and  O_8
REMARK    4  A    between atoms: C_4  and  O_10
REMARK    5  A    between atoms: C_5  and  C_13
REMARK    6  A    between atoms: C_13  and  C_14
REMARK    7  A    between atoms: C_14  and  C_15
REMARK    8  A    between atoms: C_15  and  O_16
REMARK    9  A    between atoms: C_18  and  C_19
REMARK   10  A    between atoms: C_18  and  C_32
REMARK   11  A    between atoms: C_19  and  C_20
REMARK   12  A    between atoms: C_19  and  O_30
REMARK   13  A    between atoms: C_23  and  O_26
REMARK   14  A    between atoms: C_25  and  O_28
REMARK   15  A    between atoms: C_32  and  O_33
REMARK                            x       y       z     vdW  Elec       q    Type
REMARK                         _______ _______ _______ _____ _____    ______ ____
ROOT
ATOM      1  O   UNL     1     -36.475  23.988   4.848  0.00  0.00    -0.468 OA
ENDROOT
BRANCH   1   2
ATOM      2  C   UNL     1     -36.038  25.133   4.242  0.00  0.00    +0.206 C 
ATOM      3  C   UNL     1     -36.686  25.610   3.102  0.00  0.00    +0.176 C 
ATOM      4  C   UNL     1     -34.946  25.826   4.764  0.00  0.00    +0.171 C 
ATOM      5  C   UNL     1     -35.149  27.472   3.007  0.00  0.00    +0.041 C 
ATOM      6  C   UNL     1     -36.242  26.778   2.486  0.00  0.00    +0.043 C 
ATOM      7  C   UNL     1     -34.502  26.995   4.147  0.00  0.00    +0.043 C 
BRANCH   3   8
ATOM      8  O   UNL     1     -37.753  24.942   2.581  0.00  0.00    -0.468 OA
ATOM      9  C   UNL     1     -39.026  25.577   2.680  0.00  0.00    +0.253 C 
ENDBRANCH   3   8
BRANCH   4  10
ATOM     10  O   UNL     1     -34.304  25.370   5.876  0.00  0.00    -0.503 OA
ATOM     11  H   UNL     1     -34.578  24.570   6.281  0.00  0.00    +0.292 HD
ENDBRANCH   4  10
BRANCH   5  13
ATOM     12  O   UNL     1     -33.475  28.994   2.372  0.00  0.00    -0.291 OA
ATOM     13  C   UNL     1     -34.687  28.690   2.365  0.00  0.00    +0.176 C 
BRANCH  13  14
ATOM     14  C   UNL     1     -35.695  29.623   1.664  0.00  0.00    +0.101 C 
BRANCH  14  15
ATOM     15  C   UNL     1     -35.898  30.958   2.370  0.00  0.00    +0.145 C 
BRANCH  15  16
ATOM     16  O   UNL     1     -35.486  30.845   3.725  0.00  0.00    -0.382 OA
ATOM     17  H   UNL     1     -35.159  29.947   3.891  0.00  0.00    +0.210 HD
ENDBRANCH  15  16
ENDBRANCH  14  15
ENDBRANCH  13  14
ENDBRANCH   5  13
ENDBRANCH   1   2
BRANCH   1  18
ATOM     18  C   UNL     1     -35.629  22.843   4.732  0.00  0.00    +0.226 C 
BRANCH  18  19
ATOM     19  C   UNL     1     -36.219  21.861   3.703  0.00  0.00    +0.175 C 
BRANCH  19  20
ATOM     20  C   UNL     1     -35.357  21.614   2.483  0.00  0.00    +0.011 C 
ATOM     21  C   UNL     1     -34.984  20.313   2.145  0.00  0.00    +0.038 C 
ATOM     22  C   UNL     1     -34.933  22.687   1.699  0.00  0.00    +0.001 C 
ATOM     23  C   UNL     1     -34.189  20.084   1.022  0.00  0.00    +0.172 C 
ATOM     24  C   UNL     1     -34.138  22.458   0.576  0.00  0.00    +0.040 C 
ATOM     25  C   UNL     1     -33.766  21.157   0.238  0.00  0.00    +0.172 C 
BRANCH  23  26
ATOM     26  O   UNL     1     -33.832  18.809   0.703  0.00  0.00    -0.468 OA
ATOM     27  C   UNL     1     -32.729  18.248   1.410  0.00  0.00    +0.253 C 
ENDBRANCH  23  26
BRANCH  25  28
ATOM     28  O   UNL     1     -32.987  20.946  -0.860  0.00  0.00    -0.468 OA
ATOM     29  C   UNL     1     -31.636  21.399  -0.791  0.00  0.00    +0.253 C 
ENDBRANCH  25  28
ENDBRANCH  19  20
BRANCH  19  30
ATOM     30  O   UNL     1     -37.500  22.339   3.281  0.00  0.00    -0.376 OA
ATOM     31  H   UNL     1     -38.024  21.598   2.939  0.00  0.00    +0.211 HD
ENDBRANCH  19  30
ENDBRANCH  18  19
BRANCH  18  32
ATOM     32  C   UNL     1     -35.435  22.223   6.114  0.00  0.00    +0.184 C 
BRANCH  32  33
ATOM     33  O   UNL     1     -35.444  20.804   5.985  0.00  0.00    -0.378 OA
ATOM     34  H   UNL     1     -35.011  20.407   6.756  0.00  0.00    +0.211 HD
ENDBRANCH  32  33
ENDBRANCH  18  32
ENDBRANCH   1  18
TORSDOF 15
ENDMDL
MODEL 2
REMARK VINA RESULT:      -5.8      2.320      7.272
REMARK  Name = 54753845
REMARK  15 active torsions:
REMARK  status: ('A' for Active; 'I' for Inactive)
REMARK    1  A    between atoms: O_1  and  C_2
REMARK    2  A    between atoms: O_1  and  C_18
REMARK    3  A    between atoms: C_3  and  O_8
REMARK    4  A    between atoms: C_4  and  O_10
REMARK    5  A    between atoms: C_5  and  C_13
REMARK    6  A    between atoms: C_13  and  C_14
REMARK    7  A    between atoms: C_14  and  C_15
REMARK    8  A    between atoms: C_15  and  O_16
REMARK    9  A    between atoms: C_18  and  C_19
REMARK   10  A    between atoms: C_18  and  C_32
REMARK   11  A    between atoms: C_19  and  C_20
REMARK   12  A    between atoms: C_19  and  O_30
REMARK   13  A    between atoms: C_23  and  O_26
REMARK   14  A    between atoms: C_25  and  O_28
REMARK   15  A    between atoms: C_32  and  O_33
REMARK                            x       y       z     vdW  Elec       q    Type
REMARK                         _______ _______ _______ _____ _____    ______ ____
ROOT
ATOM      1  O   UNL     1     -37.845  23.546   3.444  0.00  0.00    -0.468 OA
ENDROOT
BRANCH   1   2
ATOM      2  C   UNL     1     -37.133  22.545   2.843  0.00  0.00    +0.206 C 
ATOM      3  C   UNL     1     -35.946  22.090   3.418  0.00  0.00    +0.176 C 
ATOM      4  C   UNL     1     -37.596  21.975   1.658  0.00  0.00    +0.171 C 
ATOM      5  C   UNL     1     -35.684  20.498   1.620  0.00  0.00    +0.041 C 
ATOM      6  C   UNL     1     -35.222  21.068   2.806  0.00  0.00    +0.043 C 
ATOM      7  C   UNL     1     -36.872  20.952   1.046  0.00  0.00    +0.043 C 
BRANCH   3   8
ATOM      8  O   UNL     1     -35.482  22.639   4.575  0.00  0.00    -0.468 OA
ATOM      9  C   UNL     1     -35.255  21.751   5.668  0.00  0.00    +0.253 C 
ENDBRANCH   3   8
BRANCH   4  10
ATOM     10  O   UNL     1     -38.754  22.410   1.085  0.00  0.00    -0.503 OA
ATOM     11  H   UNL     1     -39.329  22.976   1.563  0.00  0.00    +0.292 HD
ENDBRANCH   4  10
BRANCH   5  13
ATOM     12  O   UNL     1     -35.506  18.579   0.275  0.00  0.00    -0.291 OA
ATOM     13  C   UNL     1     -34.930  19.431   0.983  0.00  0.00    +0.176 C 
BRANCH  13  14
ATOM     14  C   UNL     1     -33.403  19.344   1.178  0.00  0.00    +0.101 C 
BRANCH  14  15
ATOM     15  C   UNL     1     -32.815  17.975   0.861  0.00  0.00    +0.145 C 
BRANCH  15  16
ATOM     16  O   UNL     1     -31.776  17.680   1.785  0.00  0.00    -0.382 OA
ATOM     17  H   UNL     1     -31.560  16.736   1.738  0.00  0.00    +0.210 HD
ENDBRANCH  15  16
ENDBRANCH  14  15
ENDBRANCH  13  14
ENDBRANCH   5  13
ENDBRANCH   1   2
BRANCH   1  18
ATOM     18  C   UNL     1     -37.613  24.870   2.960  0.00  0.00    +0.226 C 
BRANCH  18  19
ATOM     19  C   UNL     1     -36.886  25.699   4.035  0.00  0.00    +0.175 C 
BRANCH  19  20
ATOM     20  C   UNL     1     -35.429  25.990   3.744  0.00  0.00    +0.011 C 
ATOM     21  C   UNL     1     -34.612  26.523   4.741  0.00  0.00    +0.038 C 
ATOM     22  C   UNL     1     -34.904  25.728   2.478  0.00  0.00    +0.001 C 
ATOM     23  C   UNL     1     -33.269  26.792   4.474  0.00  0.00    +0.172 C 
ATOM     24  C   UNL     1     -33.561  25.997   2.211  0.00  0.00    +0.040 C 
ATOM     25  C   UNL     1     -32.744  26.529   3.208  0.00  0.00    +0.172 C 
BRANCH  23  26
ATOM     26  O   UNL     1     -32.482  27.312   5.456  0.00  0.00    -0.468 OA
ATOM     27  C   UNL     1     -32.853  27.025   6.803  0.00  0.00    +0.253 C 
ENDBRANCH  23  26
BRANCH  25  28
ATOM     28  O   UNL     1     -31.436  26.790   2.935  0.00  0.00    -0.468 OA
ATOM     29  C   UNL     1     -30.960  26.426   1.639  0.00  0.00    +0.253 C 
ENDBRANCH  25  28
ENDBRANCH  19  20
BRANCH  19  30
ATOM     30  O   UNL     1     -36.986  25.025   5.292  0.00  0.00    -0.376 OA
ATOM     31  H   UNL     1     -37.442  25.597   5.929  0.00  0.00    +0.211 HD
ENDBRANCH  19  30
ENDBRANCH  18  19
BRANCH  18  32
ATOM     32  C   UNL     1     -38.943  25.482   2.525  0.00  0.00    +0.184 C 
BRANCH  32  33
ATOM     33  O   UNL     1     -39.320  26.478   3.471  0.00  0.00    -0.378 OA
ATOM     34  H   UNL     1     -39.290  27.351   3.050  0.00  0.00    +0.211 HD
ENDBRANCH  32  33
ENDBRANCH  18  32
ENDBRANCH   1  18
TORSDOF 15
ENDMDL
MODEL 3
REMARK VINA RESULT:      -5.7      3.387      8.986
REMARK  Name = 54753845
REMARK  15 active torsions:
REMARK  status: ('A' for Active; 'I' for Inactive)
REMARK    1  A    between atoms: O_1  and  C_2
REMARK    2  A    between atoms: O_1  and  C_18
REMARK    3  A    between atoms: C_3  and  O_8
REMARK    4  A    between atoms: C_4  and  O_10
REMARK    5  A    between atoms: C_5  and  C_13
REMARK    6  A    between atoms: C_13  and  C_14
REMARK    7  A    between atoms: C_14  and  C_15
REMARK    8  A    between atoms: C_15  and  O_16
REMARK    9  A    between atoms: C_18  and  C_19
REMARK   10  A    between atoms: C_18  and  C_32
REMARK   11  A    between atoms: C_19  and  C_20
REMARK   12  A    between atoms: C_19  and  O_30
REMARK   13  A    between atoms: C_23  and  O_26
REMARK   14  A    between atoms: C_25  and  O_28
REMARK   15  A    between atoms: C_32  and  O_33
REMARK                            x       y       z     vdW  Elec       q    Type
REMARK                         _______ _______ _______ _____ _____    ______ ____
ROOT
ATOM      1  O   UNL     1     -31.823  28.316   4.918  0.00  0.00    -0.468 OA
ENDROOT
BRANCH   1   2
ATOM      2  C   UNL     1     -32.794  27.354   4.880  0.00  0.00    +0.206 C 
ATOM      3  C   UNL     1     -33.315  26.935   3.655  0.00  0.00    +0.176 C 
ATOM      4  C   UNL     1     -33.261  26.787   6.066  0.00  0.00    +0.171 C 
ATOM      5  C   UNL     1     -34.771  25.386   4.802  0.00  0.00    +0.041 C 
ATOM      6  C   UNL     1     -34.302  25.953   3.617  0.00  0.00    +0.043 C 
ATOM      7  C   UNL     1     -34.250  25.804   6.027  0.00  0.00    +0.043 C 
BRANCH   3   8
ATOM      8  O   UNL     1     -32.868  27.481   2.490  0.00  0.00    -0.468 OA
ATOM      9  C   UNL     1     -33.763  27.460   1.380  0.00  0.00    +0.253 C 
ENDBRANCH   3   8
BRANCH   4  10
ATOM     10  O   UNL     1     -32.762  27.188   7.269  0.00  0.00    -0.503 OA
ATOM     11  H   UNL     1     -32.733  26.587   7.987  0.00  0.00    +0.292 HD
ENDBRANCH   4  10
BRANCH   5  13
ATOM     12  O   UNL     1     -37.010  24.672   4.766  0.00  0.00    -0.291 OA
ATOM     13  C   UNL     1     -35.800  24.361   4.762  0.00  0.00    +0.176 C 
BRANCH  13  14
ATOM     14  C   UNL     1     -35.403  22.872   4.713  0.00  0.00    +0.101 C 
BRANCH  14  15
ATOM     15  C   UNL     1     -35.408  22.184   6.073  0.00  0.00    +0.145 C 
BRANCH  15  16
ATOM     16  O   UNL     1     -35.364  20.775   5.892  0.00  0.00    -0.382 OA
ATOM     17  H   UNL     1     -34.464  20.455   6.061  0.00  0.00    +0.210 HD
ENDBRANCH  15  16
ENDBRANCH  14  15
ENDBRANCH  13  14
ENDBRANCH   5  13
ENDBRANCH   1   2
BRANCH   1  18
ATOM     18  C   UNL     1     -32.264  29.656   5.144  0.00  0.00    +0.226 C 
BRANCH  18  19
ATOM     19  C   UNL     1     -31.916  30.532   3.927  0.00  0.00    +0.175 C 
BRANCH  19  20
ATOM     20  C   UNL     1     -33.103  31.152   3.221  0.00  0.00    +0.011 C 
ATOM     21  C   UNL     1     -32.949  32.345   2.514  0.00  0.00    +0.038 C 
ATOM     22  C   UNL     1     -34.352  30.533   3.281  0.00  0.00    +0.001 C 
ATOM     23  C   UNL     1     -34.043  32.917   1.864  0.00  0.00    +0.172 C 
ATOM     24  C   UNL     1     -35.446  31.105   2.631  0.00  0.00    +0.040 C 
ATOM     25  C   UNL     1     -35.291  32.297   1.923  0.00  0.00    +0.172 C 
BRANCH  23  26
ATOM     26  O   UNL     1     -33.879  34.080   1.176  0.00  0.00    -0.468 OA
ATOM     27  C   UNL     1     -33.581  35.248   1.938  0.00  0.00    +0.253 C 
ENDBRANCH  23  26
BRANCH  25  28
ATOM     28  O   UNL     1     -36.367  32.848   1.294  0.00  0.00    -0.468 OA
ATOM     29  C   UNL     1     -37.643  32.270   1.570  0.00  0.00    +0.253 C 
ENDBRANCH  25  28
ENDBRANCH  19  20
BRANCH  19  30
ATOM     30  O   UNL     1     -31.169  29.753   2.988  0.00  0.00    -0.376 OA
ATOM     31  H   UNL     1     -30.229  29.773   3.227  0.00  0.00    +0.211 HD
ENDBRANCH  19  30
ENDBRANCH  18  19
BRANCH  18  32
ATOM     32  C   UNL     1     -31.656  30.168   6.448  0.00  0.00    +0.184 C 
BRANCH  32  33
ATOM     33  O   UNL     1     -30.775  29.174   6.964  0.00  0.00    -0.378 OA
ATOM     34  H   UNL     1     -31.232  28.661   7.648  0.00  0.00    +0.211 HD
ENDBRANCH  32  33
ENDBRANCH  18  32
ENDBRANCH   1  18
TORSDOF 15
ENDMDL
MODEL 4
REMARK VINA RESULT:      -5.7      0.986      2.125
REMARK  Name = 54753845
REMARK  15 active torsions:
REMARK  status: ('A' for Active; 'I' for Inactive)
REMARK    1  A    between atoms: O_1  and  C_2
REMARK    2  A    between atoms: O_1  and  C_18
REMARK    3  A    between atoms: C_3  and  O_8
REMARK    4  A    between atoms: C_4  and  O_10
REMARK    5  A    between atoms: C_5  and  C_13
REMARK    6  A    between atoms: C_13  and  C_14
REMARK    7  A    between atoms: C_14  and  C_15
REMARK    8  A    between atoms: C_15  and  O_16
REMARK    9  A    between atoms: C_18  and  C_19
REMARK   10  A    between atoms: C_18  and  C_32
REMARK   11  A    between atoms: C_19  and  C_20
REMARK   12  A    between atoms: C_19  and  O_30
REMARK   13  A    between atoms: C_23  and  O_26
REMARK   14  A    between atoms: C_25  and  O_28
REMARK   15  A    between atoms: C_32  and  O_33
REMARK                            x       y       z     vdW  Elec       q    Type
REMARK                         _______ _______ _______ _____ _____    ______ ____
ROOT
ATOM      1  O   UNL     1     -36.686  23.471   4.396  0.00  0.00    -0.468 OA
ENDROOT
BRANCH   1   2
ATOM      2  C   UNL     1     -36.464  24.683   3.801  0.00  0.00    +0.206 C 
ATOM      3  C   UNL     1     -35.591  25.598   4.388  0.00  0.00    +0.176 C 
ATOM      4  C   UNL     1     -37.108  25.001   2.606  0.00  0.00    +0.171 C 
ATOM      5  C   UNL     1     -36.007  27.152   2.586  0.00  0.00    +0.041 C 
ATOM      6  C   UNL     1     -35.363  26.832   3.781  0.00  0.00    +0.043 C 
ATOM      7  C   UNL     1     -36.880  26.236   1.998  0.00  0.00    +0.043 C 
BRANCH   3   8
ATOM      8  O   UNL     1     -34.956  25.300   5.556  0.00  0.00    -0.468 OA
ATOM      9  C   UNL     1     -33.957  26.215   6.002  0.00  0.00    +0.253 C 
ENDBRANCH   3   8
BRANCH   4  10
ATOM     10  O   UNL     1     -37.964  24.116   2.023  0.00  0.00    -0.503 OA
ATOM     11  H   UNL     1     -37.832  23.195   2.132  0.00  0.00    +0.292 HD
ENDBRANCH   4  10
BRANCH   5  13
ATOM     12  O   UNL     1     -36.692  29.040   1.365  0.00  0.00    -0.291 OA
ATOM     13  C   UNL     1     -35.769  28.438   1.952  0.00  0.00    +0.176 C 
BRANCH  13  14
ATOM     14  C   UNL     1     -34.365  29.073   2.002  0.00  0.00    +0.101 C 
BRANCH  14  15
ATOM     15  C   UNL     1     -34.313  30.406   2.738  0.00  0.00    +0.145 C 
BRANCH  15  16
ATOM     16  O   UNL     1     -35.445  30.521   3.590  0.00  0.00    -0.382 OA
ATOM     17  H   UNL     1     -35.560  31.447   3.854  0.00  0.00    +0.210 HD
ENDBRANCH  15  16
ENDBRANCH  14  15
ENDBRANCH  13  14
ENDBRANCH   5  13
ENDBRANCH   1   2
BRANCH   1  18
ATOM     18  C   UNL     1     -35.607  22.536   4.356  0.00  0.00    +0.226 C 
BRANCH  18  19
ATOM     19  C   UNL     1     -35.922  21.419   3.343  0.00  0.00    +0.175 C 
BRANCH  19  20
ATOM     20  C   UNL     1     -35.014  21.375   2.132  0.00  0.00    +0.011 C 
ATOM     21  C   UNL     1     -34.405  20.176   1.761  0.00  0.00    +0.038 C 
ATOM     22  C   UNL     1     -34.783  22.534   1.391  0.00  0.00    +0.001 C 
ATOM     23  C   UNL     1     -33.567  20.135   0.646  0.00  0.00    +0.172 C 
ATOM     24  C   UNL     1     -33.945  22.493   0.276  0.00  0.00    +0.040 C 
ATOM     25  C   UNL     1     -33.337  21.293  -0.096  0.00  0.00    +0.172 C 
BRANCH  23  26
ATOM     26  O   UNL     1     -32.980  18.958   0.293  0.00  0.00    -0.468 OA
ATOM     27  C   UNL     1     -32.655  18.055   1.348  0.00  0.00    +0.253 C 
ENDBRANCH  23  26
BRANCH  25  28
ATOM     28  O   UNL     1     -32.519  21.266  -1.185  0.00  0.00    -0.468 OA
ATOM     29  C   UNL     1     -31.187  21.745  -1.006  0.00  0.00    +0.253 C 
ENDBRANCH  25  28
ENDBRANCH  19  20
BRANCH  19  30
ATOM     30  O   UNL     1     -37.277  21.554   2.905  0.00  0.00    -0.376 OA
ATOM     31  H   UNL     1     -37.517  20.790   2.357  0.00  0.00    +0.211 HD
ENDBRANCH  19  30
ENDBRANCH  18  19
BRANCH  18  32
ATOM     32  C   UNL     1     -35.347  22.013   5.767  0.00  0.00    +0.184 C 
BRANCH  32  33
ATOM     33  O   UNL     1     -35.307  20.590   5.728  0.00  0.00    -0.378 OA
ATOM     34  H   UNL     1     -35.711  20.277   4.903  0.00  0.00    +0.211 HD
ENDBRANCH  32  33
ENDBRANCH  18  32
ENDBRANCH   1  18
TORSDOF 15
ENDMDL
MODEL 5
REMARK VINA RESULT:      -5.7      3.357      8.731
REMARK  Name = 54753845
REMARK  15 active torsions:
REMARK  status: ('A' for Active; 'I' for Inactive)
REMARK    1  A    between atoms: O_1  and  C_2
REMARK    2  A    between atoms: O_1  and  C_18
REMARK    3  A    between atoms: C_3  and  O_8
REMARK    4  A    between atoms: C_4  and  O_10
REMARK    5  A    between atoms: C_5  and  C_13
REMARK    6  A    between atoms: C_13  and  C_14
REMARK    7  A    between atoms: C_14  and  C_15
REMARK    8  A    between atoms: C_15  and  O_16
REMARK    9  A    between atoms: C_18  and  C_19
REMARK   10  A    between atoms: C_18  and  C_32
REMARK   11  A    between atoms: C_19  and  C_20
REMARK   12  A    between atoms: C_19  and  O_30
REMARK   13  A    between atoms: C_23  and  O_26
REMARK   14  A    between atoms: C_25  and  O_28
REMARK   15  A    between atoms: C_32  and  O_33
REMARK                            x       y       z     vdW  Elec       q    Type
REMARK                         _______ _______ _______ _____ _____    ______ ____
ROOT
ATOM      1  O   UNL     1     -31.720  28.353   5.069  0.00  0.00    -0.468 OA
ENDROOT
BRANCH   1   2
ATOM      2  C   UNL     1     -32.701  27.403   5.001  0.00  0.00    +0.206 C 
ATOM      3  C   UNL     1     -33.208  27.010   3.762  0.00  0.00    +0.176 C 
ATOM      4  C   UNL     1     -33.193  26.824   6.171  0.00  0.00    +0.171 C 
ATOM      5  C   UNL     1     -34.699  25.461   4.863  0.00  0.00    +0.041 C 
ATOM      6  C   UNL     1     -34.207  26.040   3.694  0.00  0.00    +0.043 C 
ATOM      7  C   UNL     1     -34.192  25.853   6.102  0.00  0.00    +0.043 C 
BRANCH   3   8
ATOM      8  O   UNL     1     -32.738  27.569   2.612  0.00  0.00    -0.468 OA
ATOM      9  C   UNL     1     -33.507  27.362   1.430  0.00  0.00    +0.253 C 
ENDBRANCH   3   8
BRANCH   4  10
ATOM     10  O   UNL     1     -32.707  27.200   7.387  0.00  0.00    -0.503 OA
ATOM     11  H   UNL     1     -33.277  27.230   8.130  0.00  0.00    +0.292 HD
ENDBRANCH   4  10
BRANCH   5  13
ATOM     12  O   UNL     1     -36.945  24.775   4.775  0.00  0.00    -0.291 OA
ATOM     13  C   UNL     1     -35.740  24.449   4.791  0.00  0.00    +0.176 C 
BRANCH  13  14
ATOM     14  C   UNL     1     -35.360  22.956   4.734  0.00  0.00    +0.101 C 
BRANCH  14  15
ATOM     15  C   UNL     1     -35.428  22.247   6.081  0.00  0.00    +0.145 C 
BRANCH  15  16
ATOM     16  O   UNL     1     -35.380  20.841   5.880  0.00  0.00    -0.382 OA
ATOM     17  H   UNL     1     -34.683  20.629   5.239  0.00  0.00    +0.210 HD
ENDBRANCH  15  16
ENDBRANCH  14  15
ENDBRANCH  13  14
ENDBRANCH   5  13
ENDBRANCH   1   2
BRANCH   1  18
ATOM     18  C   UNL     1     -32.154  29.708   5.206  0.00  0.00    +0.226 C 
BRANCH  18  19
ATOM     19  C   UNL     1     -31.612  30.550   4.037  0.00  0.00    +0.175 C 
BRANCH  19  20
ATOM     20  C   UNL     1     -32.659  31.318   3.259  0.00  0.00    +0.011 C 
ATOM     21  C   UNL     1     -33.935  30.780   3.089  0.00  0.00    +0.038 C 
ATOM     22  C   UNL     1     -32.348  32.562   2.709  0.00  0.00    +0.001 C 
ATOM     23  C   UNL     1     -34.901  31.486   2.372  0.00  0.00    +0.172 C 
ATOM     24  C   UNL     1     -33.314  33.268   1.992  0.00  0.00    +0.040 C 
ATOM     25  C   UNL     1     -34.590  32.730   1.823  0.00  0.00    +0.172 C 
BRANCH  23  26
ATOM     26  O   UNL     1     -36.143  30.950   2.215  0.00  0.00    -0.468 OA
ATOM     27  C   UNL     1     -36.281  29.906   1.254  0.00  0.00    +0.253 C 
ENDBRANCH  23  26
BRANCH  25  28
ATOM     28  O   UNL     1     -35.524  33.428   1.119  0.00  0.00    -0.468 OA
ATOM     29  C   UNL     1     -35.408  34.850   1.123  0.00  0.00    +0.253 C 
ENDBRANCH  25  28
ENDBRANCH  19  20
BRANCH  19  30
ATOM     30  O   UNL     1     -30.894  29.698   3.140  0.00  0.00    -0.376 OA
ATOM     31  H   UNL     1     -31.369  28.858   3.044  0.00  0.00    +0.211 HD
ENDBRANCH  19  30
ENDBRANCH  18  19
BRANCH  18  32
ATOM     32  C   UNL     1     -31.726  30.232   6.575  0.00  0.00    +0.184 C 
BRANCH  32  33
ATOM     33  O   UNL     1     -30.779  29.328   7.136  0.00  0.00    -0.378 OA
ATOM     34  H   UNL     1     -30.793  28.496   6.639  0.00  0.00    +0.211 HD
ENDBRANCH  32  33
ENDBRANCH  18  32
ENDBRANCH   1  18
TORSDOF 15
ENDMDL
MODEL 6
REMARK VINA RESULT:      -5.7      3.076      5.171
REMARK  Name = 54753845
REMARK  15 active torsions:
REMARK  status: ('A' for Active; 'I' for Inactive)
REMARK    1  A    between atoms: O_1  and  C_2
REMARK    2  A    between atoms: O_1  and  C_18
REMARK    3  A    between atoms: C_3  and  O_8
REMARK    4  A    between atoms: C_4  and  O_10
REMARK    5  A    between atoms: C_5  and  C_13
REMARK    6  A    between atoms: C_13  and  C_14
REMARK    7  A    between atoms: C_14  and  C_15
REMARK    8  A    between atoms: C_15  and  O_16
REMARK    9  A    between atoms: C_18  and  C_19
REMARK   10  A    between atoms: C_18  and  C_32
REMARK   11  A    between atoms: C_19  and  C_20
REMARK   12  A    between atoms: C_19  and  O_30
REMARK   13  A    between atoms: C_23  and  O_26
REMARK   14  A    between atoms: C_25  and  O_28
REMARK   15  A    between atoms: C_32  and  O_33
REMARK                            x       y       z     vdW  Elec       q    Type
REMARK                         _______ _______ _______ _____ _____    ______ ____
ROOT
ATOM      1  O   UNL     1     -34.480  26.118   3.456  0.00  0.00    -0.468 OA
ENDROOT
BRANCH   1   2
ATOM      2  C   UNL     1     -33.604  26.815   4.240  0.00  0.00    +0.206 C 
ATOM      3  C   UNL     1     -32.757  27.764   3.667  0.00  0.00    +0.176 C 
ATOM      4  C   UNL     1     -33.560  26.581   5.614  0.00  0.00    +0.171 C 
ATOM      5  C   UNL     1     -31.820  28.242   5.842  0.00  0.00    +0.041 C 
ATOM      6  C   UNL     1     -31.866  28.477   4.468  0.00  0.00    +0.043 C 
ATOM      7  C   UNL     1     -32.668  27.294   6.416  0.00  0.00    +0.043 C 
BRANCH   3   8
ATOM      8  O   UNL     1     -32.789  28.002   2.326  0.00  0.00    -0.468 OA
ATOM      9  C   UNL     1     -33.091  29.332   1.911  0.00  0.00    +0.253 C 
ENDBRANCH   3   8
BRANCH   4  10
ATOM     10  O   UNL     1     -34.381  25.656   6.187  0.00  0.00    -0.503 OA
ATOM     11  H   UNL     1     -35.092  25.934   6.731  0.00  0.00    +0.292 HD
ENDBRANCH   4  10
BRANCH   5  13
ATOM     12  O   UNL     1     -31.307  29.840   7.487  0.00  0.00    -0.291 OA
ATOM     13  C   UNL     1     -30.892  28.986   6.677  0.00  0.00    +0.176 C 
BRANCH  13  14
ATOM     14  C   UNL     1     -29.376  28.723   6.567  0.00  0.00    +0.101 C 
BRANCH  14  15
ATOM     15  C   UNL     1     -28.524  29.641   7.434  0.00  0.00    +0.145 C 
BRANCH  15  16
ATOM     16  O   UNL     1     -28.610  29.226   8.791  0.00  0.00    -0.382 OA
ATOM     17  H   UNL     1     -29.450  28.763   8.936  0.00  0.00    +0.210 HD
ENDBRANCH  15  16
ENDBRANCH  14  15
ENDBRANCH  13  14
ENDBRANCH   5  13
ENDBRANCH   1   2
BRANCH   1  18
ATOM     18  C   UNL     1     -35.796  26.660   3.334  0.00  0.00    +0.226 C 
BRANCH  18  19
ATOM     19  C   UNL     1     -36.827  25.658   3.885  0.00  0.00    +0.175 C 
BRANCH  19  20
ATOM     20  C   UNL     1     -36.571  24.210   3.524  0.00  0.00    +0.011 C 
ATOM     21  C   UNL     1     -35.968  23.357   4.449  0.00  0.00    +0.038 C 
ATOM     22  C   UNL     1     -36.934  23.730   2.265  0.00  0.00    +0.001 C 
ATOM     23  C   UNL     1     -35.731  22.023   4.116  0.00  0.00    +0.172 C 
ATOM     24  C   UNL     1     -36.697  22.396   1.933  0.00  0.00    +0.040 C 
ATOM     25  C   UNL     1     -36.095  21.543   2.858  0.00  0.00    +0.172 C 
BRANCH  23  26
ATOM     26  O   UNL     1     -35.143  21.200   5.028  0.00  0.00    -0.468 OA
ATOM     27  C   UNL     1     -35.009  21.698   6.358  0.00  0.00    +0.253 C 
ENDBRANCH  23  26
BRANCH  25  28
ATOM     28  O   UNL     1     -35.867  20.243   2.522  0.00  0.00    -0.468 OA
ATOM     29  C   UNL     1     -34.690  19.968   1.762  0.00  0.00    +0.253 C 
ENDBRANCH  25  28
ENDBRANCH  19  20
BRANCH  19  30
ATOM     30  O   UNL     1     -38.131  26.029   3.430  0.00  0.00    -0.376 OA
ATOM     31  H   UNL     1     -38.285  26.967   3.623  0.00  0.00    +0.211 HD
ENDBRANCH  19  30
ENDBRANCH  18  19
BRANCH  18  32
ATOM     32  C   UNL     1     -36.046  27.041   1.876  0.00  0.00    +0.184 C 
BRANCH  32  33
ATOM     33  O   UNL     1     -36.800  28.248   1.840  0.00  0.00    -0.378 OA
ATOM     34  H   UNL     1     -36.771  28.673   2.712  0.00  0.00    +0.211 HD
ENDBRANCH  32  33
ENDBRANCH  18  32
ENDBRANCH   1  18
TORSDOF 15
ENDMDL
MODEL 7
REMARK VINA RESULT:      -5.7      3.434      7.946
REMARK  Name = 54753845
REMARK  15 active torsions:
REMARK  status: ('A' for Active; 'I' for Inactive)
REMARK    1  A    between atoms: O_1  and  C_2
REMARK    2  A    between atoms: O_1  and  C_18
REMARK    3  A    between atoms: C_3  and  O_8
REMARK    4  A    between atoms: C_4  and  O_10
REMARK    5  A    between atoms: C_5  and  C_13
REMARK    6  A    between atoms: C_13  and  C_14
REMARK    7  A    between atoms: C_14  and  C_15
REMARK    8  A    between atoms: C_15  and  O_16
REMARK    9  A    between atoms: C_18  and  C_19
REMARK   10  A    between atoms: C_18  and  C_32
REMARK   11  A    between atoms: C_19  and  C_20
REMARK   12  A    between atoms: C_19  and  O_30
REMARK   13  A    between atoms: C_23  and  O_26
REMARK   14  A    between atoms: C_25  and  O_28
REMARK   15  A    between atoms: C_32  and  O_33
REMARK                            x       y       z     vdW  Elec       q    Type
REMARK                         _______ _______ _______ _____ _____    ______ ____
ROOT
ATOM      1  O   UNL     1     -34.749  28.050   3.842  0.00  0.00    -0.468 OA
ENDROOT
BRANCH   1   2
ATOM      2  C   UNL     1     -34.961  26.723   4.097  0.00  0.00    +0.206 C 
ATOM      3  C   UNL     1     -35.898  26.010   3.350  0.00  0.00    +0.176 C 
ATOM      4  C   UNL     1     -34.238  26.083   5.103  0.00  0.00    +0.171 C 
ATOM      5  C   UNL     1     -35.389  24.015   4.616  0.00  0.00    +0.041 C 
ATOM      6  C   UNL     1     -36.112  24.657   3.609  0.00  0.00    +0.043 C 
ATOM      7  C   UNL     1     -34.452  24.729   5.363  0.00  0.00    +0.043 C 
BRANCH   3   8
ATOM      8  O   UNL     1     -36.612  26.623   2.366  0.00  0.00    -0.468 OA
ATOM      9  C   UNL     1     -37.994  26.287   2.262  0.00  0.00    +0.253 C 
ENDBRANCH   3   8
BRANCH   4  10
ATOM     10  O   UNL     1     -33.320  26.769   5.841  0.00  0.00    -0.503 OA
ATOM     11  H   UNL     1     -32.641  26.306   6.292  0.00  0.00    +0.292 HD
ENDBRANCH   4  10
BRANCH   5  13
ATOM     12  O   UNL     1     -36.087  22.233   5.978  0.00  0.00    -0.291 OA
ATOM     13  C   UNL     1     -35.612  22.605   4.885  0.00  0.00    +0.176 C 
BRANCH  13  14
ATOM     14  C   UNL     1     -35.261  21.551   3.816  0.00  0.00    +0.101 C 
BRANCH  14  15
ATOM     15  C   UNL     1     -36.365  21.313   2.794  0.00  0.00    +0.145 C 
BRANCH  15  16
ATOM     16  O   UNL     1     -36.690  19.930   2.760  0.00  0.00    -0.382 OA
ATOM     17  H   UNL     1     -36.777  19.640   1.839  0.00  0.00    +0.210 HD
ENDBRANCH  15  16
ENDBRANCH  14  15
ENDBRANCH  13  14
ENDBRANCH   5  13
ENDBRANCH   1   2
BRANCH   1  18
ATOM     18  C   UNL     1     -33.637  28.366   3.002  0.00  0.00    +0.226 C 
BRANCH  18  19
ATOM     19  C   UNL     1     -32.926  29.626   3.531  0.00  0.00    +0.175 C 
BRANCH  19  20
ATOM     20  C   UNL     1     -31.838  29.368   4.552  0.00  0.00    +0.011 C 
ATOM     21  C   UNL     1     -30.779  28.515   4.240  0.00  0.00    +0.038 C 
ATOM     22  C   UNL     1     -31.896  29.980   5.804  0.00  0.00    +0.001 C 
ATOM     23  C   UNL     1     -29.776  28.276   5.180  0.00  0.00    +0.172 C 
ATOM     24  C   UNL     1     -30.893  29.741   6.744  0.00  0.00    +0.040 C 
ATOM     25  C   UNL     1     -29.833  28.889   6.432  0.00  0.00    +0.172 C 
BRANCH  23  26
ATOM     26  O   UNL     1     -28.747  27.443   4.864  0.00  0.00    -0.468 OA
ATOM     27  C   UNL     1     -28.101  27.657   3.610  0.00  0.00    +0.253 C 
ENDBRANCH  23  26
BRANCH  25  28
ATOM     28  O   UNL     1     -28.861  28.662   7.359  0.00  0.00    -0.468 OA
ATOM     29  C   UNL     1     -28.024  29.765   7.703  0.00  0.00    +0.253 C 
ENDBRANCH  25  28
ENDBRANCH  19  20
BRANCH  19  30
ATOM     30  O   UNL     1     -33.899  30.509   4.098  0.00  0.00    -0.376 OA
ATOM     31  H   UNL     1     -34.661  29.994   4.406  0.00  0.00    +0.211 HD
ENDBRANCH  19  30
ENDBRANCH  18  19
BRANCH  18  32
ATOM     32  C   UNL     1     -34.124  28.510   1.562  0.00  0.00    +0.184 C 
BRANCH  32  33
ATOM     33  O   UNL     1     -35.357  29.223   1.564  0.00  0.00    -0.378 OA
ATOM     34  H   UNL     1     -35.560  29.520   0.664  0.00  0.00    +0.211 HD
ENDBRANCH  32  33
ENDBRANCH  18  32
ENDBRANCH   1  18
TORSDOF 15
ENDMDL
MODEL 8
REMARK VINA RESULT:      -5.7      1.135      2.693
REMARK  Name = 54753845
REMARK  15 active torsions:
REMARK  status: ('A' for Active; 'I' for Inactive)
REMARK    1  A    between atoms: O_1  and  C_2
REMARK    2  A    between atoms: O_1  and  C_18
REMARK    3  A    between atoms: C_3  and  O_8
REMARK    4  A    between atoms: C_4  and  O_10
REMARK    5  A    between atoms: C_5  and  C_13
REMARK    6  A    between atoms: C_13  and  C_14
REMARK    7  A    between atoms: C_14  and  C_15
REMARK    8  A    between atoms: C_15  and  O_16
REMARK    9  A    between atoms: C_18  and  C_19
REMARK   10  A    between atoms: C_18  and  C_32
REMARK   11  A    between atoms: C_19  and  C_20
REMARK   12  A    between atoms: C_19  and  O_30
REMARK   13  A    between atoms: C_23  and  O_26
REMARK   14  A    between atoms: C_25  and  O_28
REMARK   15  A    between atoms: C_32  and  O_33
REMARK                            x       y       z     vdW  Elec       q    Type
REMARK                         _______ _______ _______ _____ _____    ______ ____
ROOT
ATOM      1  O   UNL     1     -36.695  23.518   4.479  0.00  0.00    -0.468 OA
ENDROOT
BRANCH   1   2
ATOM      2  C   UNL     1     -36.466  24.723   3.874  0.00  0.00    +0.206 C 
ATOM      3  C   UNL     1     -35.569  25.629   4.439  0.00  0.00    +0.176 C 
ATOM      4  C   UNL     1     -37.129  25.045   2.690  0.00  0.00    +0.171 C 
ATOM      5  C   UNL     1     -35.997  27.179   2.636  0.00  0.00    +0.041 C 
ATOM      6  C   UNL     1     -35.334  26.856   3.821  0.00  0.00    +0.043 C 
ATOM      7  C   UNL     1     -36.895  26.273   2.071  0.00  0.00    +0.043 C 
BRANCH   3   8
ATOM      8  O   UNL     1     -34.916  25.327   5.596  0.00  0.00    -0.468 OA
ATOM      9  C   UNL     1     -33.898  26.232   6.021  0.00  0.00    +0.253 C 
ENDBRANCH   3   8
BRANCH   4  10
ATOM     10  O   UNL     1     -38.009  24.170   2.128  0.00  0.00    -0.503 OA
ATOM     11  H   UNL     1     -38.631  24.472   1.495  0.00  0.00    +0.292 HD
ENDBRANCH   4  10
BRANCH   5  13
ATOM     12  O   UNL     1     -36.660  29.037   1.358  0.00  0.00    -0.291 OA
ATOM     13  C   UNL     1     -35.752  28.458   1.991  0.00  0.00    +0.176 C 
BRANCH  13  14
ATOM     14  C   UNL     1     -34.360  29.115   2.085  0.00  0.00    +0.101 C 
BRANCH  14  15
ATOM     15  C   UNL     1     -34.372  30.506   2.705  0.00  0.00    +0.145 C 
BRANCH  15  16
ATOM     16  O   UNL     1     -35.454  30.608   3.621  0.00  0.00    -0.382 OA
ATOM     17  H   UNL     1     -36.172  30.019   3.341  0.00  0.00    +0.210 HD
ENDBRANCH  15  16
ENDBRANCH  14  15
ENDBRANCH  13  14
ENDBRANCH   5  13
ENDBRANCH   1   2
BRANCH   1  18
ATOM     18  C   UNL     1     -35.637  22.560   4.409  0.00  0.00    +0.226 C 
BRANCH  18  19
ATOM     19  C   UNL     1     -36.012  21.442   3.419  0.00  0.00    +0.175 C 
BRANCH  19  20
ATOM     20  C   UNL     1     -35.084  21.298   2.231  0.00  0.00    +0.011 C 
ATOM     21  C   UNL     1     -34.796  22.406   1.434  0.00  0.00    +0.038 C 
ATOM     22  C   UNL     1     -34.519  20.058   1.933  0.00  0.00    +0.001 C 
ATOM     23  C   UNL     1     -33.941  22.275   0.339  0.00  0.00    +0.172 C 
ATOM     24  C   UNL     1     -33.664  19.927   0.838  0.00  0.00    +0.040 C 
ATOM     25  C   UNL     1     -33.376  21.035   0.041  0.00  0.00    +0.172 C 
BRANCH  23  26
ATOM     26  O   UNL     1     -33.668  23.364  -0.431  0.00  0.00    -0.468 OA
ATOM     27  C   UNL     1     -32.854  24.381   0.150  0.00  0.00    +0.253 C 
ENDBRANCH  23  26
BRANCH  25  28
ATOM     28  O   UNL     1     -32.542  20.893  -1.026  0.00  0.00    -0.468 OA
ATOM     29  C   UNL     1     -31.161  20.667  -0.744  0.00  0.00    +0.253 C 
ENDBRANCH  25  28
ENDBRANCH  19  20
BRANCH  19  30
ATOM     30  O   UNL     1     -37.344  21.662   2.947  0.00  0.00    -0.376 OA
ATOM     31  H   UNL     1     -37.533  21.050   2.218  0.00  0.00    +0.211 HD
ENDBRANCH  19  30
ENDBRANCH  18  19
BRANCH  18  32
ATOM     32  C   UNL     1     -35.336  22.045   5.815  0.00  0.00    +0.184 C 
BRANCH  32  33
ATOM     33  O   UNL     1     -35.345  20.621   5.792  0.00  0.00    -0.378 OA
ATOM     34  H   UNL     1     -34.446  20.290   5.946  0.00  0.00    +0.211 HD
ENDBRANCH  32  33
ENDBRANCH  18  32
ENDBRANCH   1  18
TORSDOF 15
ENDMDL
MODEL 9
REMARK VINA RESULT:      -5.7      0.747      1.778
REMARK  Name = 54753845
REMARK  15 active torsions:
REMARK  status: ('A' for Active; 'I' for Inactive)
REMARK    1  A    between atoms: O_1  and  C_2
REMARK    2  A    between atoms: O_1  and  C_18
REMARK    3  A    between atoms: C_3  and  O_8
REMARK    4  A    between atoms: C_4  and  O_10
REMARK    5  A    between atoms: C_5  and  C_13
REMARK    6  A    between atoms: C_13  and  C_14
REMARK    7  A    between atoms: C_14  and  C_15
REMARK    8  A    between atoms: C_15  and  O_16
REMARK    9  A    between atoms: C_18  and  C_19
REMARK   10  A    between atoms: C_18  and  C_32
REMARK   11  A    between atoms: C_19  and  C_20
REMARK   12  A    between atoms: C_19  and  O_30
REMARK   13  A    between atoms: C_23  and  O_26
REMARK   14  A    between atoms: C_25  and  O_28
REMARK   15  A    between atoms: C_32  and  O_33
REMARK                            x       y       z     vdW  Elec       q    Type
REMARK                         _______ _______ _______ _____ _____    ______ ____
ROOT
ATOM      1  O   UNL     1     -36.481  23.912   4.822  0.00  0.00    -0.468 OA
ENDROOT
BRANCH   1   2
ATOM      2  C   UNL     1     -36.053  25.066   4.226  0.00  0.00    +0.206 C 
ATOM      3  C   UNL     1     -36.683  25.531   3.072  0.00  0.00    +0.176 C 
ATOM      4  C   UNL     1     -34.988  25.781   4.775  0.00  0.00    +0.171 C 
ATOM      5  C   UNL     1     -35.183  27.424   3.014  0.00  0.00    +0.041 C 
ATOM      6  C   UNL     1     -36.248  26.709   2.467  0.00  0.00    +0.043 C 
ATOM      7  C   UNL     1     -34.552  26.959   4.169  0.00  0.00    +0.043 C 
BRANCH   3   8
ATOM      8  O   UNL     1     -37.723  24.842   2.525  0.00  0.00    -0.468 OA
ATOM      9  C   UNL     1     -38.094  25.181   1.190  0.00  0.00    +0.253 C 
ENDBRANCH   3   8
BRANCH   4  10
ATOM     10  O   UNL     1     -34.363  25.337   5.901  0.00  0.00    -0.503 OA
ATOM     11  H   UNL     1     -34.011  25.951   6.515  0.00  0.00    +0.292 HD
ENDBRANCH   4  10
BRANCH   5  13
ATOM     12  O   UNL     1     -33.521  28.967   2.397  0.00  0.00    -0.291 OA
ATOM     13  C   UNL     1     -34.730  28.652   2.383  0.00  0.00    +0.176 C 
BRANCH  13  14
ATOM     14  C   UNL     1     -35.745  29.581   1.687  0.00  0.00    +0.101 C 
BRANCH  14  15
ATOM     15  C   UNL     1     -35.889  30.946   2.348  0.00  0.00    +0.145 C 
BRANCH  15  16
ATOM     16  O   UNL     1     -35.512  30.854   3.715  0.00  0.00    -0.382 OA
ATOM     17  H   UNL     1     -34.971  31.623   3.954  0.00  0.00    +0.210 HD
ENDBRANCH  15  16
ENDBRANCH  14  15
ENDBRANCH  13  14
ENDBRANCH   5  13
ENDBRANCH   1   2
BRANCH   1  18
ATOM     18  C   UNL     1     -35.614  22.781   4.714  0.00  0.00    +0.226 C 
BRANCH  18  19
ATOM     19  C   UNL     1     -36.176  21.791   3.677  0.00  0.00    +0.175 C 
BRANCH  19  20
ATOM     20  C   UNL     1     -35.295  21.560   2.468  0.00  0.00    +0.011 C 
ATOM     21  C   UNL     1     -34.918  22.637   1.664  0.00  0.00    +0.038 C 
ATOM     22  C   UNL     1     -34.862  20.271   2.155  0.00  0.00    +0.001 C 
ATOM     23  C   UNL     1     -34.107  22.425   0.549  0.00  0.00    +0.172 C 
ATOM     24  C   UNL     1     -34.051  20.060   1.040  0.00  0.00    +0.040 C 
ATOM     25  C   UNL     1     -33.674  21.136   0.237  0.00  0.00    +0.172 C 
BRANCH  23  26
ATOM     26  O   UNL     1     -33.745  23.484  -0.226  0.00  0.00    -0.468 OA
ATOM     27  C   UNL     1     -33.833  24.779   0.364  0.00  0.00    +0.253 C 
ENDBRANCH  23  26
BRANCH  25  28
ATOM     28  O   UNL     1     -32.884  20.917  -0.851  0.00  0.00    -0.468 OA
ATOM     29  C   UNL     1     -31.479  20.818  -0.621  0.00  0.00    +0.253 C 
ENDBRANCH  25  28
ENDBRANCH  19  20
BRANCH  19  30
ATOM     30  O   UNL     1     -37.459  22.248   3.241  0.00  0.00    -0.376 OA
ATOM     31  H   UNL     1     -37.540  22.115   2.283  0.00  0.00    +0.211 HD
ENDBRANCH  19  30
ENDBRANCH  18  19
BRANCH  18  32
ATOM     32  C   UNL     1     -35.427  22.163   6.098  0.00  0.00    +0.184 C 
BRANCH  32  33
ATOM     33  O   UNL     1     -35.385  20.745   5.964  0.00  0.00    -0.378 OA
ATOM     34  H   UNL     1     -35.513  20.335   6.834  0.00  0.00    +0.211 HD
ENDBRANCH  32  33
ENDBRANCH  18  32
ENDBRANCH   1  18
TORSDOF 15
ENDMDL
