MODEL 1
REMARK VINA RESULT:      -6.2      0.000      0.000
REMARK  Name = 5316262
REMARK  10 active torsions:
REMARK  status: ('A' for Active; 'I' for Inactive)
REMARK    1  A    between atoms: C_1  and  C_27
REMARK    2  A    between atoms: C_2  and  O_21
REMARK    3  A    between atoms: C_2  and  C_30
REMARK    4  A    between atoms: C_3  and  C_11
REMARK    5  A    between atoms: C_9  and  O_25
REMARK    6  A    between atoms: C_10  and  O_23
REMARK    7  A    between atoms: C_14  and  O_17
REMARK    8  A    between atoms: C_16  and  O_19
REMARK    9  A    between atoms: C_27  and  O_28
REMARK   10  A    between atoms: C_30  and  O_31
REMARK                            x       y       z     vdW  Elec       q    Type
REMARK                         _______ _______ _______ _____ _____    ______ ____
ROOT
ATOM      1  C   UNL     1     -35.989  22.232   2.470  0.00  0.00    +0.065 C 
ATOM      2  C   UNL     1     -36.996  21.419   1.615  0.00  0.00    +0.122 C 
ATOM      3  C   UNL     1     -36.722  23.274   3.383  0.00  0.00    +0.049 C 
ATOM      4  C   UNL     1     -37.811  22.379   0.731  0.00  0.00    +0.056 C 
ATOM      5  C   UNL     1     -37.943  23.931   2.741  0.00  0.00    -0.019 C 
ATOM      6  C   UNL     1     -38.447  23.505   1.502  0.00  0.00    -0.020 C 
ATOM      7  C   UNL     1     -38.627  24.953   3.429  0.00  0.00    +0.036 C 
ATOM      8  C   UNL     1     -39.564  24.152   0.944  0.00  0.00    +0.036 C 
ATOM      9  C   UNL     1     -39.744  25.577   2.873  0.00  0.00    +0.167 C 
ATOM     10  C   UNL     1     -40.207  25.183   1.624  0.00  0.00    +0.172 C 
ENDROOT
BRANCH   3  11
ATOM     11  C   UNL     1     -35.724  24.306   3.911  0.00  0.00    -0.015 C 
ATOM     12  C   UNL     1     -34.938  25.019   3.015  0.00  0.00    +0.036 C 
ATOM     13  C   UNL     1     -35.615  24.516   5.279  0.00  0.00    -0.001 C 
ATOM     14  C   UNL     1     -34.029  25.960   3.496  0.00  0.00    +0.172 C 
ATOM     15  C   UNL     1     -34.706  25.456   5.760  0.00  0.00    +0.039 C 
ATOM     16  C   UNL     1     -33.912  26.179   4.869  0.00  0.00    +0.168 C 
BRANCH  14  17
ATOM     17  O   UNL     1     -33.259  26.660   2.617  0.00  0.00    -0.468 OA
ATOM     18  C   UNL     1     -32.282  25.924   1.883  0.00  0.00    +0.253 C 
ENDBRANCH  14  17
BRANCH  16  19
ATOM     19  O   UNL     1     -33.027  27.096   5.351  0.00  0.00    -0.503 OA
ATOM     20  H   UNL     1     -32.145  27.106   5.036  0.00  0.00    +0.292 HD
ENDBRANCH  16  19
ENDBRANCH   3  11
BRANCH   2  21
ATOM     21  O   UNL     1     -37.888  20.708   2.481  0.00  0.00    -0.384 OA
ATOM     22  H   UNL     1     -38.631  21.283   2.723  0.00  0.00    +0.210 HD
ENDBRANCH   2  21
BRANCH  10  23
ATOM     23  O   UNL     1     -41.291  25.785   1.062  0.00  0.00    -0.468 OA
ATOM     24  C   UNL     1     -42.519  25.058   1.083  0.00  0.00    +0.253 C 
ENDBRANCH  10  23
BRANCH   9  25
ATOM     25  O   UNL     1     -40.370  26.570   3.563  0.00  0.00    -0.503 OA
ATOM     26  H   UNL     1     -40.031  26.850   4.391  0.00  0.00    +0.292 HD
ENDBRANCH   9  25
BRANCH   1  27
ATOM     27  C   UNL     1     -35.092  21.323   3.330  0.00  0.00    +0.140 C 
BRANCH  27  28
ATOM     28  O   UNL     1     -35.774  21.051   4.536  0.00  0.00    -0.382 OA
ATOM     29  H   UNL     1     -36.612  21.539   4.550  0.00  0.00    +0.210 HD
ENDBRANCH  27  28
ENDBRANCH   1  27
BRANCH   2  30
ATOM     30  C   UNL     1     -36.308  20.383   0.717  0.00  0.00    +0.164 C 
BRANCH  30  31
ATOM     31  O   UNL     1     -36.695  19.095   1.152  0.00  0.00    -0.380 OA
ATOM     32  H   UNL     1     -37.628  19.110   1.416  0.00  0.00    +0.211 HD
ENDBRANCH  30  31
ENDBRANCH   2  30
TORSDOF 10
ENDMDL
MODEL 2
REMARK VINA RESULT:      -6.1      2.092      6.228
REMARK  Name = 5316262
REMARK  10 active torsions:
REMARK  status: ('A' for Active; 'I' for Inactive)
REMARK    1  A    between atoms: C_1  and  C_27
REMARK    2  A    between atoms: C_2  and  O_21
REMARK    3  A    between atoms: C_2  and  C_30
REMARK    4  A    between atoms: C_3  and  C_11
REMARK    5  A    between atoms: C_9  and  O_25
REMARK    6  A    between atoms: C_10  and  O_23
REMARK    7  A    between atoms: C_14  and  O_17
REMARK    8  A    between atoms: C_16  and  O_19
REMARK    9  A    between atoms: C_27  and  O_28
REMARK   10  A    between atoms: C_30  and  O_31
REMARK                            x       y       z     vdW  Elec       q    Type
REMARK                         _______ _______ _______ _____ _____    ______ ____
ROOT
ATOM      1  C   UNL     1     -37.184  25.427   2.344  0.00  0.00    +0.065 C 
ATOM      2  C   UNL     1     -37.226  26.544   1.270  0.00  0.00    +0.122 C 
ATOM      3  C   UNL     1     -35.820  25.425   3.116  0.00  0.00    +0.049 C 
ATOM      4  C   UNL     1     -36.079  26.335   0.266  0.00  0.00    +0.056 C 
ATOM      5  C   UNL     1     -34.603  25.755   2.254  0.00  0.00    -0.019 C 
ATOM      6  C   UNL     1     -34.732  26.182   0.922  0.00  0.00    -0.020 C 
ATOM      7  C   UNL     1     -33.312  25.691   2.816  0.00  0.00    +0.036 C 
ATOM      8  C   UNL     1     -33.582  26.459   0.163  0.00  0.00    +0.036 C 
ATOM      9  C   UNL     1     -32.178  25.984   2.057  0.00  0.00    +0.167 C 
ATOM     10  C   UNL     1     -32.313  26.358   0.727  0.00  0.00    +0.172 C 
ENDROOT
BRANCH   3  11
ATOM     11  C   UNL     1     -35.646  24.110   3.877  0.00  0.00    -0.015 C 
ATOM     12  C   UNL     1     -35.642  22.910   3.178  0.00  0.00    +0.036 C 
ATOM     13  C   UNL     1     -35.497  24.132   5.257  0.00  0.00    -0.001 C 
ATOM     14  C   UNL     1     -35.483  21.711   3.871  0.00  0.00    +0.172 C 
ATOM     15  C   UNL     1     -35.339  22.933   5.950  0.00  0.00    +0.039 C 
ATOM     16  C   UNL     1     -35.332  21.721   5.258  0.00  0.00    +0.168 C 
BRANCH  14  17
ATOM     17  O   UNL     1     -35.478  20.534   3.185  0.00  0.00    -0.468 OA
ATOM     18  C   UNL     1     -36.288  20.465   2.012  0.00  0.00    +0.253 C 
ENDBRANCH  14  17
BRANCH  16  19
ATOM     19  O   UNL     1     -35.176  20.557   5.946  0.00  0.00    -0.503 OA
ATOM     20  H   UNL     1     -35.851  19.907   5.927  0.00  0.00    +0.292 HD
ENDBRANCH  16  19
ENDBRANCH   3  11
BRANCH   2  21
ATOM     21  O   UNL     1     -37.068  27.819   1.903  0.00  0.00    -0.384 OA
ATOM     22  H   UNL     1     -37.742  28.431   1.569  0.00  0.00    +0.210 HD
ENDBRANCH   2  21
BRANCH  10  23
ATOM     23  O   UNL     1     -31.217  26.640  -0.032  0.00  0.00    -0.468 OA
ATOM     24  C   UNL     1     -30.775  25.626  -0.932  0.00  0.00    +0.253 C 
ENDBRANCH  10  23
BRANCH   9  25
ATOM     25  O   UNL     1     -30.947  25.898   2.633  0.00  0.00    -0.503 OA
ATOM     26  H   UNL     1     -30.511  26.675   2.926  0.00  0.00    +0.292 HD
ENDBRANCH   9  25
BRANCH   1  27
ATOM     27  C   UNL     1     -38.350  25.538   3.343  0.00  0.00    +0.140 C 
BRANCH  27  28
ATOM     28  O   UNL     1     -39.034  24.304   3.354  0.00  0.00    -0.382 OA
ATOM     29  H   UNL     1     -39.911  24.417   2.953  0.00  0.00    +0.210 HD
ENDBRANCH  27  28
ENDBRANCH   1  27
BRANCH   2  30
ATOM     30  C   UNL     1     -38.555  26.577   0.503  0.00  0.00    +0.164 C 
BRANCH  30  31
ATOM     31  O   UNL     1     -39.162  27.834   0.725  0.00  0.00    -0.380 OA
ATOM     32  H   UNL     1     -39.930  27.724   1.306  0.00  0.00    +0.211 HD
ENDBRANCH  30  31
ENDBRANCH   2  30
TORSDOF 10
ENDMDL
MODEL 3
REMARK VINA RESULT:      -5.8      2.813      5.811
REMARK  Name = 5316262
REMARK  10 active torsions:
REMARK  status: ('A' for Active; 'I' for Inactive)
REMARK    1  A    between atoms: C_1  and  C_27
REMARK    2  A    between atoms: C_2  and  O_21
REMARK    3  A    between atoms: C_2  and  C_30
REMARK    4  A    between atoms: C_3  and  C_11
REMARK    5  A    between atoms: C_9  and  O_25
REMARK    6  A    between atoms: C_10  and  O_23
REMARK    7  A    between atoms: C_14  and  O_17
REMARK    8  A    between atoms: C_16  and  O_19
REMARK    9  A    between atoms: C_27  and  O_28
REMARK   10  A    between atoms: C_30  and  O_31
REMARK                            x       y       z     vdW  Elec       q    Type
REMARK                         _______ _______ _______ _____ _____    ______ ____
ROOT
ATOM      1  C   UNL     1     -36.951  20.855   0.214  0.00  0.00    +0.065 C 
ATOM      2  C   UNL     1     -38.310  21.505   0.580  0.00  0.00    +0.122 C 
ATOM      3  C   UNL     1     -36.069  20.614   1.486  0.00  0.00    +0.049 C 
ATOM      4  C   UNL     1     -38.063  22.849   1.285  0.00  0.00    +0.056 C 
ATOM      5  C   UNL     1     -36.175  21.707   2.548  0.00  0.00    -0.019 C 
ATOM      6  C   UNL     1     -37.112  22.748   2.448  0.00  0.00    -0.020 C 
ATOM      7  C   UNL     1     -35.357  21.647   3.695  0.00  0.00    +0.036 C 
ATOM      8  C   UNL     1     -37.161  23.741   3.442  0.00  0.00    +0.036 C 
ATOM      9  C   UNL     1     -35.427  22.630   4.684  0.00  0.00    +0.167 C 
ATOM     10  C   UNL     1     -36.322  23.683   4.552  0.00  0.00    +0.172 C 
ENDROOT
BRANCH   3  11
ATOM     11  C   UNL     1     -34.619  20.346   1.080  0.00  0.00    -0.015 C 
ATOM     12  C   UNL     1     -34.046  19.112   1.362  0.00  0.00    +0.036 C 
ATOM     13  C   UNL     1     -33.892  21.339   0.438  0.00  0.00    -0.001 C 
ATOM     14  C   UNL     1     -32.724  18.868   0.992  0.00  0.00    +0.172 C 
ATOM     15  C   UNL     1     -32.571  21.095   0.069  0.00  0.00    +0.039 C 
ATOM     16  C   UNL     1     -31.985  19.860   0.346  0.00  0.00    +0.168 C 
BRANCH  14  17
ATOM     17  O   UNL     1     -32.163  17.658   1.267  0.00  0.00    -0.468 OA
ATOM     18  C   UNL     1     -32.409  16.604   0.336  0.00  0.00    +0.253 C 
ENDBRANCH  14  17
BRANCH  16  19
ATOM     19  O   UNL     1     -30.694  19.632  -0.021  0.00  0.00    -0.503 OA
ATOM     20  H   UNL     1     -30.110  20.354  -0.154  0.00  0.00    +0.292 HD
ENDBRANCH  16  19
ENDBRANCH   3  11
BRANCH   2  21
ATOM     21  O   UNL     1     -39.028  20.637   1.464  0.00  0.00    -0.384 OA
ATOM     22  H   UNL     1     -38.854  19.714   1.223  0.00  0.00    +0.210 HD
ENDBRANCH   2  21
BRANCH  10  23
ATOM     23  O   UNL     1     -36.398  24.654   5.503  0.00  0.00    -0.468 OA
ATOM     24  C   UNL     1     -35.803  25.913   5.192  0.00  0.00    +0.253 C 
ENDBRANCH  10  23
BRANCH   9  25
ATOM     25  O   UNL     1     -34.610  22.544   5.770  0.00  0.00    -0.503 OA
ATOM     26  H   UNL     1     -33.877  21.960   5.761  0.00  0.00    +0.292 HD
ENDBRANCH   9  25
BRANCH   1  27
ATOM     27  C   UNL     1     -37.128  19.535  -0.558  0.00  0.00    +0.140 C 
BRANCH  27  28
ATOM     28  O   UNL     1     -37.470  18.529   0.370  0.00  0.00    -0.382 OA
ATOM     29  H   UNL     1     -38.421  18.348   0.315  0.00  0.00    +0.210 HD
ENDBRANCH  27  28
ENDBRANCH   1  27
BRANCH   2  30
ATOM     30  C   UNL     1     -39.200  21.745  -0.647  0.00  0.00    +0.164 C 
BRANCH  30  31
ATOM     31  O   UNL     1     -40.450  21.127  -0.413  0.00  0.00    -0.380 OA
ATOM     32  H   UNL     1     -41.148  21.629  -0.860  0.00  0.00    +0.211 HD
ENDBRANCH  30  31
ENDBRANCH   2  30
TORSDOF 10
ENDMDL
MODEL 4
REMARK VINA RESULT:      -5.8      2.322      6.821
REMARK  Name = 5316262
REMARK  10 active torsions:
REMARK  status: ('A' for Active; 'I' for Inactive)
REMARK    1  A    between atoms: C_1  and  C_27
REMARK    2  A    between atoms: C_2  and  O_21
REMARK    3  A    between atoms: C_2  and  C_30
REMARK    4  A    between atoms: C_3  and  C_11
REMARK    5  A    between atoms: C_9  and  O_25
REMARK    6  A    between atoms: C_10  and  O_23
REMARK    7  A    between atoms: C_14  and  O_17
REMARK    8  A    between atoms: C_16  and  O_19
REMARK    9  A    between atoms: C_27  and  O_28
REMARK   10  A    between atoms: C_30  and  O_31
REMARK                            x       y       z     vdW  Elec       q    Type
REMARK                         _______ _______ _______ _____ _____    ______ ____
ROOT
ATOM      1  C   UNL     1     -36.143  26.006   2.266  0.00  0.00    +0.065 C 
ATOM      2  C   UNL     1     -35.872  27.378   1.596  0.00  0.00    +0.122 C 
ATOM      3  C   UNL     1     -35.616  25.974   3.741  0.00  0.00    +0.049 C 
ATOM      4  C   UNL     1     -34.360  27.661   1.599  0.00  0.00    +0.056 C 
ATOM      5  C   UNL     1     -34.309  26.731   3.965  0.00  0.00    -0.019 C 
ATOM      6  C   UNL     1     -33.728  27.520   2.959  0.00  0.00    -0.020 C 
ATOM      7  C   UNL     1     -33.688  26.694   5.230  0.00  0.00    +0.036 C 
ATOM      8  C   UNL     1     -32.514  28.185   3.206  0.00  0.00    +0.036 C 
ATOM      9  C   UNL     1     -32.492  27.372   5.469  0.00  0.00    +0.167 C 
ATOM     10  C   UNL     1     -31.900  28.110   4.453  0.00  0.00    +0.172 C 
ENDROOT
BRANCH   3  11
ATOM     11  C   UNL     1     -35.538  24.531   4.243  0.00  0.00    -0.015 C 
ATOM     12  C   UNL     1     -35.411  23.494   3.328  0.00  0.00    +0.036 C 
ATOM     13  C   UNL     1     -35.598  24.276   5.606  0.00  0.00    -0.001 C 
ATOM     14  C   UNL     1     -35.340  22.179   3.784  0.00  0.00    +0.172 C 
ATOM     15  C   UNL     1     -35.528  22.960   6.063  0.00  0.00    +0.039 C 
ATOM     16  C   UNL     1     -35.399  21.911   5.152  0.00  0.00    +0.168 C 
BRANCH  14  17
ATOM     17  O   UNL     1     -35.214  21.163   2.886  0.00  0.00    -0.468 OA
ATOM     18  C   UNL     1     -36.395  20.760   2.194  0.00  0.00    +0.253 C 
ENDBRANCH  14  17
BRANCH  16  19
ATOM     19  O   UNL     1     -35.330  20.631   5.611  0.00  0.00    -0.503 OA
ATOM     20  H   UNL     1     -34.753  20.416   6.318  0.00  0.00    +0.292 HD
ENDBRANCH  16  19
ENDBRANCH   3  11
BRANCH   2  21
ATOM     21  O   UNL     1     -36.542  28.407   2.333  0.00  0.00    -0.384 OA
ATOM     22  H   UNL     1     -35.894  29.063   2.634  0.00  0.00    +0.210 HD
ENDBRANCH   2  21
BRANCH  10  23
ATOM     23  O   UNL     1     -30.728  28.771   4.665  0.00  0.00    -0.468 OA
ATOM     24  C   UNL     1     -29.566  28.253   4.020  0.00  0.00    +0.253 C 
ENDBRANCH  10  23
BRANCH   9  25
ATOM     25  O   UNL     1     -31.917  27.300   6.702  0.00  0.00    -0.503 OA
ATOM     26  H   UNL     1     -31.279  27.937   6.959  0.00  0.00    +0.292 HD
ENDBRANCH   9  25
BRANCH   1  27
ATOM     27  C   UNL     1     -37.636  25.630   2.235  0.00  0.00    +0.140 C 
BRANCH  27  28
ATOM     28  O   UNL     1     -38.296  26.384   3.228  0.00  0.00    -0.382 OA
ATOM     29  H   UNL     1     -37.648  26.709   3.871  0.00  0.00    +0.210 HD
ENDBRANCH  27  28
ENDBRANCH   1  27
BRANCH   2  30
ATOM     30  C   UNL     1     -36.385  27.443   0.152  0.00  0.00    +0.164 C 
BRANCH  30  31
ATOM     31  O   UNL     1     -36.138  28.742  -0.346  0.00  0.00    -0.380 OA
ATOM     32  H   UNL     1     -36.971  29.236  -0.392  0.00  0.00    +0.211 HD
ENDBRANCH  30  31
ENDBRANCH   2  30
TORSDOF 10
ENDMDL
MODEL 5
REMARK VINA RESULT:      -5.8      2.771      5.241
REMARK  Name = 5316262
REMARK  10 active torsions:
REMARK  status: ('A' for Active; 'I' for Inactive)
REMARK    1  A    between atoms: C_1  and  C_27
REMARK    2  A    between atoms: C_2  and  O_21
REMARK    3  A    between atoms: C_2  and  C_30
REMARK    4  A    between atoms: C_3  and  C_11
REMARK    5  A    between atoms: C_9  and  O_25
REMARK    6  A    between atoms: C_10  and  O_23
REMARK    7  A    between atoms: C_14  and  O_17
REMARK    8  A    between atoms: C_16  and  O_19
REMARK    9  A    between atoms: C_27  and  O_28
REMARK   10  A    between atoms: C_30  and  O_31
REMARK                            x       y       z     vdW  Elec       q    Type
REMARK                         _______ _______ _______ _____ _____    ______ ____
ROOT
ATOM      1  C   UNL     1     -37.006  20.778   0.324  0.00  0.00    +0.065 C 
ATOM      2  C   UNL     1     -38.371  21.428   0.668  0.00  0.00    +0.122 C 
ATOM      3  C   UNL     1     -36.088  20.668   1.589  0.00  0.00    +0.049 C 
ATOM      4  C   UNL     1     -38.138  22.835   1.246  0.00  0.00    +0.056 C 
ATOM      5  C   UNL     1     -36.194  21.848   2.554  0.00  0.00    -0.019 C 
ATOM      6  C   UNL     1     -37.157  22.856   2.388  0.00  0.00    -0.020 C 
ATOM      7  C   UNL     1     -35.347  21.906   3.679  0.00  0.00    +0.036 C 
ATOM      8  C   UNL     1     -37.204  23.931   3.292  0.00  0.00    +0.036 C 
ATOM      9  C   UNL     1     -35.415  22.970   4.580  0.00  0.00    +0.167 C 
ATOM     10  C   UNL     1     -36.337  23.988   4.381  0.00  0.00    +0.172 C 
ENDROOT
BRANCH   3  11
ATOM     11  C   UNL     1     -34.643  20.396   1.170  0.00  0.00    -0.015 C 
ATOM     12  C   UNL     1     -33.954  21.346   0.427  0.00  0.00    +0.036 C 
ATOM     13  C   UNL     1     -34.037  19.201   1.536  0.00  0.00    -0.001 C 
ATOM     14  C   UNL     1     -32.637  21.098   0.044  0.00  0.00    +0.172 C 
ATOM     15  C   UNL     1     -32.720  18.952   1.153  0.00  0.00    +0.039 C 
ATOM     16  C   UNL     1     -32.019  19.900   0.407  0.00  0.00    +0.168 C 
BRANCH  14  17
ATOM     17  O   UNL     1     -31.962  22.030  -0.683  0.00  0.00    -0.468 OA
ATOM     18  C   UNL     1     -32.411  23.381  -0.579  0.00  0.00    +0.253 C 
ENDBRANCH  14  17
BRANCH  16  19
ATOM     19  O   UNL     1     -30.732  19.647   0.040  0.00  0.00    -0.503 OA
ATOM     20  H   UNL     1     -30.540  18.928  -0.530  0.00  0.00    +0.292 HD
ENDBRANCH  16  19
ENDBRANCH   3  11
BRANCH   2  21
ATOM     21  O   UNL     1     -39.046  20.627   1.643  0.00  0.00    -0.384 OA
ATOM     22  H   UNL     1     -39.140  19.721   1.309  0.00  0.00    +0.210 HD
ENDBRANCH   2  21
BRANCH  10  23
ATOM     23  O   UNL     1     -36.413  25.038   5.245  0.00  0.00    -0.468 OA
ATOM     24  C   UNL     1     -35.711  26.226   4.883  0.00  0.00    +0.253 C 
ENDBRANCH  10  23
BRANCH   9  25
ATOM     25  O   UNL     1     -34.570  22.997   5.648  0.00  0.00    -0.503 OA
ATOM     26  H   UNL     1     -34.476  22.239   6.191  0.00  0.00    +0.292 HD
ENDBRANCH   9  25
BRANCH   1  27
ATOM     27  C   UNL     1     -37.171  19.391  -0.325  0.00  0.00    +0.140 C 
BRANCH  27  28
ATOM     28  O   UNL     1     -37.346  18.445   0.707  0.00  0.00    -0.382 OA
ATOM     29  H   UNL     1     -37.653  18.895   1.510  0.00  0.00    +0.210 HD
ENDBRANCH  27  28
ENDBRANCH   1  27
BRANCH   2  30
ATOM     30  C   UNL     1     -39.296  21.541  -0.551  0.00  0.00    +0.164 C 
BRANCH  30  31
ATOM     31  O   UNL     1     -40.436  20.739  -0.315  0.00  0.00    -0.380 OA
ATOM     32  H   UNL     1     -40.886  21.043   0.488  0.00  0.00    +0.211 HD
ENDBRANCH  30  31
ENDBRANCH   2  30
TORSDOF 10
ENDMDL
MODEL 6
REMARK VINA RESULT:      -5.7      2.165      2.392
REMARK  Name = 5316262
REMARK  10 active torsions:
REMARK  status: ('A' for Active; 'I' for Inactive)
REMARK    1  A    between atoms: C_1  and  C_27
REMARK    2  A    between atoms: C_2  and  O_21
REMARK    3  A    between atoms: C_2  and  C_30
REMARK    4  A    between atoms: C_3  and  C_11
REMARK    5  A    between atoms: C_9  and  O_25
REMARK    6  A    between atoms: C_10  and  O_23
REMARK    7  A    between atoms: C_14  and  O_17
REMARK    8  A    between atoms: C_16  and  O_19
REMARK    9  A    between atoms: C_27  and  O_28
REMARK   10  A    between atoms: C_30  and  O_31
REMARK                            x       y       z     vdW  Elec       q    Type
REMARK                         _______ _______ _______ _____ _____    ______ ____
ROOT
ATOM      1  C   UNL     1     -35.225  22.914   3.625  0.00  0.00    +0.065 C 
ATOM      2  C   UNL     1     -36.107  22.024   2.712  0.00  0.00    +0.122 C 
ATOM      3  C   UNL     1     -35.796  24.369   3.735  0.00  0.00    +0.049 C 
ATOM      4  C   UNL     1     -36.180  22.645   1.307  0.00  0.00    +0.056 C 
ATOM      5  C   UNL     1     -36.413  24.907   2.445  0.00  0.00    -0.019 C 
ATOM      6  C   UNL     1     -36.591  24.094   1.314  0.00  0.00    -0.020 C 
ATOM      7  C   UNL     1     -36.875  26.238   2.394  0.00  0.00    +0.036 C 
ATOM      8  C   UNL     1     -37.147  24.638   0.143  0.00  0.00    +0.036 C 
ATOM      9  C   UNL     1     -37.441  26.762   1.232  0.00  0.00    +0.167 C 
ATOM     10  C   UNL     1     -37.568  25.965   0.102  0.00  0.00    +0.172 C 
ENDROOT
BRANCH   3  11
ATOM     11  C   UNL     1     -34.734  25.312   4.302  0.00  0.00    -0.015 C 
ATOM     12  C   UNL     1     -33.738  25.802   3.467  0.00  0.00    +0.036 C 
ATOM     13  C   UNL     1     -34.778  25.666   5.644  0.00  0.00    -0.001 C 
ATOM     14  C   UNL     1     -32.770  26.662   3.984  0.00  0.00    +0.172 C 
ATOM     15  C   UNL     1     -33.809  26.525   6.160  0.00  0.00    +0.039 C 
ATOM     16  C   UNL     1     -32.804  27.023   5.331  0.00  0.00    +0.168 C 
BRANCH  14  17
ATOM     17  O   UNL     1     -31.794  27.143   3.164  0.00  0.00    -0.468 OA
ATOM     18  C   UNL     1     -31.428  26.333   2.048  0.00  0.00    +0.253 C 
ENDBRANCH  14  17
BRANCH  16  19
ATOM     19  O   UNL     1     -31.865  27.863   5.847  0.00  0.00    -0.503 OA
ATOM     20  H   UNL     1     -31.664  27.837   6.762  0.00  0.00    +0.292 HD
ENDBRANCH  16  19
ENDBRANCH   3  11
BRANCH   2  21
ATOM     21  O   UNL     1     -37.428  21.946   3.259  0.00  0.00    -0.384 OA
ATOM     22  H   UNL     1     -37.966  22.674   2.910  0.00  0.00    +0.210 HD
ENDBRANCH   2  21
BRANCH  10  23
ATOM     23  O   UNL     1     -38.111  26.462  -1.043  0.00  0.00    -0.468 OA
ATOM     24  C   UNL     1     -37.210  26.783  -2.101  0.00  0.00    +0.253 C 
ENDBRANCH  10  23
BRANCH   9  25
ATOM     25  O   UNL     1     -37.863  28.057   1.219  0.00  0.00    -0.503 OA
ATOM     26  H   UNL     1     -37.265  28.743   0.996  0.00  0.00    +0.292 HD
ENDBRANCH   9  25
BRANCH   1  27
ATOM     27  C   UNL     1     -35.053  22.312   5.032  0.00  0.00    +0.140 C 
BRANCH  27  28
ATOM     28  O   UNL     1     -36.290  22.417   5.705  0.00  0.00    -0.382 OA
ATOM     29  H   UNL     1     -36.132  22.536   6.654  0.00  0.00    +0.210 HD
ENDBRANCH  27  28
ENDBRANCH   1  27
BRANCH   2  30
ATOM     30  C   UNL     1     -35.576  20.589   2.593  0.00  0.00    +0.164 C 
BRANCH  30  31
ATOM     31  O   UNL     1     -36.682  19.709   2.587  0.00  0.00    -0.380 OA
ATOM     32  H   UNL     1     -37.339  20.020   1.945  0.00  0.00    +0.211 HD
ENDBRANCH  30  31
ENDBRANCH   2  30
TORSDOF 10
ENDMDL
MODEL 7
REMARK VINA RESULT:      -5.7      1.623      2.611
REMARK  Name = 5316262
REMARK  10 active torsions:
REMARK  status: ('A' for Active; 'I' for Inactive)
REMARK    1  A    between atoms: C_1  and  C_27
REMARK    2  A    between atoms: C_2  and  O_21
REMARK    3  A    between atoms: C_2  and  C_30
REMARK    4  A    between atoms: C_3  and  C_11
REMARK    5  A    between atoms: C_9  and  O_25
REMARK    6  A    between atoms: C_10  and  O_23
REMARK    7  A    between atoms: C_14  and  O_17
REMARK    8  A    between atoms: C_16  and  O_19
REMARK    9  A    between atoms: C_27  and  O_28
REMARK   10  A    between atoms: C_30  and  O_31
REMARK                            x       y       z     vdW  Elec       q    Type
REMARK                         _______ _______ _______ _____ _____    ______ ____
ROOT
ATOM      1  C   UNL     1     -37.309  21.634   0.946  0.00  0.00    +0.065 C 
ATOM      2  C   UNL     1     -38.528  21.222   0.082  0.00  0.00    +0.122 C 
ATOM      3  C   UNL     1     -37.749  22.457   2.205  0.00  0.00    +0.049 C 
ATOM      4  C   UNL     1     -39.281  22.482  -0.378  0.00  0.00    +0.056 C 
ATOM      5  C   UNL     1     -38.918  23.409   1.962  0.00  0.00    -0.019 C 
ATOM      6  C   UNL     1     -39.631  23.414   0.752  0.00  0.00    -0.020 C 
ATOM      7  C   UNL     1     -39.342  24.271   2.994  0.00  0.00    +0.036 C 
ATOM      8  C   UNL     1     -40.690  24.321   0.569  0.00  0.00    +0.036 C 
ATOM      9  C   UNL     1     -40.405  25.155   2.807  0.00  0.00    +0.167 C 
ATOM     10  C   UNL     1     -41.073  25.187   1.590  0.00  0.00    +0.172 C 
ENDROOT
BRANCH   3  11
ATOM     11  C   UNL     1     -36.543  23.171   2.817  0.00  0.00    -0.015 C 
ATOM     12  C   UNL     1     -36.184  22.904   4.131  0.00  0.00    +0.036 C 
ATOM     13  C   UNL     1     -35.824  24.079   2.051  0.00  0.00    -0.001 C 
ATOM     14  C   UNL     1     -35.085  23.556   4.690  0.00  0.00    +0.172 C 
ATOM     15  C   UNL     1     -34.725  24.731   2.609  0.00  0.00    +0.039 C 
ATOM     16  C   UNL     1     -34.355  24.470   3.929  0.00  0.00    +0.168 C 
BRANCH  14  17
ATOM     17  O   UNL     1     -34.732  23.293   5.979  0.00  0.00    -0.468 OA
ATOM     18  C   UNL     1     -35.233  22.086   6.553  0.00  0.00    +0.253 C 
ENDBRANCH  14  17
BRANCH  16  19
ATOM     19  O   UNL     1     -33.279  25.111   4.463  0.00  0.00    -0.503 OA
ATOM     20  H   UNL     1     -33.000  25.933   4.109  0.00  0.00    +0.292 HD
ENDBRANCH  16  19
ENDBRANCH   3  11
BRANCH   2  21
ATOM     21  O   UNL     1     -39.410  20.408   0.863  0.00  0.00    -0.384 OA
ATOM     22  H   UNL     1     -39.791  19.713   0.302  0.00  0.00    +0.210 HD
ENDBRANCH   2  21
BRANCH  10  23
ATOM     23  O   UNL     1     -42.108  26.049   1.386  0.00  0.00    -0.468 OA
ATOM     24  C   UNL     1     -41.824  27.240   0.655  0.00  0.00    +0.253 C 
ENDBRANCH  10  23
BRANCH   9  25
ATOM     25  O   UNL     1     -40.776  25.981   3.824  0.00  0.00    -0.503 OA
ATOM     26  H   UNL     1     -40.397  26.835   3.897  0.00  0.00    +0.292 HD
ENDBRANCH   9  25
BRANCH   1  27
ATOM     27  C   UNL     1     -36.470  20.419   1.383  0.00  0.00    +0.140 C 
BRANCH  27  28
ATOM     28  O   UNL     1     -37.092  19.842   2.511  0.00  0.00    -0.382 OA
ATOM     29  H   UNL     1     -36.716  18.962   2.672  0.00  0.00    +0.210 HD
ENDBRANCH  27  28
ENDBRANCH   1  27
BRANCH   2  30
ATOM     30  C   UNL     1     -38.128  20.406  -1.155  0.00  0.00    +0.164 C 
BRANCH  30  31
ATOM     31  O   UNL     1     -38.777  19.152  -1.084  0.00  0.00    -0.380 OA
ATOM     32  H   UNL     1     -38.243  18.485  -1.542  0.00  0.00    +0.211 HD
ENDBRANCH  30  31
ENDBRANCH   2  30
TORSDOF 10
ENDMDL
MODEL 8
REMARK VINA RESULT:      -5.4      2.023      7.174
REMARK  Name = 5316262
REMARK  10 active torsions:
REMARK  status: ('A' for Active; 'I' for Inactive)
REMARK    1  A    between atoms: C_1  and  C_27
REMARK    2  A    between atoms: C_2  and  O_21
REMARK    3  A    between atoms: C_2  and  C_30
REMARK    4  A    between atoms: C_3  and  C_11
REMARK    5  A    between atoms: C_9  and  O_25
REMARK    6  A    between atoms: C_10  and  O_23
REMARK    7  A    between atoms: C_14  and  O_17
REMARK    8  A    between atoms: C_16  and  O_19
REMARK    9  A    between atoms: C_27  and  O_28
REMARK   10  A    between atoms: C_30  and  O_31
REMARK                            x       y       z     vdW  Elec       q    Type
REMARK                         _______ _______ _______ _____ _____    ______ ____
ROOT
ATOM      1  C   UNL     1     -37.683  24.944   2.532  0.00  0.00    +0.065 C 
ATOM      2  C   UNL     1     -36.529  24.859   3.564  0.00  0.00    +0.122 C 
ATOM      3  C   UNL     1     -38.220  23.522   2.154  0.00  0.00    +0.049 C 
ATOM      4  C   UNL     1     -35.377  24.024   2.978  0.00  0.00    +0.056 C 
ATOM      5  C   UNL     1     -37.145  22.440   2.067  0.00  0.00    -0.019 C 
ATOM      6  C   UNL     1     -35.818  22.682   2.457  0.00  0.00    -0.020 C 
ATOM      7  C   UNL     1     -37.494  21.142   1.643  0.00  0.00    +0.036 C 
ATOM      8  C   UNL     1     -34.860  21.660   2.343  0.00  0.00    +0.036 C 
ATOM      9  C   UNL     1     -36.537  20.130   1.550  0.00  0.00    +0.167 C 
ATOM     10  C   UNL     1     -35.217  20.392   1.891  0.00  0.00    +0.172 C 
ENDROOT
BRANCH   3  11
ATOM     11  C   UNL     1     -39.064  23.597   0.880  0.00  0.00    -0.015 C 
ATOM     12  C   UNL     1     -40.433  23.378   0.951  0.00  0.00    +0.036 C 
ATOM     13  C   UNL     1     -38.449  23.882  -0.332  0.00  0.00    -0.001 C 
ATOM     14  C   UNL     1     -41.202  23.446  -0.210  0.00  0.00    +0.172 C 
ATOM     15  C   UNL     1     -39.218  23.950  -1.493  0.00  0.00    +0.039 C 
ATOM     16  C   UNL     1     -40.595  23.732  -1.433  0.00  0.00    +0.168 C 
BRANCH  14  17
ATOM     17  O   UNL     1     -42.545  23.232  -0.139  0.00  0.00    -0.468 OA
ATOM     18  C   UNL     1     -43.361  24.350   0.208  0.00  0.00    +0.253 C 
ENDBRANCH  14  17
BRANCH  16  19
ATOM     19  O   UNL     1     -41.335  23.802  -2.574  0.00  0.00    -0.503 OA
ATOM     20  H   UNL     1     -42.195  23.431  -2.598  0.00  0.00    +0.292 HD
ENDBRANCH  16  19
ENDBRANCH   3  11
BRANCH   2  21
ATOM     21  O   UNL     1     -37.005  24.229   4.758  0.00  0.00    -0.384 OA
ATOM     22  H   UNL     1     -37.922  24.498   4.922  0.00  0.00    +0.210 HD
ENDBRANCH   2  21
BRANCH  10  23
ATOM     23  O   UNL     1     -34.268  19.420   1.799  0.00  0.00    -0.468 OA
ATOM     24  C   UNL     1     -33.252  19.598   0.815  0.00  0.00    +0.253 C 
ENDBRANCH  10  23
BRANCH   9  25
ATOM     25  O   UNL     1     -36.912  18.892   1.123  0.00  0.00    -0.503 OA
ATOM     26  H   UNL     1     -36.276  18.207   1.057  0.00  0.00    +0.292 HD
ENDBRANCH   9  25
BRANCH   1  27
ATOM     27  C   UNL     1     -38.843  25.826   3.029  0.00  0.00    +0.140 C 
BRANCH  27  28
ATOM     28  O   UNL     1     -39.567  25.092   3.993  0.00  0.00    -0.382 OA
ATOM     29  H   UNL     1     -39.591  25.588   4.826  0.00  0.00    +0.210 HD
ENDBRANCH  27  28
ENDBRANCH   1  27
BRANCH   2  30
ATOM     30  C   UNL     1     -35.988  26.239   3.960  0.00  0.00    +0.164 C 
BRANCH  30  31
ATOM     31  O   UNL     1     -36.406  26.514   5.282  0.00  0.00    -0.380 OA
ATOM     32  H   UNL     1     -37.287  26.135   5.428  0.00  0.00    +0.211 HD
ENDBRANCH  30  31
ENDBRANCH   2  30
TORSDOF 10
ENDMDL
MODEL 9
REMARK VINA RESULT:      -5.4      2.362      5.726
REMARK  Name = 5316262
REMARK  10 active torsions:
REMARK  status: ('A' for Active; 'I' for Inactive)
REMARK    1  A    between atoms: C_1  and  C_27
REMARK    2  A    between atoms: C_2  and  O_21
REMARK    3  A    between atoms: C_2  and  C_30
REMARK    4  A    between atoms: C_3  and  C_11
REMARK    5  A    between atoms: C_9  and  O_25
REMARK    6  A    between atoms: C_10  and  O_23
REMARK    7  A    between atoms: C_14  and  O_17
REMARK    8  A    between atoms: C_16  and  O_19
REMARK    9  A    between atoms: C_27  and  O_28
REMARK   10  A    between atoms: C_30  and  O_31
REMARK                            x       y       z     vdW  Elec       q    Type
REMARK                         _______ _______ _______ _____ _____    ______ ____
ROOT
ATOM      1  C   UNL     1     -37.599  22.542   1.428  0.00  0.00    +0.065 C 
ATOM      2  C   UNL     1     -38.227  21.461   0.510  0.00  0.00    +0.122 C 
ATOM      3  C   UNL     1     -36.061  22.691   1.170  0.00  0.00    +0.049 C 
ATOM      4  C   UNL     1     -37.540  20.109   0.766  0.00  0.00    +0.056 C 
ATOM      5  C   UNL     1     -35.339  21.379   0.867  0.00  0.00    -0.019 C 
ATOM      6  C   UNL     1     -36.038  20.176   0.678  0.00  0.00    -0.020 C 
ATOM      7  C   UNL     1     -33.938  21.373   0.712  0.00  0.00    +0.036 C 
ATOM      8  C   UNL     1     -35.329  18.990   0.417  0.00  0.00    +0.036 C 
ATOM      9  C   UNL     1     -33.246  20.192   0.437  0.00  0.00    +0.167 C 
ATOM     10  C   UNL     1     -33.941  18.998   0.299  0.00  0.00    +0.172 C 
ENDROOT
BRANCH   3  11
ATOM     11  C   UNL     1     -35.404  23.455   2.321  0.00  0.00    -0.015 C 
ATOM     12  C   UNL     1     -35.556  22.996   3.623  0.00  0.00    +0.036 C 
ATOM     13  C   UNL     1     -34.666  24.600   2.050  0.00  0.00    -0.001 C 
ATOM     14  C   UNL     1     -34.958  23.694   4.672  0.00  0.00    +0.172 C 
ATOM     15  C   UNL     1     -34.069  25.297   3.098  0.00  0.00    +0.039 C 
ATOM     16  C   UNL     1     -34.214  24.845   4.410  0.00  0.00    +0.168 C 
BRANCH  14  17
ATOM     17  O   UNL     1     -35.106  23.242   5.948  0.00  0.00    -0.468 OA
ATOM     18  C   UNL     1     -35.314  21.841   6.119  0.00  0.00    +0.253 C 
ENDBRANCH  14  17
BRANCH  16  19
ATOM     19  O   UNL     1     -33.625  25.534   5.426  0.00  0.00    -0.503 OA
ATOM     20  H   UNL     1     -33.280  26.392   5.273  0.00  0.00    +0.292 HD
ENDBRANCH  16  19
ENDBRANCH   3  11
BRANCH   2  21
ATOM     21  O   UNL     1     -38.035  21.832  -0.859  0.00  0.00    -0.384 OA
ATOM     22  H   UNL     1     -38.892  22.057  -1.256  0.00  0.00    +0.210 HD
ENDBRANCH   2  21
BRANCH  10  23
ATOM     23  O   UNL     1     -33.283  17.835   0.038  0.00  0.00    -0.468 OA
ATOM     24  C   UNL     1     -34.070  16.649  -0.040  0.00  0.00    +0.253 C 
ENDBRANCH  10  23
BRANCH   9  25
ATOM     25  O   UNL     1     -31.891  20.226   0.307  0.00  0.00    -0.503 OA
ATOM     26  H   UNL     1     -31.491  19.981  -0.505  0.00  0.00    +0.292 HD
ENDBRANCH   9  25
BRANCH   1  27
ATOM     27  C   UNL     1     -38.290  23.909   1.271  0.00  0.00    +0.140 C 
BRANCH  27  28
ATOM     28  O   UNL     1     -39.030  24.162   2.446  0.00  0.00    -0.382 OA
ATOM     29  H   UNL     1     -39.113  25.119   2.576  0.00  0.00    +0.210 HD
ENDBRANCH  27  28
ENDBRANCH   1  27
BRANCH   2  30
ATOM     30  C   UNL     1     -39.736  21.300   0.734  0.00  0.00    +0.164 C 
BRANCH  30  31
ATOM     31  O   UNL     1     -39.956  21.067   2.110  0.00  0.00    -0.380 OA
ATOM     32  H   UNL     1     -39.250  21.486   2.626  0.00  0.00    +0.211 HD
ENDBRANCH  30  31
ENDBRANCH   2  30
TORSDOF 10
ENDMDL
