MODEL 1
REMARK VINA RESULT:      -5.4      0.000      0.000
REMARK  Name = 5281976
REMARK  10 active torsions:
REMARK  status: ('A' for Active; 'I' for Inactive)
REMARK    1  A    between atoms: P_1  and  O_3
REMARK    2  A    between atoms: P_1  and  O_5
REMARK    3  A    between atoms: P_1  and  O_13
REMARK    4  A    between atoms: O_5  and  C_6
REMARK    5  A    between atoms: C_6  and  C_8
REMARK    6  A    between atoms: C_7  and  C_10
REMARK    7  A    between atoms: C_10  and  O_11
REMARK    8  A    between atoms: O_13  and  P_14
REMARK    9  A    between atoms: P_14  and  O_16
REMARK   10  A    between atoms: P_14  and  O_18
REMARK                            x       y       z     vdW  Elec       q    Type
REMARK                         _______ _______ _______ _____ _____    ______ ____
ROOT
ATOM      1  P   UNL     1     -33.469  27.152   4.022  0.00  0.00    +0.484 P 
ATOM      2  O   UNL     1     -33.304  26.283   2.810  0.00  0.00    -0.227 OA
ENDROOT
BRANCH   1   3
ATOM      3  O   UNL     1     -33.910  28.674   3.696  0.00  0.00    -0.302 OA
ATOM      4  H   UNL     1     -34.427  28.692   2.876  0.00  0.00    +0.222 HD
ENDBRANCH   1   3
BRANCH   1   5
ATOM      5  O   UNL     1     -34.572  26.628   5.081  0.00  0.00    -0.268 OA
BRANCH   5   6
ATOM      6  C   UNL     1     -35.478  25.598   4.707  0.00  0.00    +0.179 C 
BRANCH   6   8
ATOM      7  C   UNL     1     -35.518  23.131   5.377  0.00  0.00    -0.017 C 
ATOM      8  C   UNL     1     -35.276  24.433   5.623  0.00  0.00    +0.000 C 
ATOM      9  C   UNL     1     -36.061  22.704   4.037  0.00  0.00    +0.029 C 
BRANCH   7  10
ATOM     10  C   UNL     1     -35.264  22.006   6.344  0.00  0.00    +0.159 C 
BRANCH  10  11
ATOM     11  O   UNL     1     -35.285  20.769   5.644  0.00  0.00    -0.378 OA
ATOM     12  H   UNL     1     -35.772  20.877   4.812  0.00  0.00    +0.211 HD
ENDBRANCH  10  11
ENDBRANCH   7  10
ENDBRANCH   6   8
ENDBRANCH   5   6
ENDBRANCH   1   5
BRANCH   1  13
ATOM     13  O   UNL     1     -32.120  27.336   4.895  0.00  0.00    -0.186 OA
BRANCH  13  14
ATOM     14  P   UNL     1     -31.848  28.142   6.268  0.00  0.00    +0.481 P 
ATOM     15  O   UNL     1     -32.190  29.602   6.214  0.00  0.00    -0.227 OA
BRANCH  14  16
ATOM     16  O   UNL     1     -30.299  27.808   6.589  0.00  0.00    -0.302 OA
ATOM     17  H   UNL     1     -30.236  27.357   7.445  0.00  0.00    +0.222 HD
ENDBRANCH  14  16
BRANCH  14  18
ATOM     18  O   UNL     1     -32.657  27.283   7.373  0.00  0.00    -0.302 OA
ATOM     19  H   UNL     1     -32.030  26.894   8.001  0.00  0.00    +0.222 HD
ENDBRANCH  14  18
ENDBRANCH  13  14
ENDBRANCH   1  13
TORSDOF 10
ENDMDL
MODEL 2
REMARK VINA RESULT:      -5.0      2.919      4.264
REMARK  Name = 5281976
REMARK  10 active torsions:
REMARK  status: ('A' for Active; 'I' for Inactive)
REMARK    1  A    between atoms: P_1  and  O_3
REMARK    2  A    between atoms: P_1  and  O_5
REMARK    3  A    between atoms: P_1  and  O_13
REMARK    4  A    between atoms: O_5  and  C_6
REMARK    5  A    between atoms: C_6  and  C_8
REMARK    6  A    between atoms: C_7  and  C_10
REMARK    7  A    between atoms: C_10  and  O_11
REMARK    8  A    between atoms: O_13  and  P_14
REMARK    9  A    between atoms: P_14  and  O_16
REMARK   10  A    between atoms: P_14  and  O_18
REMARK                            x       y       z     vdW  Elec       q    Type
REMARK                         _______ _______ _______ _____ _____    ______ ____
ROOT
ATOM      1  P   UNL     1     -37.548  25.795   2.904  0.00  0.00    +0.484 P 
ATOM      2  O   UNL     1     -38.717  26.503   2.283  0.00  0.00    -0.227 OA
ENDROOT
BRANCH   1   3
ATOM      3  O   UNL     1     -37.378  26.054   4.492  0.00  0.00    -0.302 OA
ATOM      4  H   UNL     1     -37.883  25.388   4.984  0.00  0.00    +0.222 HD
ENDBRANCH   1   3
BRANCH   1   5
ATOM      5  O   UNL     1     -37.580  24.186   2.757  0.00  0.00    -0.268 OA
BRANCH   5   6
ATOM      6  C   UNL     1     -36.361  23.459   2.665  0.00  0.00    +0.179 C 
BRANCH   6   8
ATOM      7  C   UNL     1     -35.374  22.918   4.961  0.00  0.00    -0.017 C 
ATOM      8  C   UNL     1     -36.188  22.662   3.919  0.00  0.00    +0.000 C 
ATOM      9  C   UNL     1     -34.491  24.140   4.946  0.00  0.00    +0.029 C 
BRANCH   7  10
ATOM     10  C   UNL     1     -35.274  22.079   6.206  0.00  0.00    +0.159 C 
BRANCH  10  11
ATOM     11  O   UNL     1     -35.348  20.704   5.855  0.00  0.00    -0.378 OA
ATOM     12  H   UNL     1     -36.215  20.351   6.110  0.00  0.00    +0.211 HD
ENDBRANCH  10  11
ENDBRANCH   7  10
ENDBRANCH   6   8
ENDBRANCH   5   6
ENDBRANCH   1   5
BRANCH   1  13
ATOM     13  O   UNL     1     -36.112  26.231   2.302  0.00  0.00    -0.186 OA
BRANCH  13  14
ATOM     14  P   UNL     1     -35.369  27.665   2.268  0.00  0.00    +0.481 P 
ATOM     15  O   UNL     1     -34.149  27.717   1.396  0.00  0.00    -0.227 OA
BRANCH  14  16
ATOM     16  O   UNL     1     -35.113  27.982   3.833  0.00  0.00    -0.302 OA
ATOM     17  H   UNL     1     -34.206  27.734   4.068  0.00  0.00    +0.222 HD
ENDBRANCH  14  16
BRANCH  14  18
ATOM     18  O   UNL     1     -36.552  28.689   1.864  0.00  0.00    -0.302 OA
ATOM     19  H   UNL     1     -36.939  29.070   2.667  0.00  0.00    +0.222 HD
ENDBRANCH  14  18
ENDBRANCH  13  14
ENDBRANCH   1  13
TORSDOF 10
ENDMDL
MODEL 3
REMARK VINA RESULT:      -4.9      3.886      6.058
REMARK  Name = 5281976
REMARK  10 active torsions:
REMARK  status: ('A' for Active; 'I' for Inactive)
REMARK    1  A    between atoms: P_1  and  O_3
REMARK    2  A    between atoms: P_1  and  O_5
REMARK    3  A    between atoms: P_1  and  O_13
REMARK    4  A    between atoms: O_5  and  C_6
REMARK    5  A    between atoms: C_6  and  C_8
REMARK    6  A    between atoms: C_7  and  C_10
REMARK    7  A    between atoms: C_10  and  O_11
REMARK    8  A    between atoms: O_13  and  P_14
REMARK    9  A    between atoms: P_14  and  O_16
REMARK   10  A    between atoms: P_14  and  O_18
REMARK                            x       y       z     vdW  Elec       q    Type
REMARK                         _______ _______ _______ _____ _____    ______ ____
ROOT
ATOM      1  P   UNL     1     -37.238  23.057   2.599  0.00  0.00    +0.484 P 
ATOM      2  O   UNL     1     -35.999  22.775   1.801  0.00  0.00    -0.227 OA
ENDROOT
BRANCH   1   3
ATOM      3  O   UNL     1     -38.342  21.875   2.557  0.00  0.00    -0.302 OA
ATOM      4  H   UNL     1     -39.108  22.128   3.096  0.00  0.00    +0.222 HD
ENDBRANCH   1   3
BRANCH   1   5
ATOM      5  O   UNL     1     -36.981  23.316   4.173  0.00  0.00    -0.268 OA
BRANCH   5   6
ATOM      6  C   UNL     1     -35.754  22.907   4.767  0.00  0.00    +0.179 C 
BRANCH   6   8
ATOM      7  C   UNL     1     -34.436  25.059   5.175  0.00  0.00    -0.017 C 
ATOM      8  C   UNL     1     -35.220  24.042   5.580  0.00  0.00    +0.000 C 
ATOM      9  C   UNL     1     -33.993  25.143   3.736  0.00  0.00    +0.029 C 
BRANCH   7  10
ATOM     10  C   UNL     1     -33.957  26.185   6.050  0.00  0.00    +0.159 C 
BRANCH  10  11
ATOM     11  O   UNL     1     -33.480  27.247   5.234  0.00  0.00    -0.378 OA
ATOM     12  H   UNL     1     -32.561  27.450   5.472  0.00  0.00    +0.211 HD
ENDBRANCH  10  11
ENDBRANCH   7  10
ENDBRANCH   6   8
ENDBRANCH   5   6
ENDBRANCH   1   5
BRANCH   1  13
ATOM     13  O   UNL     1     -38.066  24.354   2.102  0.00  0.00    -0.186 OA
BRANCH  13  14
ATOM     14  P   UNL     1     -38.735  25.567   2.934  0.00  0.00    +0.481 P 
ATOM     15  O   UNL     1     -39.408  26.609   2.089  0.00  0.00    -0.227 OA
BRANCH  14  16
ATOM     16  O   UNL     1     -37.513  26.103   3.847  0.00  0.00    -0.302 OA
ATOM     17  H   UNL     1     -37.202  26.955   3.502  0.00  0.00    +0.222 HD
ENDBRANCH  14  16
BRANCH  14  18
ATOM     18  O   UNL     1     -39.693  24.810   3.992  0.00  0.00    -0.302 OA
ATOM     19  H   UNL     1     -40.445  25.381   4.213  0.00  0.00    +0.222 HD
ENDBRANCH  14  18
ENDBRANCH  13  14
ENDBRANCH   1  13
TORSDOF 10
ENDMDL
MODEL 4
REMARK VINA RESULT:      -4.9      2.242      3.580
REMARK  Name = 5281976
REMARK  10 active torsions:
REMARK  status: ('A' for Active; 'I' for Inactive)
REMARK    1  A    between atoms: P_1  and  O_3
REMARK    2  A    between atoms: P_1  and  O_5
REMARK    3  A    between atoms: P_1  and  O_13
REMARK    4  A    between atoms: O_5  and  C_6
REMARK    5  A    between atoms: C_6  and  C_8
REMARK    6  A    between atoms: C_7  and  C_10
REMARK    7  A    between atoms: C_10  and  O_11
REMARK    8  A    between atoms: O_13  and  P_14
REMARK    9  A    between atoms: P_14  and  O_16
REMARK   10  A    between atoms: P_14  and  O_18
REMARK                            x       y       z     vdW  Elec       q    Type
REMARK                         _______ _______ _______ _____ _____    ______ ____
ROOT
ATOM      1  P   UNL     1     -36.391  25.346   4.456  0.00  0.00    +0.484 P 
ATOM      2  O   UNL     1     -37.598  25.229   3.572  0.00  0.00    -0.227 OA
ENDROOT
BRANCH   1   3
ATOM      3  O   UNL     1     -36.482  26.534   5.552  0.00  0.00    -0.302 OA
ATOM      4  H   UNL     1     -35.807  27.203   5.360  0.00  0.00    +0.222 HD
ENDBRANCH   1   3
BRANCH   1   5
ATOM      5  O   UNL     1     -36.058  24.022   5.320  0.00  0.00    -0.268 OA
BRANCH   5   6
ATOM      6  C   UNL     1     -35.121  23.072   4.827  0.00  0.00    +0.179 C 
BRANCH   6   8
ATOM      7  C   UNL     1     -35.784  21.919   2.643  0.00  0.00    -0.017 C 
ATOM      8  C   UNL     1     -35.852  22.081   3.978  0.00  0.00    +0.000 C 
ATOM      9  C   UNL     1     -34.883  22.805   1.821  0.00  0.00    +0.029 C 
BRANCH   7  10
ATOM     10  C   UNL     1     -36.534  20.876   1.859  0.00  0.00    +0.159 C 
BRANCH  10  11
ATOM     11  O   UNL     1     -36.801  19.759   2.696  0.00  0.00    -0.378 OA
ATOM     12  H   UNL     1     -36.886  18.960   2.152  0.00  0.00    +0.211 HD
ENDBRANCH  10  11
ENDBRANCH   7  10
ENDBRANCH   6   8
ENDBRANCH   5   6
ENDBRANCH   1   5
BRANCH   1  13
ATOM     13  O   UNL     1     -35.020  25.675   3.667  0.00  0.00    -0.186 OA
BRANCH  13  14
ATOM     14  P   UNL     1     -33.704  26.494   4.124  0.00  0.00    +0.481 P 
ATOM     15  O   UNL     1     -32.488  26.246   3.280  0.00  0.00    -0.227 OA
BRANCH  14  16
ATOM     16  O   UNL     1     -33.552  26.101   5.685  0.00  0.00    -0.302 OA
ATOM     17  H   UNL     1     -34.049  26.733   6.227  0.00  0.00    +0.222 HD
ENDBRANCH  14  16
BRANCH  14  18
ATOM     18  O   UNL     1     -34.214  28.026   4.169  0.00  0.00    -0.302 OA
ATOM     19  H   UNL     1     -33.751  28.501   4.876  0.00  0.00    +0.222 HD
ENDBRANCH  14  18
ENDBRANCH  13  14
ENDBRANCH   1  13
TORSDOF 10
ENDMDL
MODEL 5
REMARK VINA RESULT:      -4.8      4.572      7.710
REMARK  Name = 5281976
REMARK  10 active torsions:
REMARK  status: ('A' for Active; 'I' for Inactive)
REMARK    1  A    between atoms: P_1  and  O_3
REMARK    2  A    between atoms: P_1  and  O_5
REMARK    3  A    between atoms: P_1  and  O_13
REMARK    4  A    between atoms: O_5  and  C_6
REMARK    5  A    between atoms: C_6  and  C_8
REMARK    6  A    between atoms: C_7  and  C_10
REMARK    7  A    between atoms: C_10  and  O_11
REMARK    8  A    between atoms: O_13  and  P_14
REMARK    9  A    between atoms: P_14  and  O_16
REMARK   10  A    between atoms: P_14  and  O_18
REMARK                            x       y       z     vdW  Elec       q    Type
REMARK                         _______ _______ _______ _____ _____    ______ ____
ROOT
ATOM      1  P   UNL     1     -36.189  21.261   2.131  0.00  0.00    +0.484 P 
ATOM      2  O   UNL     1     -34.769  21.300   1.647  0.00  0.00    -0.227 OA
ENDROOT
BRANCH   1   3
ATOM      3  O   UNL     1     -36.707  19.788   2.557  0.00  0.00    -0.302 OA
ATOM      4  H   UNL     1     -35.961  19.269   2.896  0.00  0.00    +0.222 HD
ENDBRANCH   1   3
BRANCH   1   5
ATOM      5  O   UNL     1     -36.486  22.184   3.423  0.00  0.00    -0.268 OA
BRANCH   5   6
ATOM      6  C   UNL     1     -35.575  22.187   4.515  0.00  0.00    +0.179 C 
BRANCH   6   8
ATOM      7  C   UNL     1     -35.051  24.660   4.901  0.00  0.00    -0.017 C 
ATOM      8  C   UNL     1     -35.674  23.507   5.212  0.00  0.00    +0.000 C 
ATOM      9  C   UNL     1     -34.118  24.718   3.718  0.00  0.00    +0.029 C 
BRANCH   7  10
ATOM     10  C   UNL     1     -35.222  25.961   5.637  0.00  0.00    +0.159 C 
BRANCH  10  11
ATOM     11  O   UNL     1     -36.523  26.476   5.387  0.00  0.00    -0.378 OA
ATOM     12  H   UNL     1     -36.784  27.063   6.115  0.00  0.00    +0.211 HD
ENDBRANCH  10  11
ENDBRANCH   7  10
ENDBRANCH   6   8
ENDBRANCH   5   6
ENDBRANCH   1   5
BRANCH   1  13
ATOM     13  O   UNL     1     -37.277  21.733   1.032  0.00  0.00    -0.186 OA
BRANCH  13  14
ATOM     14  P   UNL     1     -38.841  21.365   0.865  0.00  0.00    +0.481 P 
ATOM     15  O   UNL     1     -39.632  22.348   0.052  0.00  0.00    -0.227 OA
BRANCH  14  16
ATOM     16  O   UNL     1     -39.339  21.175   2.392  0.00  0.00    -0.302 OA
ATOM     17  H   UNL     1     -39.330  20.232   2.619  0.00  0.00    +0.222 HD
ENDBRANCH  14  16
BRANCH  14  18
ATOM     18  O   UNL     1     -38.811  19.857   0.287  0.00  0.00    -0.302 OA
ATOM     19  H   UNL     1     -39.233  19.258   0.922  0.00  0.00    +0.222 HD
ENDBRANCH  14  18
ENDBRANCH  13  14
ENDBRANCH   1  13
TORSDOF 10
ENDMDL
MODEL 6
REMARK VINA RESULT:      -4.8      1.170      1.932
REMARK  Name = 5281976
REMARK  10 active torsions:
REMARK  status: ('A' for Active; 'I' for Inactive)
REMARK    1  A    between atoms: P_1  and  O_3
REMARK    2  A    between atoms: P_1  and  O_5
REMARK    3  A    between atoms: P_1  and  O_13
REMARK    4  A    between atoms: O_5  and  C_6
REMARK    5  A    between atoms: C_6  and  C_8
REMARK    6  A    between atoms: C_7  and  C_10
REMARK    7  A    between atoms: C_10  and  O_11
REMARK    8  A    between atoms: O_13  and  P_14
REMARK    9  A    between atoms: P_14  and  O_16
REMARK   10  A    between atoms: P_14  and  O_18
REMARK                            x       y       z     vdW  Elec       q    Type
REMARK                         _______ _______ _______ _____ _____    ______ ____
ROOT
ATOM      1  P   UNL     1     -33.702  26.651   5.035  0.00  0.00    +0.484 P 
ATOM      2  O   UNL     1     -33.149  26.400   6.408  0.00  0.00    -0.227 OA
ENDROOT
BRANCH   1   3
ATOM      3  O   UNL     1     -33.221  25.585   3.918  0.00  0.00    -0.302 OA
ATOM      4  H   UNL     1     -33.756  25.693   3.116  0.00  0.00    +0.222 HD
ENDBRANCH   1   3
BRANCH   1   5
ATOM      5  O   UNL     1     -35.315  26.632   4.946  0.00  0.00    -0.268 OA
BRANCH   5   6
ATOM      6  C   UNL     1     -35.984  25.469   4.473  0.00  0.00    +0.179 C 
BRANCH   6   8
ATOM      7  C   UNL     1     -35.584  23.080   5.292  0.00  0.00    -0.017 C 
ATOM      8  C   UNL     1     -35.835  24.387   5.495  0.00  0.00    +0.000 C 
ATOM      9  C   UNL     1     -35.418  22.553   3.889  0.00  0.00    +0.029 C 
BRANCH   7  10
ATOM     10  C   UNL     1     -35.420  22.051   6.377  0.00  0.00    +0.159 C 
BRANCH  10  11
ATOM     11  O   UNL     1     -35.355  20.757   5.794  0.00  0.00    -0.378 OA
ATOM     12  H   UNL     1     -34.580  20.703   5.211  0.00  0.00    +0.211 HD
ENDBRANCH  10  11
ENDBRANCH   7  10
ENDBRANCH   6   8
ENDBRANCH   5   6
ENDBRANCH   1   5
BRANCH   1  13
ATOM     13  O   UNL     1     -33.275  28.074   4.398  0.00  0.00    -0.186 OA
BRANCH  13  14
ATOM     14  P   UNL     1     -32.044  29.062   4.743  0.00  0.00    +0.481 P 
ATOM     15  O   UNL     1     -32.376  30.162   5.708  0.00  0.00    -0.227 OA
BRANCH  14  16
ATOM     16  O   UNL     1     -31.548  29.552   3.284  0.00  0.00    -0.302 OA
ATOM     17  H   UNL     1     -32.315  29.662   2.701  0.00  0.00    +0.222 HD
ENDBRANCH  14  16
BRANCH  14  18
ATOM     18  O   UNL     1     -30.876  28.053   5.220  0.00  0.00    -0.302 OA
ATOM     19  H   UNL     1     -30.059  28.252   4.737  0.00  0.00    +0.222 HD
ENDBRANCH  14  18
ENDBRANCH  13  14
ENDBRANCH   1  13
TORSDOF 10
ENDMDL
MODEL 7
REMARK VINA RESULT:      -4.8      1.219      1.715
REMARK  Name = 5281976
REMARK  10 active torsions:
REMARK  status: ('A' for Active; 'I' for Inactive)
REMARK    1  A    between atoms: P_1  and  O_3
REMARK    2  A    between atoms: P_1  and  O_5
REMARK    3  A    between atoms: P_1  and  O_13
REMARK    4  A    between atoms: O_5  and  C_6
REMARK    5  A    between atoms: C_6  and  C_8
REMARK    6  A    between atoms: C_7  and  C_10
REMARK    7  A    between atoms: C_10  and  O_11
REMARK    8  A    between atoms: O_13  and  P_14
REMARK    9  A    between atoms: P_14  and  O_16
REMARK   10  A    between atoms: P_14  and  O_18
REMARK                            x       y       z     vdW  Elec       q    Type
REMARK                         _______ _______ _______ _____ _____    ______ ____
ROOT
ATOM      1  P   UNL     1     -34.391  27.066   3.073  0.00  0.00    +0.484 P 
ATOM      2  O   UNL     1     -34.700  26.838   1.622  0.00  0.00    -0.227 OA
ENDROOT
BRANCH   1   3
ATOM      3  O   UNL     1     -35.307  28.198   3.779  0.00  0.00    -0.302 OA
ATOM      4  H   UNL     1     -35.860  28.630   3.109  0.00  0.00    +0.222 HD
ENDBRANCH   1   3
BRANCH   1   5
ATOM      5  O   UNL     1     -34.563  25.762   4.012  0.00  0.00    -0.268 OA
BRANCH   5   6
ATOM      6  C   UNL     1     -35.865  25.318   4.374  0.00  0.00    +0.179 C 
BRANCH   6   8
ATOM      7  C   UNL     1     -35.583  22.936   5.260  0.00  0.00    -0.017 C 
ATOM      8  C   UNL     1     -35.730  24.264   5.427  0.00  0.00    +0.000 C 
ATOM      9  C   UNL     1     -35.539  22.351   3.871  0.00  0.00    +0.029 C 
BRANCH   7  10
ATOM     10  C   UNL     1     -35.426  21.936   6.373  0.00  0.00    +0.159 C 
BRANCH  10  11
ATOM     11  O   UNL     1     -35.364  20.626   5.824  0.00  0.00    -0.378 OA
ATOM     12  H   UNL     1     -35.655  20.649   4.899  0.00  0.00    +0.211 HD
ENDBRANCH  10  11
ENDBRANCH   7  10
ENDBRANCH   6   8
ENDBRANCH   5   6
ENDBRANCH   1   5
BRANCH   1  13
ATOM     13  O   UNL     1     -32.884  27.578   3.358  0.00  0.00    -0.186 OA
BRANCH  13  14
ATOM     14  P   UNL     1     -32.206  28.187   4.692  0.00  0.00    +0.481 P 
ATOM     15  O   UNL     1     -30.716  28.026   4.766  0.00  0.00    -0.227 OA
BRANCH  14  16
ATOM     16  O   UNL     1     -33.036  27.473   5.883  0.00  0.00    -0.302 OA
ATOM     17  H   UNL     1     -32.586  26.655   6.145  0.00  0.00    +0.222 HD
ENDBRANCH  14  16
BRANCH  14  18
ATOM     18  O   UNL     1     -32.739  29.711   4.721  0.00  0.00    -0.302 OA
ATOM     19  H   UNL     1     -33.671  29.733   4.454  0.00  0.00    +0.222 HD
ENDBRANCH  14  18
ENDBRANCH  13  14
ENDBRANCH   1  13
TORSDOF 10
ENDMDL
MODEL 8
REMARK VINA RESULT:      -4.8      3.476      6.842
REMARK  Name = 5281976
REMARK  10 active torsions:
REMARK  status: ('A' for Active; 'I' for Inactive)
REMARK    1  A    between atoms: P_1  and  O_3
REMARK    2  A    between atoms: P_1  and  O_5
REMARK    3  A    between atoms: P_1  and  O_13
REMARK    4  A    between atoms: O_5  and  C_6
REMARK    5  A    between atoms: C_6  and  C_8
REMARK    6  A    between atoms: C_7  and  C_10
REMARK    7  A    between atoms: C_10  and  O_11
REMARK    8  A    between atoms: O_13  and  P_14
REMARK    9  A    between atoms: P_14  and  O_16
REMARK   10  A    between atoms: P_14  and  O_18
REMARK                            x       y       z     vdW  Elec       q    Type
REMARK                         _______ _______ _______ _____ _____    ______ ____
ROOT
ATOM      1  P   UNL     1     -35.859  22.626   4.452  0.00  0.00    +0.484 P 
ATOM      2  O   UNL     1     -35.994  22.460   5.937  0.00  0.00    -0.227 OA
ENDROOT
BRANCH   1   3
ATOM      3  O   UNL     1     -37.267  22.770   3.667  0.00  0.00    -0.302 OA
ATOM      4  H   UNL     1     -37.851  23.367   4.160  0.00  0.00    +0.222 HD
ENDBRANCH   1   3
BRANCH   1   5
ATOM      5  O   UNL     1     -35.006  23.920   3.994  0.00  0.00    -0.268 OA
BRANCH   5   6
ATOM      6  C   UNL     1     -35.438  25.222   4.371  0.00  0.00    +0.179 C 
BRANCH   6   8
ATOM      7  C   UNL     1     -33.612  26.547   5.574  0.00  0.00    -0.017 C 
ATOM      8  C   UNL     1     -34.631  25.667   5.549  0.00  0.00    +0.000 C 
ATOM      9  C   UNL     1     -33.160  27.215   4.299  0.00  0.00    +0.029 C 
BRANCH   7  10
ATOM     10  C   UNL     1     -32.861  26.967   6.808  0.00  0.00    +0.159 C 
BRANCH  10  11
ATOM     11  O   UNL     1     -32.389  28.298   6.642  0.00  0.00    -0.378 OA
ATOM     12  H   UNL     1     -31.466  28.352   6.939  0.00  0.00    +0.211 HD
ENDBRANCH  10  11
ENDBRANCH   7  10
ENDBRANCH   6   8
ENDBRANCH   5   6
ENDBRANCH   1   5
BRANCH   1  13
ATOM     13  O   UNL     1     -35.145  21.382   3.707  0.00  0.00    -0.186 OA
BRANCH  13  14
ATOM     14  P   UNL     1     -35.499  20.632   2.321  0.00  0.00    +0.481 P 
ATOM     15  O   UNL     1     -35.617  21.538   1.131  0.00  0.00    -0.227 OA
BRANCH  14  16
ATOM     16  O   UNL     1     -36.836  19.798   2.687  0.00  0.00    -0.302 OA
ATOM     17  H   UNL     1     -36.748  19.421   3.576  0.00  0.00    +0.222 HD
ENDBRANCH  14  16
BRANCH  14  18
ATOM     18  O   UNL     1     -34.361  19.491   2.211  0.00  0.00    -0.302 OA
ATOM     19  H   UNL     1     -34.652  18.802   1.594  0.00  0.00    +0.222 HD
ENDBRANCH  14  18
ENDBRANCH  13  14
ENDBRANCH   1  13
TORSDOF 10
ENDMDL
MODEL 9
REMARK VINA RESULT:      -4.8      4.574      6.233
REMARK  Name = 5281976
REMARK  10 active torsions:
REMARK  status: ('A' for Active; 'I' for Inactive)
REMARK    1  A    between atoms: P_1  and  O_3
REMARK    2  A    between atoms: P_1  and  O_5
REMARK    3  A    between atoms: P_1  and  O_13
REMARK    4  A    between atoms: O_5  and  C_6
REMARK    5  A    between atoms: C_6  and  C_8
REMARK    6  A    between atoms: C_7  and  C_10
REMARK    7  A    between atoms: C_10  and  O_11
REMARK    8  A    between atoms: O_13  and  P_14
REMARK    9  A    between atoms: P_14  and  O_16
REMARK   10  A    between atoms: P_14  and  O_18
REMARK                            x       y       z     vdW  Elec       q    Type
REMARK                         _______ _______ _______ _____ _____    ______ ____
ROOT
ATOM      1  P   UNL     1     -37.944  25.267   2.867  0.00  0.00    +0.484 P 
ATOM      2  O   UNL     1     -37.145  24.971   1.630  0.00  0.00    -0.227 OA
ENDROOT
BRANCH   1   3
ATOM      3  O   UNL     1     -38.788  24.008   3.432  0.00  0.00    -0.302 OA
ATOM      4  H   UNL     1     -38.998  24.154   4.367  0.00  0.00    +0.222 HD
ENDBRANCH   1   3
BRANCH   1   5
ATOM      5  O   UNL     1     -37.068  25.768   4.129  0.00  0.00    -0.268 OA
BRANCH   5   6
ATOM      6  C   UNL     1     -35.706  25.374   4.247  0.00  0.00    +0.179 C 
BRANCH   6   8
ATOM      7  C   UNL     1     -35.550  23.018   5.227  0.00  0.00    -0.017 C 
ATOM      8  C   UNL     1     -35.599  24.359   5.340  0.00  0.00    +0.000 C 
ATOM      9  C   UNL     1     -35.605  22.373   3.865  0.00  0.00    +0.029 C 
BRANCH   7  10
ATOM     10  C   UNL     1     -35.414  22.057   6.377  0.00  0.00    +0.159 C 
BRANCH  10  11
ATOM     11  O   UNL     1     -35.338  20.730   5.876  0.00  0.00    -0.378 OA
ATOM     12  H   UNL     1     -34.416  20.425   5.906  0.00  0.00    +0.211 HD
ENDBRANCH  10  11
ENDBRANCH   7  10
ENDBRANCH   6   8
ENDBRANCH   5   6
ENDBRANCH   1   5
BRANCH   1  13
ATOM     13  O   UNL     1     -39.070  26.411   2.671  0.00  0.00    -0.186 OA
BRANCH  13  14
ATOM     14  P   UNL     1     -40.681  26.311   2.610  0.00  0.00    +0.481 P 
ATOM     15  O   UNL     1     -41.358  27.499   1.992  0.00  0.00    -0.227 OA
BRANCH  14  16
ATOM     16  O   UNL     1     -41.088  26.007   4.145  0.00  0.00    -0.302 OA
ATOM     17  H   UNL     1     -41.083  26.834   4.651  0.00  0.00    +0.222 HD
ENDBRANCH  14  16
BRANCH  14  18
ATOM     18  O   UNL     1     -40.941  24.902   1.864  0.00  0.00    -0.302 OA
ATOM     19  H   UNL     1     -40.518  24.188   2.365  0.00  0.00    +0.222 HD
ENDBRANCH  14  18
ENDBRANCH  13  14
ENDBRANCH   1  13
TORSDOF 10
ENDMDL
