MODEL 1
REMARK VINA RESULT:      -5.7      0.000      0.000
REMARK  Name = 191808
REMARK  9 active torsions:
REMARK  status: ('A' for Active; 'I' for Inactive)
REMARK    1  A    between atoms: N_3  and  C1*_13
REMARK    2  A    between atoms: C_7  and  O_22
REMARK    3  A    between atoms: C2*_11  and  O2*_15
REMARK    4  A    between atoms: C3*_12  and  O3*_17
REMARK    5  A    between atoms: C4*_14  and  C5*_19
REMARK    6  A    between atoms: C5*_19  and  O5*_20
REMARK    7  A    between atoms: O_22  and  C_23
REMARK    8  A    between atoms: C_23  and  C_25
REMARK    9  A    between atoms: C_25  and  O_26
REMARK                            x       y       z     vdW  Elec       q    Type
REMARK                         _______ _______ _______ _____ _____    ______ ____
ROOT
ATOM      1  O   UNL     1     -36.665  20.434   2.187  0.00  0.00    -0.252 OA
ATOM      2  O   UNL     1     -34.448  21.873   5.958  0.00  0.00    -0.266 OA
ATOM      3  N   UNL     1     -37.058  22.614   2.927  0.00  0.00    -0.214 N 
ATOM      4  N   UNL     1     -35.562  21.159   4.065  0.00  0.00    -0.233 N 
ATOM      5  C   UNL     1     -36.762  23.582   3.880  0.00  0.00    +0.113 C 
ATOM      6  C   UNL     1     -36.449  21.340   2.995  0.00  0.00    +0.316 C 
ATOM      7  C   UNL     1     -35.914  23.398   4.896  0.00  0.00    +0.208 C 
ATOM      8  C   UNL     1     -35.233  22.089   5.039  0.00  0.00    +0.288 C 
ATOM      9  H   UNL     1     -35.127  20.279   4.131  0.00  0.00    +0.160 HD
ENDROOT
BRANCH   3  13
ATOM     10  O4* UNL     1     -38.077  24.334   1.716  0.00  0.00    -0.333 OA
ATOM     11  C2* UNL     1     -39.389  22.416   2.178  0.00  0.00    +0.187 C 
ATOM     12  C3* UNL     1     -40.244  23.419   1.433  0.00  0.00    +0.171 C 
ATOM     13  C1* UNL     1     -37.986  22.909   1.872  0.00  0.00    +0.229 C 
ATOM     14  C4* UNL     1     -39.470  24.714   1.639  0.00  0.00    +0.175 C 
BRANCH  11  15
ATOM     15  O2* UNL     1     -39.608  21.092   1.736  0.00  0.00    -0.378 OA
ATOM     16  H2* UNL     1     -38.800  20.569   1.869  0.00  0.00    +0.211 HD
ENDBRANCH  11  15
BRANCH  12  17
ATOM     17  O3* UNL     1     -40.247  23.127   0.036  0.00  0.00    -0.379 OA
ATOM     18  H3* UNL     1     -40.759  22.318  -0.124  0.00  0.00    +0.211 HD
ENDBRANCH  12  17
BRANCH  14  19
ATOM     19  C5* UNL     1     -39.836  25.435   2.929  0.00  0.00    +0.169 C 
BRANCH  19  20
ATOM     20  O5* UNL     1     -38.823  26.381   3.223  0.00  0.00    -0.379 OA
ATOM     21  H5* UNL     1     -38.741  26.479   4.185  0.00  0.00    +0.211 HD
ENDBRANCH  19  20
ENDBRANCH  14  19
ENDBRANCH   3  13
BRANCH   7  22
ATOM     22  O   UNL     1     -35.632  24.367   5.831  0.00  0.00    -0.458 OA
BRANCH  22  23
ATOM     23  C   UNL     1     -35.458  25.629   5.214  0.00  0.00    +0.314 C 
BRANCH  23  25
ATOM     24  O   UNL     1     -33.182  25.854   4.408  0.00  0.00    -0.246 OA
ATOM     25  C   UNL     1     -34.005  26.016   5.299  0.00  0.00    +0.362 C 
BRANCH  25  26
ATOM     26  O   UNL     1     -33.764  26.571   6.523  0.00  0.00    -0.442 OA
ATOM     27  C   UNL     1     -32.545  27.313   6.635  0.00  0.00    +0.256 C 
ENDBRANCH  25  26
ENDBRANCH  23  25
ENDBRANCH  22  23
ENDBRANCH   7  22
TORSDOF 9
ENDMDL
MODEL 2
REMARK VINA RESULT:      -5.6      1.761      6.097
REMARK  Name = 191808
REMARK  9 active torsions:
REMARK  status: ('A' for Active; 'I' for Inactive)
REMARK    1  A    between atoms: N_3  and  C1*_13
REMARK    2  A    between atoms: C_7  and  O_22
REMARK    3  A    between atoms: C2*_11  and  O2*_15
REMARK    4  A    between atoms: C3*_12  and  O3*_17
REMARK    5  A    between atoms: C4*_14  and  C5*_19
REMARK    6  A    between atoms: C5*_19  and  O5*_20
REMARK    7  A    between atoms: O_22  and  C_23
REMARK    8  A    between atoms: C_23  and  C_25
REMARK    9  A    between atoms: C_25  and  O_26
REMARK                            x       y       z     vdW  Elec       q    Type
REMARK                         _______ _______ _______ _____ _____    ______ ____
ROOT
ATOM      1  O   UNL     1     -36.115  21.058   2.824  0.00  0.00    -0.252 OA
ATOM      2  O   UNL     1     -40.453  21.055   1.280  0.00  0.00    -0.266 OA
ATOM      3  N   UNL     1     -37.313  23.061   2.912  0.00  0.00    -0.214 N 
ATOM      4  N   UNL     1     -38.278  21.064   2.058  0.00  0.00    -0.233 N 
ATOM      5  C   UNL     1     -38.520  23.698   2.646  0.00  0.00    +0.113 C 
ATOM      6  C   UNL     1     -37.154  21.687   2.617  0.00  0.00    +0.316 C 
ATOM      7  C   UNL     1     -39.585  23.093   2.113  0.00  0.00    +0.208 C 
ATOM      8  C   UNL     1     -39.501  21.652   1.774  0.00  0.00    +0.288 C 
ATOM      9  H   UNL     1     -38.190  20.107   1.845  0.00  0.00    +0.160 HD
ENDROOT
BRANCH   3  13
ATOM     10  O4* UNL     1     -35.242  22.876   3.980  0.00  0.00    -0.333 OA
ATOM     11  C2* UNL     1     -36.659  24.644   4.673  0.00  0.00    +0.187 C 
ATOM     12  C3* UNL     1     -35.400  24.674   5.514  0.00  0.00    +0.171 C 
ATOM     13  C1* UNL     1     -36.224  23.800   3.487  0.00  0.00    +0.229 C 
ATOM     14  C4* UNL     1     -34.849  23.268   5.314  0.00  0.00    +0.175 C 
BRANCH  11  15
ATOM     15  O2* UNL     1     -37.080  25.938   4.292  0.00  0.00    -0.378 OA
ATOM     16  H2* UNL     1     -37.954  26.118   4.674  0.00  0.00    +0.211 HD
ENDBRANCH  11  15
BRANCH  12  17
ATOM     17  O3* UNL     1     -34.459  25.596   4.966  0.00  0.00    -0.379 OA
ATOM     18  H3* UNL     1     -33.846  25.123   4.381  0.00  0.00    +0.211 HD
ENDBRANCH  12  17
BRANCH  14  19
ATOM     19  C5* UNL     1     -35.421  22.253   6.294  0.00  0.00    +0.169 C 
BRANCH  19  20
ATOM     20  O5* UNL     1     -35.317  20.961   5.721  0.00  0.00    -0.379 OA
ATOM     21  H5* UNL     1     -35.603  20.296   6.368  0.00  0.00    +0.211 HD
ENDBRANCH  19  20
ENDBRANCH  14  19
ENDBRANCH   3  13
BRANCH   7  22
ATOM     22  O   UNL     1     -40.772  23.739   1.856  0.00  0.00    -0.458 OA
BRANCH  22  23
ATOM     23  C   UNL     1     -40.552  24.928   1.122  0.00  0.00    +0.314 C 
BRANCH  23  25
ATOM     24  O   UNL     1     -42.723  26.006   1.076  0.00  0.00    -0.246 OA
ATOM     25  C   UNL     1     -41.585  25.947   1.523  0.00  0.00    +0.362 C 
BRANCH  25  26
ATOM     26  O   UNL     1     -41.045  26.783   2.458  0.00  0.00    -0.442 OA
ATOM     27  C   UNL     1     -41.586  26.665   3.778  0.00  0.00    +0.256 C 
ENDBRANCH  25  26
ENDBRANCH  23  25
ENDBRANCH  22  23
ENDBRANCH   7  22
TORSDOF 9
ENDMDL
MODEL 3
REMARK VINA RESULT:      -5.5      2.102      6.792
REMARK  Name = 191808
REMARK  9 active torsions:
REMARK  status: ('A' for Active; 'I' for Inactive)
REMARK    1  A    between atoms: N_3  and  C1*_13
REMARK    2  A    between atoms: C_7  and  O_22
REMARK    3  A    between atoms: C2*_11  and  O2*_15
REMARK    4  A    between atoms: C3*_12  and  O3*_17
REMARK    5  A    between atoms: C4*_14  and  C5*_19
REMARK    6  A    between atoms: C5*_19  and  O5*_20
REMARK    7  A    between atoms: O_22  and  C_23
REMARK    8  A    between atoms: C_23  and  C_25
REMARK    9  A    between atoms: C_25  and  O_26
REMARK                            x       y       z     vdW  Elec       q    Type
REMARK                         _______ _______ _______ _____ _____    ______ ____
ROOT
ATOM      1  O   UNL     1     -37.301  27.193   2.095  0.00  0.00    -0.252 OA
ATOM      2  O   UNL     1     -41.105  24.709   1.339  0.00  0.00    -0.266 OA
ATOM      3  N   UNL     1     -37.338  24.984   2.850  0.00  0.00    -0.214 N 
ATOM      4  N   UNL     1     -39.192  25.948   1.721  0.00  0.00    -0.233 N 
ATOM      5  C   UNL     1     -38.072  23.807   2.947  0.00  0.00    +0.113 C 
ATOM      6  C   UNL     1     -37.893  26.119   2.216  0.00  0.00    +0.316 C 
ATOM      7  C   UNL     1     -39.311  23.657   2.470  0.00  0.00    +0.208 C 
ATOM      8  C   UNL     1     -39.966  24.800   1.791  0.00  0.00    +0.288 C 
ATOM      9  H   UNL     1     -39.599  26.726   1.275  0.00  0.00    +0.160 HD
ENDROOT
BRANCH   3  13
ATOM     10  O4* UNL     1     -35.465  23.719   3.448  0.00  0.00    -0.333 OA
ATOM     11  C2* UNL     1     -35.994  25.576   4.820  0.00  0.00    +0.187 C 
ATOM     12  C3* UNL     1     -34.787  24.872   5.403  0.00  0.00    +0.171 C 
ATOM     13  C1* UNL     1     -36.011  25.046   3.397  0.00  0.00    +0.229 C 
ATOM     14  C4* UNL     1     -34.870  23.500   4.746  0.00  0.00    +0.175 C 
BRANCH  11  15
ATOM     15  O2* UNL     1     -35.873  26.983   4.874  0.00  0.00    -0.378 OA
ATOM     16  H2* UNL     1     -35.726  27.329   3.979  0.00  0.00    +0.211 HD
ENDBRANCH  11  15
BRANCH  12  17
ATOM     17  O3* UNL     1     -33.585  25.499   4.958  0.00  0.00    -0.379 OA
ATOM     18  H3* UNL     1     -33.231  26.059   5.668  0.00  0.00    +0.211 HD
ENDBRANCH  12  17
BRANCH  14  19
ATOM     19  C5* UNL     1     -35.749  22.520   5.511  0.00  0.00    +0.169 C 
BRANCH  19  20
ATOM     20  O5* UNL     1     -35.453  21.206   5.069  0.00  0.00    -0.379 OA
ATOM     21  H5* UNL     1     -35.746  20.566   5.737  0.00  0.00    +0.211 HD
ENDBRANCH  19  20
ENDBRANCH  14  19
ENDBRANCH   3  13
BRANCH   7  22
ATOM     22  O   UNL     1     -40.025  22.485   2.574  0.00  0.00    -0.458 OA
BRANCH  22  23
ATOM     23  C   UNL     1     -39.380  21.437   1.875  0.00  0.00    +0.314 C 
BRANCH  23  25
ATOM     24  O   UNL     1     -41.188  21.001   0.320  0.00  0.00    -0.246 OA
ATOM     25  C   UNL     1     -40.016  21.293   0.518  0.00  0.00    +0.362 C 
BRANCH  25  26
ATOM     26  O   UNL     1     -39.076  21.541  -0.442  0.00  0.00    -0.442 OA
ATOM     27  C   UNL     1     -37.718  21.331  -0.043  0.00  0.00    +0.256 C 
ENDBRANCH  25  26
ENDBRANCH  23  25
ENDBRANCH  22  23
ENDBRANCH   7  22
TORSDOF 9
ENDMDL
MODEL 4
REMARK VINA RESULT:      -5.5      2.045      4.789
REMARK  Name = 191808
REMARK  9 active torsions:
REMARK  status: ('A' for Active; 'I' for Inactive)
REMARK    1  A    between atoms: N_3  and  C1*_13
REMARK    2  A    between atoms: C_7  and  O_22
REMARK    3  A    between atoms: C2*_11  and  O2*_15
REMARK    4  A    between atoms: C3*_12  and  O3*_17
REMARK    5  A    between atoms: C4*_14  and  C5*_19
REMARK    6  A    between atoms: C5*_19  and  O5*_20
REMARK    7  A    between atoms: O_22  and  C_23
REMARK    8  A    between atoms: C_23  and  C_25
REMARK    9  A    between atoms: C_25  and  O_26
REMARK                            x       y       z     vdW  Elec       q    Type
REMARK                         _______ _______ _______ _____ _____    ______ ____
ROOT
ATOM      1  O   UNL     1     -35.152  21.023   5.667  0.00  0.00    -0.252 OA
ATOM      2  O   UNL     1     -35.476  25.615   5.826  0.00  0.00    -0.266 OA
ATOM      3  N   UNL     1     -35.867  22.141   3.745  0.00  0.00    -0.214 N 
ATOM      4  N   UNL     1     -35.314  23.312   5.738  0.00  0.00    -0.233 N 
ATOM      5  C   UNL     1     -36.157  23.370   3.163  0.00  0.00    +0.113 C 
ATOM      6  C   UNL     1     -35.426  22.076   5.087  0.00  0.00    +0.316 C 
ATOM      7  C   UNL     1     -36.046  24.542   3.795  0.00  0.00    +0.208 C 
ATOM      8  C   UNL     1     -35.589  24.561   5.204  0.00  0.00    +0.288 C 
ATOM      9  H   UNL     1     -35.008  23.290   6.673  0.00  0.00    +0.160 HD
ENDROOT
BRANCH   3  13
ATOM     10  O4* UNL     1     -34.747  20.577   2.418  0.00  0.00    -0.333 OA
ATOM     11  C2* UNL     1     -36.978  21.101   1.816  0.00  0.00    +0.187 C 
ATOM     12  C3* UNL     1     -36.424  20.114   0.811  0.00  0.00    +0.171 C 
ATOM     13  C1* UNL     1     -36.019  20.934   2.982  0.00  0.00    +0.229 C 
ATOM     14  C4* UNL     1     -34.922  20.252   1.021  0.00  0.00    +0.175 C 
BRANCH  11  15
ATOM     15  O2* UNL     1     -38.316  20.815   2.169  0.00  0.00    -0.378 OA
ATOM     16  H2* UNL     1     -38.370  20.647   3.123  0.00  0.00    +0.211 HD
ENDBRANCH  11  15
BRANCH  12  17
ATOM     17  O3* UNL     1     -36.797  18.783   1.166  0.00  0.00    -0.379 OA
ATOM     18  H3* UNL     1     -36.841  18.235   0.366  0.00  0.00    +0.211 HD
ENDBRANCH  12  17
BRANCH  14  19
ATOM     19  C5* UNL     1     -34.299  21.367   0.193  0.00  0.00    +0.169 C 
BRANCH  19  20
ATOM     20  O5* UNL     1     -32.905  21.132   0.092  0.00  0.00    -0.379 OA
ATOM     21  H5* UNL     1     -32.690  20.280   0.504  0.00  0.00    +0.211 HD
ENDBRANCH  19  20
ENDBRANCH  14  19
ENDBRANCH   3  13
BRANCH   7  22
ATOM     22  O   UNL     1     -36.337  25.750   3.203  0.00  0.00    -0.458 OA
BRANCH  22  23
ATOM     23  C   UNL     1     -37.035  25.562   1.986  0.00  0.00    +0.314 C 
BRANCH  23  25
ATOM     24  O   UNL     1     -38.353  27.377   1.068  0.00  0.00    -0.246 OA
ATOM     25  C   UNL     1     -38.189  26.527   1.933  0.00  0.00    +0.362 C 
BRANCH  25  26
ATOM     26  O   UNL     1     -39.011  26.297   2.999  0.00  0.00    -0.442 OA
ATOM     27  C   UNL     1     -39.746  25.069   2.957  0.00  0.00    +0.256 C 
ENDBRANCH  25  26
ENDBRANCH  23  25
ENDBRANCH  22  23
ENDBRANCH   7  22
TORSDOF 9
ENDMDL
MODEL 5
REMARK VINA RESULT:      -5.5      2.593      4.891
REMARK  Name = 191808
REMARK  9 active torsions:
REMARK  status: ('A' for Active; 'I' for Inactive)
REMARK    1  A    between atoms: N_3  and  C1*_13
REMARK    2  A    between atoms: C_7  and  O_22
REMARK    3  A    between atoms: C2*_11  and  O2*_15
REMARK    4  A    between atoms: C3*_12  and  O3*_17
REMARK    5  A    between atoms: C4*_14  and  C5*_19
REMARK    6  A    between atoms: C5*_19  and  O5*_20
REMARK    7  A    between atoms: O_22  and  C_23
REMARK    8  A    between atoms: C_23  and  C_25
REMARK    9  A    between atoms: C_25  and  O_26
REMARK                            x       y       z     vdW  Elec       q    Type
REMARK                         _______ _______ _______ _____ _____    ______ ____
ROOT
ATOM      1  O   UNL     1     -37.632  26.364   2.096  0.00  0.00    -0.252 OA
ATOM      2  O   UNL     1     -34.209  29.220   3.252  0.00  0.00    -0.266 OA
ATOM      3  N   UNL     1     -35.749  25.456   3.138  0.00  0.00    -0.214 N 
ATOM      4  N   UNL     1     -35.923  27.781   2.677  0.00  0.00    -0.233 N 
ATOM      5  C   UNL     1     -34.498  25.710   3.690  0.00  0.00    +0.113 C 
ATOM      6  C   UNL     1     -36.517  26.514   2.601  0.00  0.00    +0.316 C 
ATOM      7  C   UNL     1     -33.942  26.923   3.756  0.00  0.00    +0.208 C 
ATOM      8  C   UNL     1     -34.682  28.087   3.215  0.00  0.00    +0.288 C 
ATOM      9  H   UNL     1     -36.441  28.533   2.309  0.00  0.00    +0.160 HD
ENDROOT
BRANCH   3  13
ATOM     10  O4* UNL     1     -36.571  23.709   4.455  0.00  0.00    -0.333 OA
ATOM     11  C2* UNL     1     -35.247  23.117   2.582  0.00  0.00    +0.187 C 
ATOM     12  C3* UNL     1     -35.635  21.853   3.319  0.00  0.00    +0.171 C 
ATOM     13  C1* UNL     1     -36.261  24.115   3.112  0.00  0.00    +0.229 C 
ATOM     14  C4* UNL     1     -36.028  22.390   4.689  0.00  0.00    +0.175 C 
BRANCH  11  15
ATOM     15  O2* UNL     1     -35.319  22.963   1.179  0.00  0.00    -0.378 OA
ATOM     16  H2* UNL     1     -36.223  23.151   0.880  0.00  0.00    +0.211 HD
ENDBRANCH  11  15
BRANCH  12  17
ATOM     17  O3* UNL     1     -36.795  21.269   2.727  0.00  0.00    -0.379 OA
ATOM     18  H3* UNL     1     -37.556  21.856   2.862  0.00  0.00    +0.211 HD
ENDBRANCH  12  17
BRANCH  14  19
ATOM     19  C5* UNL     1     -34.850  22.525   5.643  0.00  0.00    +0.169 C 
BRANCH  19  20
ATOM     20  O5* UNL     1     -34.616  21.268   6.255  0.00  0.00    -0.379 OA
ATOM     21  H5* UNL     1     -35.464  20.842   6.454  0.00  0.00    +0.211 HD
ENDBRANCH  19  20
ENDBRANCH  14  19
ENDBRANCH   3  13
BRANCH   7  22
ATOM     22  O   UNL     1     -32.702  27.157   4.306  0.00  0.00    -0.458 OA
BRANCH  22  23
ATOM     23  C   UNL     1     -32.788  27.276   5.714  0.00  0.00    +0.314 C 
BRANCH  23  25
ATOM     24  O   UNL     1     -30.518  27.854   6.336  0.00  0.00    -0.246 OA
ATOM     25  C   UNL     1     -31.687  28.184   6.194  0.00  0.00    +0.362 C 
BRANCH  25  26
ATOM     26  O   UNL     1     -32.209  29.422   6.440  0.00  0.00    -0.442 OA
ATOM     27  C   UNL     1     -31.709  30.477   5.611  0.00  0.00    +0.256 C 
ENDBRANCH  25  26
ENDBRANCH  23  25
ENDBRANCH  22  23
ENDBRANCH   7  22
TORSDOF 9
ENDMDL
MODEL 6
REMARK VINA RESULT:      -5.5      1.656      2.896
REMARK  Name = 191808
REMARK  9 active torsions:
REMARK  status: ('A' for Active; 'I' for Inactive)
REMARK    1  A    between atoms: N_3  and  C1*_13
REMARK    2  A    between atoms: C_7  and  O_22
REMARK    3  A    between atoms: C2*_11  and  O2*_15
REMARK    4  A    between atoms: C3*_12  and  O3*_17
REMARK    5  A    between atoms: C4*_14  and  C5*_19
REMARK    6  A    between atoms: C5*_19  and  O5*_20
REMARK    7  A    between atoms: O_22  and  C_23
REMARK    8  A    between atoms: C_23  and  C_25
REMARK    9  A    between atoms: C_25  and  O_26
REMARK                            x       y       z     vdW  Elec       q    Type
REMARK                         _______ _______ _______ _____ _____    ______ ____
ROOT
ATOM      1  O   UNL     1     -40.238  21.149   1.776  0.00  0.00    -0.252 OA
ATOM      2  O   UNL     1     -35.804  20.176   2.549  0.00  0.00    -0.266 OA
ATOM      3  N   UNL     1     -38.784  22.924   2.212  0.00  0.00    -0.214 N 
ATOM      4  N   UNL     1     -38.026  20.672   2.161  0.00  0.00    -0.233 N 
ATOM      5  C   UNL     1     -37.478  23.305   2.498  0.00  0.00    +0.113 C 
ATOM      6  C   UNL     1     -39.104  21.559   2.030  0.00  0.00    +0.316 C 
ATOM      7  C   UNL     1     -36.459  22.449   2.620  0.00  0.00    +0.208 C 
ATOM      8  C   UNL     1     -36.709  20.999   2.444  0.00  0.00    +0.288 C 
ATOM      9  H   UNL     1     -38.226  19.716   2.038  0.00  0.00    +0.160 HD
ENDROOT
BRANCH   3  13
ATOM     10  O4* UNL     1     -39.834  24.421   0.756  0.00  0.00    -0.333 OA
ATOM     11  C2* UNL     1     -39.561  25.116   3.004  0.00  0.00    +0.187 C 
ATOM     12  C3* UNL     1     -40.213  26.239   2.226  0.00  0.00    +0.171 C 
ATOM     13  C1* UNL     1     -39.813  23.921   2.102  0.00  0.00    +0.229 C 
ATOM     14  C4* UNL     1     -39.882  25.865   0.788  0.00  0.00    +0.175 C 
BRANCH  11  15
ATOM     15  O2* UNL     1     -40.126  24.955   4.289  0.00  0.00    -0.378 OA
ATOM     16  H2* UNL     1     -39.892  25.717   4.843  0.00  0.00    +0.211 HD
ENDBRANCH  11  15
BRANCH  12  17
ATOM     17  O3* UNL     1     -41.631  26.189   2.378  0.00  0.00    -0.379 OA
ATOM     18  H3* UNL     1     -41.892  26.717   3.150  0.00  0.00    +0.211 HD
ENDBRANCH  12  17
BRANCH  14  19
ATOM     19  C5* UNL     1     -38.533  26.394   0.323  0.00  0.00    +0.169 C 
BRANCH  19  20
ATOM     20  O5* UNL     1     -38.298  27.646   0.945  0.00  0.00    -0.379 OA
ATOM     21  H5* UNL     1     -38.337  27.540   1.909  0.00  0.00    +0.211 HD
ENDBRANCH  19  20
ENDBRANCH  14  19
ENDBRANCH   3  13
BRANCH   7  22
ATOM     22  O   UNL     1     -35.171  22.843   2.903  0.00  0.00    -0.458 OA
BRANCH  22  23
ATOM     23  C   UNL     1     -35.144  24.176   3.379  0.00  0.00    +0.314 C 
BRANCH  23  25
ATOM     24  O   UNL     1     -35.090  23.480   5.700  0.00  0.00    -0.246 OA
ATOM     25  C   UNL     1     -34.643  24.176   4.799  0.00  0.00    +0.362 C 
BRANCH  25  26
ATOM     26  O   UNL     1     -33.619  25.074   4.909  0.00  0.00    -0.442 OA
ATOM     27  C   UNL     1     -33.897  26.231   5.704  0.00  0.00    +0.256 C 
ENDBRANCH  25  26
ENDBRANCH  23  25
ENDBRANCH  22  23
ENDBRANCH   7  22
TORSDOF 9
ENDMDL
MODEL 7
REMARK VINA RESULT:      -5.3      1.756      5.376
REMARK  Name = 191808
REMARK  9 active torsions:
REMARK  status: ('A' for Active; 'I' for Inactive)
REMARK    1  A    between atoms: N_3  and  C1*_13
REMARK    2  A    between atoms: C_7  and  O_22
REMARK    3  A    between atoms: C2*_11  and  O2*_15
REMARK    4  A    between atoms: C3*_12  and  O3*_17
REMARK    5  A    between atoms: C4*_14  and  C5*_19
REMARK    6  A    between atoms: C5*_19  and  O5*_20
REMARK    7  A    between atoms: O_22  and  C_23
REMARK    8  A    between atoms: C_23  and  C_25
REMARK    9  A    between atoms: C_25  and  O_26
REMARK                            x       y       z     vdW  Elec       q    Type
REMARK                         _______ _______ _______ _____ _____    ______ ____
ROOT
ATOM      1  O   UNL     1     -35.631  20.741   2.564  0.00  0.00    -0.252 OA
ATOM      2  O   UNL     1     -40.147  21.227   1.802  0.00  0.00    -0.266 OA
ATOM      3  N   UNL     1     -36.567  22.865   2.827  0.00  0.00    -0.214 N 
ATOM      4  N   UNL     1     -37.881  20.991   2.188  0.00  0.00    -0.233 N 
ATOM      5  C   UNL     1     -37.724  23.634   2.766  0.00  0.00    +0.113 C 
ATOM      6  C   UNL     1     -36.615  21.483   2.531  0.00  0.00    +0.316 C 
ATOM      7  C   UNL     1     -38.926  23.152   2.437  0.00  0.00    +0.208 C 
ATOM      8  C   UNL     1     -39.063  21.713   2.112  0.00  0.00    +0.288 C 
ATOM      9  H   UNL     1     -37.938  20.031   1.978  0.00  0.00    +0.160 HD
ENDROOT
BRANCH   3  13
ATOM     10  O4* UNL     1     -35.260  23.598   4.620  0.00  0.00    -0.333 OA
ATOM     11  C2* UNL     1     -35.177  24.880   2.630  0.00  0.00    +0.187 C 
ATOM     12  C3* UNL     1     -34.303  25.547   3.672  0.00  0.00    +0.171 C 
ATOM     13  C1* UNL     1     -35.320  23.476   3.191  0.00  0.00    +0.229 C 
ATOM     14  C4* UNL     1     -34.824  24.932   4.964  0.00  0.00    +0.175 C 
BRANCH  11  15
ATOM     15  O2* UNL     1     -34.586  24.894   1.346  0.00  0.00    -0.378 OA
ATOM     16  H2* UNL     1     -35.255  25.132   0.685  0.00  0.00    +0.211 HD
ENDBRANCH  11  15
BRANCH  12  17
ATOM     17  O3* UNL     1     -32.944  25.144   3.510  0.00  0.00    -0.379 OA
ATOM     18  H3* UNL     1     -32.899  24.401   2.889  0.00  0.00    +0.211 HD
ENDBRANCH  12  17
BRANCH  14  19
ATOM     19  C5* UNL     1     -36.011  25.682   5.552  0.00  0.00    +0.169 C 
BRANCH  19  20
ATOM     20  O5* UNL     1     -36.026  26.996   5.020  0.00  0.00    -0.379 OA
ATOM     21  H5* UNL     1     -36.938  27.328   5.004  0.00  0.00    +0.211 HD
ENDBRANCH  19  20
ENDBRANCH  14  19
ENDBRANCH   3  13
BRANCH   7  22
ATOM     22  O   UNL     1     -40.062  23.928   2.381  0.00  0.00    -0.458 OA
BRANCH  22  23
ATOM     23  C   UNL     1     -39.990  24.853   1.312  0.00  0.00    +0.314 C 
BRANCH  23  25
ATOM     24  O   UNL     1     -40.521  26.581   2.927  0.00  0.00    -0.246 OA
ATOM     25  C   UNL     1     -39.989  26.249   1.876  0.00  0.00    +0.362 C 
BRANCH  25  26
ATOM     26  O   UNL     1     -39.303  27.071   1.028  0.00  0.00    -0.442 OA
ATOM     27  C   UNL     1     -37.878  26.933   1.054  0.00  0.00    +0.256 C 
ENDBRANCH  25  26
ENDBRANCH  23  25
ENDBRANCH  22  23
ENDBRANCH   7  22
TORSDOF 9
ENDMDL
MODEL 8
REMARK VINA RESULT:      -5.3      1.929      2.912
REMARK  Name = 191808
REMARK  9 active torsions:
REMARK  status: ('A' for Active; 'I' for Inactive)
REMARK    1  A    between atoms: N_3  and  C1*_13
REMARK    2  A    between atoms: C_7  and  O_22
REMARK    3  A    between atoms: C2*_11  and  O2*_15
REMARK    4  A    between atoms: C3*_12  and  O3*_17
REMARK    5  A    between atoms: C4*_14  and  C5*_19
REMARK    6  A    between atoms: C5*_19  and  O5*_20
REMARK    7  A    between atoms: O_22  and  C_23
REMARK    8  A    between atoms: C_23  and  C_25
REMARK    9  A    between atoms: C_25  and  O_26
REMARK                            x       y       z     vdW  Elec       q    Type
REMARK                         _______ _______ _______ _____ _____    ______ ____
ROOT
ATOM      1  O   UNL     1     -37.145  20.841  -0.984  0.00  0.00    -0.252 OA
ATOM      2  O   UNL     1     -33.957  19.492   2.053  0.00  0.00    -0.266 OA
ATOM      3  N   UNL     1     -37.324  21.615   1.212  0.00  0.00    -0.214 N 
ATOM      4  N   UNL     1     -35.560  20.174   0.535  0.00  0.00    -0.233 N 
ATOM      5  C   UNL     1     -36.775  21.605   2.490  0.00  0.00    +0.113 C 
ATOM      6  C   UNL     1     -36.714  20.879   0.170  0.00  0.00    +0.316 C 
ATOM      7  C   UNL     1     -35.673  20.929   2.825  0.00  0.00    +0.208 C 
ATOM      8  C   UNL     1     -34.972  20.131   1.790  0.00  0.00    +0.288 C 
ATOM      9  H   UNL     1     -35.118  19.655  -0.175  0.00  0.00    +0.160 HD
ENDROOT
BRANCH   3  13
ATOM     10  O4* UNL     1     -38.174  23.767   0.882  0.00  0.00    -0.333 OA
ATOM     11  C2* UNL     1     -39.546  22.235   2.058  0.00  0.00    +0.187 C 
ATOM     12  C3* UNL     1     -40.256  23.571   1.994  0.00  0.00    +0.171 C 
ATOM     13  C1* UNL     1     -38.515  22.373   0.951  0.00  0.00    +0.229 C 
ATOM     14  C4* UNL     1     -39.113  24.525   1.677  0.00  0.00    +0.175 C 
BRANCH  11  15
ATOM     15  O2* UNL     1     -40.426  21.149   1.847  0.00  0.00    -0.378 OA
ATOM     16  H2* UNL     1     -40.191  20.699   1.019  0.00  0.00    +0.211 HD
ENDBRANCH  11  15
BRANCH  12  17
ATOM     17  O3* UNL     1     -41.167  23.596   0.896  0.00  0.00    -0.379 OA
ATOM     18  H3* UNL     1     -42.075  23.665   1.232  0.00  0.00    +0.211 HD
ENDBRANCH  12  17
BRANCH  14  19
ATOM     19  C5* UNL     1     -38.386  25.026   2.917  0.00  0.00    +0.169 C 
BRANCH  19  20
ATOM     20  O5* UNL     1     -38.879  26.315   3.242  0.00  0.00    -0.379 OA
ATOM     21  H5* UNL     1     -39.591  26.233   3.896  0.00  0.00    +0.211 HD
ENDBRANCH  19  20
ENDBRANCH  14  19
ENDBRANCH   3  13
BRANCH   7  22
ATOM     22  O   UNL     1     -35.142  20.930   4.095  0.00  0.00    -0.458 OA
BRANCH  22  23
ATOM     23  C   UNL     1     -34.831  22.246   4.511  0.00  0.00    +0.314 C 
BRANCH  23  25
ATOM     24  O   UNL     1     -35.999  21.837   6.596  0.00  0.00    -0.246 OA
ATOM     25  C   UNL     1     -35.698  22.602   5.689  0.00  0.00    +0.362 C 
BRANCH  25  26
ATOM     26  O   UNL     1     -36.088  23.906   5.575  0.00  0.00    -0.442 OA
ATOM     27  C   UNL     1     -35.074  24.817   5.141  0.00  0.00    +0.256 C 
ENDBRANCH  25  26
ENDBRANCH  23  25
ENDBRANCH  22  23
ENDBRANCH   7  22
TORSDOF 9
ENDMDL
MODEL 9
REMARK VINA RESULT:      -5.3      2.346      4.007
REMARK  Name = 191808
REMARK  9 active torsions:
REMARK  status: ('A' for Active; 'I' for Inactive)
REMARK    1  A    between atoms: N_3  and  C1*_13
REMARK    2  A    between atoms: C_7  and  O_22
REMARK    3  A    between atoms: C2*_11  and  O2*_15
REMARK    4  A    between atoms: C3*_12  and  O3*_17
REMARK    5  A    between atoms: C4*_14  and  C5*_19
REMARK    6  A    between atoms: C5*_19  and  O5*_20
REMARK    7  A    between atoms: O_22  and  C_23
REMARK    8  A    between atoms: C_23  and  C_25
REMARK    9  A    between atoms: C_25  and  O_26
REMARK                            x       y       z     vdW  Elec       q    Type
REMARK                         _______ _______ _______ _____ _____    ______ ____
ROOT
ATOM      1  O   UNL     1     -35.153  21.148   5.593  0.00  0.00    -0.252 OA
ATOM      2  O   UNL     1     -35.766  25.699   5.943  0.00  0.00    -0.266 OA
ATOM      3  N   UNL     1     -35.989  22.289   3.735  0.00  0.00    -0.214 N 
ATOM      4  N   UNL     1     -35.460  23.416   5.759  0.00  0.00    -0.233 N 
ATOM      5  C   UNL     1     -36.371  23.518   3.209  0.00  0.00    +0.113 C 
ATOM      6  C   UNL     1     -35.509  22.202   5.062  0.00  0.00    +0.316 C 
ATOM      7  C   UNL     1     -36.320  24.670   3.885  0.00  0.00    +0.208 C 
ATOM      8  C   UNL     1     -35.829  24.665   5.283  0.00  0.00    +0.288 C 
ATOM      9  H   UNL     1     -35.129  23.378   6.685  0.00  0.00    +0.160 HD
ENDROOT
BRANCH   3  13
ATOM     10  O4* UNL     1     -34.835  20.908   2.244  0.00  0.00    -0.333 OA
ATOM     11  C2* UNL     1     -37.151  21.218   1.854  0.00  0.00    +0.187 C 
ATOM     12  C3* UNL     1     -36.589  20.336   0.759  0.00  0.00    +0.171 C 
ATOM     13  C1* UNL     1     -36.082  21.105   2.927  0.00  0.00    +0.229 C 
ATOM     14  C4* UNL     1     -35.097  20.624   0.851  0.00  0.00    +0.175 C 
BRANCH  11  15
ATOM     15  O2* UNL     1     -38.417  20.777   2.301  0.00  0.00    -0.378 OA
ATOM     16  H2* UNL     1     -38.598  19.894   1.942  0.00  0.00    +0.211 HD
ENDBRANCH  11  15
BRANCH  12  17
ATOM     17  O3* UNL     1     -36.792  18.960   1.077  0.00  0.00    -0.379 OA
ATOM     18  H3* UNL     1     -36.813  18.851   2.041  0.00  0.00    +0.211 HD
ENDBRANCH  12  17
BRANCH  14  19
ATOM     19  C5* UNL     1     -34.665  21.832   0.031  0.00  0.00    +0.169 C 
BRANCH  19  20
ATOM     20  O5* UNL     1     -35.398  21.842  -1.182  0.00  0.00    -0.379 OA
ATOM     21  H5* UNL     1     -36.178  22.411  -1.084  0.00  0.00    +0.211 HD
ENDBRANCH  19  20
ENDBRANCH  14  19
ENDBRANCH   3  13
BRANCH   7  22
ATOM     22  O   UNL     1     -36.703  25.878   3.349  0.00  0.00    -0.458 OA
BRANCH  22  23
ATOM     23  C   UNL     1     -35.846  26.255   2.288  0.00  0.00    +0.314 C 
BRANCH  23  25
ATOM     24  O   UNL     1     -34.803  28.018   3.583  0.00  0.00    -0.246 OA
ATOM     25  C   UNL     1     -34.694  27.045   2.849  0.00  0.00    +0.362 C 
BRANCH  25  26
ATOM     26  O   UNL     1     -33.523  26.500   2.405  0.00  0.00    -0.442 OA
ATOM     27  C   UNL     1     -33.654  25.505   1.385  0.00  0.00    +0.256 C 
ENDBRANCH  25  26
ENDBRANCH  23  25
ENDBRANCH  22  23
ENDBRANCH   7  22
TORSDOF 9
ENDMDL
