MODEL 1
REMARK VINA RESULT:      -5.8      0.000      0.000
REMARK  Name = 21603508
REMARK  11 active torsions:
REMARK  status: ('A' for Active; 'I' for Inactive)
REMARK    1  A    between atoms: C_5  and  O_31
REMARK    2  A    between atoms: C_6  and  C_33
REMARK    3  A    between atoms: C_9  and  N_14
REMARK    4  A    between atoms: C_15  and  C_17
REMARK    5  A    between atoms: C_17  and  C_19
REMARK    6  A    between atoms: C_17  and  O_29
REMARK    7  A    between atoms: C_19  and  O_27
REMARK    8  A    between atoms: C_33  and  C_34
REMARK    9  A    between atoms: C_34  and  O_35
REMARK   10  A    between atoms: C_34  and  C_37
REMARK   11  A    between atoms: C_37  and  O_38
REMARK                            x       y       z     vdW  Elec       q    Type
REMARK                         _______ _______ _______ _____ _____    ______ ____
ROOT
ATOM      1  O   UNL     1     -35.014  28.215   3.392  0.00  0.00    -0.352 OA
ATOM      2  O   UNL     1     -33.132  26.807   5.183  0.00  0.00    -0.324 OA
ATOM      3  O   UNL     1     -35.410  26.453   5.740  0.00  0.00    -0.308 OA
ATOM      4  C   UNL     1     -32.699  28.796   2.784  0.00  0.00    +0.052 C 
ATOM      5  C   UNL     1     -32.318  27.297   2.967  0.00  0.00    +0.142 C 
ATOM      6  C   UNL     1     -34.213  28.963   2.467  0.00  0.00    +0.120 C 
ATOM      7  C   UNL     1     -33.331  26.497   3.802  0.00  0.00    +0.176 C 
ATOM      8  C   UNL     1     -34.779  26.801   3.396  0.00  0.00    +0.191 C 
ATOM      9  C   UNL     1     -35.783  26.192   4.386  0.00  0.00    +0.224 C 
ATOM     10  C   UNL     1     -31.821  29.448   1.695  0.00  0.00    +0.005 C 
ATOM     11  C   UNL     1     -32.411  29.557   4.105  0.00  0.00    +0.005 C 
ATOM     12  C   UNL     1     -34.055  26.105   6.007  0.00  0.00    +0.295 C 
ENDROOT
BRANCH   9  14
ATOM     13  O   UNL     1     -38.019  24.906   3.119  0.00  0.00    -0.272 OA
ATOM     14  N   UNL     1     -35.965  24.776   4.192  0.00  0.00    -0.279 N 
ATOM     15  C   UNL     1     -37.084  24.245   3.565  0.00  0.00    +0.256 C 
ATOM     16  H   UNL     1     -35.268  24.162   4.516  0.00  0.00    +0.152 HD
BRANCH  15  17
ATOM     17  C   UNL     1     -37.031  22.728   3.461  0.00  0.00    +0.239 C 
BRANCH  17  19
ATOM     18  O   UNL     1     -35.389  23.209   1.818  0.00  0.00    -0.334 OA
ATOM     19  C   UNL     1     -35.710  22.263   2.849  0.00  0.00    +0.224 C 
ATOM     20  C   UNL     1     -35.874  20.843   2.277  0.00  0.00    +0.081 C 
ATOM     21  C   UNL     1     -34.331  21.535   0.370  0.00  0.00    +0.046 C 
ATOM     22  C   UNL     1     -34.187  22.884   1.105  0.00  0.00    +0.121 C 
ATOM     23  C   UNL     1     -34.703  20.484   1.396  0.00  0.00    -0.037 C 
ATOM     24  C   UNL     1     -35.365  21.557  -0.762  0.00  0.00    +0.007 C 
ATOM     25  C   UNL     1     -33.884  24.048   0.167  0.00  0.00    +0.032 C 
ATOM     26  C   UNL     1     -34.018  19.339   1.539  0.00  0.00    -0.009 C 
BRANCH  19  27
ATOM     27  O   UNL     1     -34.759  22.279   3.917  0.00  0.00    -0.329 OA
ATOM     28  C   UNL     1     -35.179  21.453   4.989  0.00  0.00    +0.177 C 
ENDBRANCH  19  27
ENDBRANCH  17  19
BRANCH  17  29
ATOM     29  O   UNL     1     -38.088  22.280   2.629  0.00  0.00    -0.372 OA
ATOM     30  H   UNL     1     -37.735  22.045   1.757  0.00  0.00    +0.211 HD
ENDBRANCH  17  29
ENDBRANCH  15  17
ENDBRANCH   9  14
BRANCH   5  31
ATOM     31  O   UNL     1     -32.147  26.653   1.702  0.00  0.00    -0.382 OA
ATOM     32  H   UNL     1     -31.581  25.873   1.810  0.00  0.00    +0.210 HD
ENDBRANCH   5  31
BRANCH   6  33
ATOM     33  C   UNL     1     -34.660  28.694   1.029  0.00  0.00    +0.061 C 
BRANCH  33  34
ATOM     34  C   UNL     1     -36.083  29.183   0.768  0.00  0.00    +0.142 C 
BRANCH  34  35
ATOM     35  O   UNL     1     -36.533  29.924   1.902  0.00  0.00    -0.382 OA
ATOM     36  H   UNL     1     -37.475  30.133   1.800  0.00  0.00    +0.210 HD
ENDBRANCH  34  35
BRANCH  34  37
ATOM     37  C   UNL     1     -37.031  28.010   0.542  0.00  0.00    +0.166 C 
BRANCH  37  38
ATOM     38  O   UNL     1     -37.606  27.607   1.780  0.00  0.00    -0.379 OA
ATOM     39  H   UNL     1     -37.573  28.345   2.408  0.00  0.00    +0.211 HD
ENDBRANCH  37  38
ENDBRANCH  34  37
ENDBRANCH  33  34
ENDBRANCH   6  33
TORSDOF 11
ENDMDL
MODEL 2
REMARK VINA RESULT:      -5.5      2.388      4.881
REMARK  Name = 21603508
REMARK  11 active torsions:
REMARK  status: ('A' for Active; 'I' for Inactive)
REMARK    1  A    between atoms: C_5  and  O_31
REMARK    2  A    between atoms: C_6  and  C_33
REMARK    3  A    between atoms: C_9  and  N_14
REMARK    4  A    between atoms: C_15  and  C_17
REMARK    5  A    between atoms: C_17  and  C_19
REMARK    6  A    between atoms: C_17  and  O_29
REMARK    7  A    between atoms: C_19  and  O_27
REMARK    8  A    between atoms: C_33  and  C_34
REMARK    9  A    between atoms: C_34  and  O_35
REMARK   10  A    between atoms: C_34  and  C_37
REMARK   11  A    between atoms: C_37  and  O_38
REMARK                            x       y       z     vdW  Elec       q    Type
REMARK                         _______ _______ _______ _____ _____    ______ ____
ROOT
ATOM      1  O   UNL     1     -31.524  29.140   2.853  0.00  0.00    -0.352 OA
ATOM      2  O   UNL     1     -33.605  30.946   3.921  0.00  0.00    -0.324 OA
ATOM      3  O   UNL     1     -34.431  29.383   2.342  0.00  0.00    -0.308 OA
ATOM      4  C   UNL     1     -30.493  30.793   4.359  0.00  0.00    +0.052 C 
ATOM      5  C   UNL     1     -31.687  30.587   5.338  0.00  0.00    +0.142 C 
ATOM      6  C   UNL     1     -30.285  29.551   3.445  0.00  0.00    +0.120 C 
ATOM      7  C   UNL     1     -32.921  29.948   4.683  0.00  0.00    +0.176 C 
ATOM      8  C   UNL     1     -32.547  28.762   3.783  0.00  0.00    +0.191 C 
ATOM      9  C   UNL     1     -33.745  28.286   2.948  0.00  0.00    +0.224 C 
ATOM     10  C   UNL     1     -29.207  31.140   5.139  0.00  0.00    +0.005 C 
ATOM     11  C   UNL     1     -30.796  32.006   3.438  0.00  0.00    +0.005 C 
ATOM     12  C   UNL     1     -34.752  30.408   3.277  0.00  0.00    +0.295 C 
ENDROOT
BRANCH   9  14
ATOM     13  O   UNL     1     -33.192  25.785   4.251  0.00  0.00    -0.272 OA
ATOM     14  N   UNL     1     -34.672  27.489   3.711  0.00  0.00    -0.279 N 
ATOM     15  C   UNL     1     -34.311  26.289   4.307  0.00  0.00    +0.256 C 
ATOM     16  H   UNL     1     -35.597  27.810   3.814  0.00  0.00    +0.152 HD
BRANCH  15  17
ATOM     17  C   UNL     1     -35.459  25.649   5.075  0.00  0.00    +0.239 C 
BRANCH  17  19
ATOM     18  O   UNL     1     -35.300  24.299   3.131  0.00  0.00    -0.334 OA
ATOM     19  C   UNL     1     -36.183  24.610   4.220  0.00  0.00    +0.224 C 
ATOM     20  C   UNL     1     -37.516  25.191   3.713  0.00  0.00    +0.081 C 
ATOM     21  C   UNL     1     -37.121  23.941   1.528  0.00  0.00    +0.046 C 
ATOM     22  C   UNL     1     -35.858  23.362   2.199  0.00  0.00    +0.121 C 
ATOM     23  C   UNL     1     -38.095  24.325   2.623  0.00  0.00    -0.037 C 
ATOM     24  C   UNL     1     -36.841  25.147   0.623  0.00  0.00    +0.007 C 
ATOM     25  C   UNL     1     -34.761  23.002   1.202  0.00  0.00    +0.032 C 
ATOM     26  C   UNL     1     -39.365  23.894   2.644  0.00  0.00    -0.009 C 
BRANCH  19  27
ATOM     27  O   UNL     1     -36.405  23.487   5.077  0.00  0.00    -0.329 OA
ATOM     28  C   UNL     1     -35.236  23.163   5.810  0.00  0.00    +0.177 C 
ENDBRANCH  19  27
ENDBRANCH  17  19
BRANCH  17  29
ATOM     29  O   UNL     1     -36.393  26.652   5.440  0.00  0.00    -0.372 OA
ATOM     30  H   UNL     1     -36.500  26.659   6.404  0.00  0.00    +0.211 HD
ENDBRANCH  17  29
ENDBRANCH  15  17
ENDBRANCH   9  14
BRANCH   5  31
ATOM     31  O   UNL     1     -31.296  29.797   6.463  0.00  0.00    -0.382 OA
ATOM     32  H   UNL     1     -30.341  29.893   6.610  0.00  0.00    +0.210 HD
ENDBRANCH   5  31
BRANCH   6  33
ATOM     33  C   UNL     1     -29.554  28.353   4.053  0.00  0.00    +0.061 C 
BRANCH  33  34
ATOM     34  C   UNL     1     -29.182  27.312   2.998  0.00  0.00    +0.142 C 
BRANCH  34  35
ATOM     35  O   UNL     1     -30.230  26.346   2.912  0.00  0.00    -0.382 OA
ATOM     36  H   UNL     1     -30.547  26.131   3.804  0.00  0.00    +0.210 HD
ENDBRANCH  34  35
BRANCH  34  37
ATOM     37  C   UNL     1     -27.887  26.597   3.369  0.00  0.00    +0.166 C 
BRANCH  37  38
ATOM     38  O   UNL     1     -28.070  25.188   3.282  0.00  0.00    -0.379 OA
ATOM     39  H   UNL     1     -28.295  24.946   2.370  0.00  0.00    +0.211 HD
ENDBRANCH  37  38
ENDBRANCH  34  37
ENDBRANCH  33  34
ENDBRANCH   6  33
TORSDOF 11
ENDMDL
MODEL 3
REMARK VINA RESULT:      -5.5      3.642      8.362
REMARK  Name = 21603508
REMARK  11 active torsions:
REMARK  status: ('A' for Active; 'I' for Inactive)
REMARK    1  A    between atoms: C_5  and  O_31
REMARK    2  A    between atoms: C_6  and  C_33
REMARK    3  A    between atoms: C_9  and  N_14
REMARK    4  A    between atoms: C_15  and  C_17
REMARK    5  A    between atoms: C_17  and  C_19
REMARK    6  A    between atoms: C_17  and  O_29
REMARK    7  A    between atoms: C_19  and  O_27
REMARK    8  A    between atoms: C_33  and  C_34
REMARK    9  A    between atoms: C_34  and  O_35
REMARK   10  A    between atoms: C_34  and  C_37
REMARK   11  A    between atoms: C_37  and  O_38
REMARK                            x       y       z     vdW  Elec       q    Type
REMARK                         _______ _______ _______ _____ _____    ______ ____
ROOT
ATOM      1  O   UNL     1     -39.695  19.940  -0.112  0.00  0.00    -0.352 OA
ATOM      2  O   UNL     1     -40.265  22.838  -0.217  0.00  0.00    -0.324 OA
ATOM      3  O   UNL     1     -39.855  22.035   1.976  0.00  0.00    -0.308 OA
ATOM      4  C   UNL     1     -40.244  20.594  -2.422  0.00  0.00    +0.052 C 
ATOM      5  C   UNL     1     -39.363  21.864  -2.229  0.00  0.00    +0.142 C 
ATOM      6  C   UNL     1     -39.816  19.453  -1.455  0.00  0.00    +0.120 C 
ATOM      7  C   UNL     1     -39.097  22.216  -0.757  0.00  0.00    +0.176 C 
ATOM      8  C   UNL     1     -38.726  20.980   0.073  0.00  0.00    +0.191 C 
ATOM      9  C   UNL     1     -38.701  21.294   1.576  0.00  0.00    +0.224 C 
ATOM     10  C   UNL     1     -40.208  20.129  -3.893  0.00  0.00    +0.005 C 
ATOM     11  C   UNL     1     -41.721  20.949  -2.103  0.00  0.00    +0.005 C 
ATOM     12  C   UNL     1     -40.083  23.174   1.153  0.00  0.00    +0.295 C 
ENDROOT
BRANCH   9  14
ATOM     13  O   UNL     1     -36.259  20.117   2.530  0.00  0.00    -0.272 OA
ATOM     14  N   UNL     1     -37.507  21.994   1.977  0.00  0.00    -0.279 N 
ATOM     15  C   UNL     1     -36.371  21.336   2.426  0.00  0.00    +0.256 C 
ATOM     16  H   UNL     1     -37.497  22.977   1.930  0.00  0.00    +0.152 HD
BRANCH  15  17
ATOM     17  C   UNL     1     -35.237  22.293   2.767  0.00  0.00    +0.239 C 
BRANCH  17  19
ATOM     18  O   UNL     1     -36.651  24.184   2.994  0.00  0.00    -0.334 OA
ATOM     19  C   UNL     1     -35.709  23.387   3.725  0.00  0.00    +0.224 C 
ATOM     20  C   UNL     1     -34.503  24.226   4.189  0.00  0.00    +0.081 C 
ATOM     21  C   UNL     1     -36.021  26.272   4.118  0.00  0.00    +0.046 C 
ATOM     22  C   UNL     1     -37.157  25.296   3.746  0.00  0.00    +0.121 C 
ATOM     23  C   UNL     1     -34.965  25.490   4.871  0.00  0.00    -0.037 C 
ATOM     24  C   UNL     1     -35.395  26.977   2.909  0.00  0.00    +0.007 C 
ATOM     25  C   UNL     1     -38.258  25.947   2.914  0.00  0.00    +0.032 C 
ATOM     26  C   UNL     1     -34.503  25.870   6.072  0.00  0.00    -0.009 C 
BRANCH  19  27
ATOM     27  O   UNL     1     -36.313  22.704   4.827  0.00  0.00    -0.329 OA
ATOM     28  C   UNL     1     -35.332  22.134   5.677  0.00  0.00    +0.177 C 
ENDBRANCH  19  27
ENDBRANCH  17  19
BRANCH  17  29
ATOM     29  O   UNL     1     -34.776  22.913   1.578  0.00  0.00    -0.372 OA
ATOM     30  H   UNL     1     -33.863  23.215   1.703  0.00  0.00    +0.211 HD
ENDBRANCH  17  29
ENDBRANCH  15  17
ENDBRANCH   9  14
BRANCH   5  31
ATOM     31  O   UNL     1     -38.112  21.727  -2.908  0.00  0.00    -0.382 OA
ATOM     32  H   UNL     1     -38.270  21.474  -3.831  0.00  0.00    +0.210 HD
ENDBRANCH   5  31
BRANCH   6  33
ATOM     33  C   UNL     1     -38.585  18.633  -1.844  0.00  0.00    +0.061 C 
BRANCH  33  34
ATOM     34  C   UNL     1     -38.710  17.171  -1.419  0.00  0.00    +0.142 C 
BRANCH  34  35
ATOM     35  O   UNL     1     -40.012  16.958  -0.873  0.00  0.00    -0.382 OA
ATOM     36  H   UNL     1     -40.609  16.647  -1.571  0.00  0.00    +0.210 HD
ENDBRANCH  34  35
BRANCH  34  37
ATOM     37  C   UNL     1     -37.671  16.819  -0.359  0.00  0.00    +0.166 C 
BRANCH  37  38
ATOM     38  O   UNL     1     -37.405  17.957   0.454  0.00  0.00    -0.379 OA
ATOM     39  H   UNL     1     -38.154  18.570   0.408  0.00  0.00    +0.211 HD
ENDBRANCH  37  38
ENDBRANCH  34  37
ENDBRANCH  33  34
ENDBRANCH   6  33
TORSDOF 11
ENDMDL
MODEL 4
REMARK VINA RESULT:      -5.4      2.158      7.780
REMARK  Name = 21603508
REMARK  11 active torsions:
REMARK  status: ('A' for Active; 'I' for Inactive)
REMARK    1  A    between atoms: C_5  and  O_31
REMARK    2  A    between atoms: C_6  and  C_33
REMARK    3  A    between atoms: C_9  and  N_14
REMARK    4  A    between atoms: C_15  and  C_17
REMARK    5  A    between atoms: C_17  and  C_19
REMARK    6  A    between atoms: C_17  and  O_29
REMARK    7  A    between atoms: C_19  and  O_27
REMARK    8  A    between atoms: C_33  and  C_34
REMARK    9  A    between atoms: C_34  and  O_35
REMARK   10  A    between atoms: C_34  and  C_37
REMARK   11  A    between atoms: C_37  and  O_38
REMARK                            x       y       z     vdW  Elec       q    Type
REMARK                         _______ _______ _______ _____ _____    ______ ____
ROOT
ATOM      1  O   UNL     1     -36.928  24.409   3.169  0.00  0.00    -0.352 OA
ATOM      2  O   UNL     1     -37.004  25.412   0.390  0.00  0.00    -0.324 OA
ATOM      3  O   UNL     1     -37.232  27.121   2.017  0.00  0.00    -0.308 OA
ATOM      4  C   UNL     1     -36.829  22.513   1.600  0.00  0.00    +0.052 C 
ATOM      5  C   UNL     1     -35.829  23.334   0.733  0.00  0.00    +0.142 C 
ATOM      6  C   UNL     1     -36.814  22.982   3.083  0.00  0.00    +0.120 C 
ATOM      7  C   UNL     1     -35.854  24.843   1.021  0.00  0.00    +0.176 C 
ATOM      8  C   UNL     1     -35.877  25.142   2.527  0.00  0.00    +0.191 C 
ATOM      9  C   UNL     1     -36.146  26.628   2.804  0.00  0.00    +0.224 C 
ATOM     10  C   UNL     1     -36.531  21.003   1.484  0.00  0.00    +0.005 C 
ATOM     11  C   UNL     1     -38.267  22.727   1.056  0.00  0.00    +0.005 C 
ATOM     12  C   UNL     1     -37.088  26.810   0.635  0.00  0.00    +0.295 C 
ENDROOT
BRANCH   9  14
ATOM     13  O   UNL     1     -34.068  27.167   4.714  0.00  0.00    -0.272 OA
ATOM     14  N   UNL     1     -34.981  27.451   2.599  0.00  0.00    -0.279 N 
ATOM     15  C   UNL     1     -34.027  27.653   3.586  0.00  0.00    +0.256 C 
ATOM     16  H   UNL     1     -34.858  27.886   1.725  0.00  0.00    +0.152 HD
BRANCH  15  17
ATOM     17  C   UNL     1     -32.882  28.541   3.119  0.00  0.00    +0.239 C 
BRANCH  17  19
ATOM     18  O   UNL     1     -34.532  30.179   2.645  0.00  0.00    -0.334 OA
ATOM     19  C   UNL     1     -33.242  30.021   3.254  0.00  0.00    +0.224 C 
ATOM     20  C   UNL     1     -32.178  30.881   2.548  0.00  0.00    +0.081 C 
ATOM     21  C   UNL     1     -34.058  32.439   1.819  0.00  0.00    +0.046 C 
ATOM     22  C   UNL     1     -34.997  31.536   2.645  0.00  0.00    +0.121 C 
ATOM     23  C   UNL     1     -32.661  32.301   2.387  0.00  0.00    -0.037 C 
ATOM     24  C   UNL     1     -34.053  32.116   0.320  0.00  0.00    +0.007 C 
ATOM     25  C   UNL     1     -36.431  31.527   2.126  0.00  0.00    +0.032 C 
ATOM     26  C   UNL     1     -31.923  33.358   2.758  0.00  0.00    -0.009 C 
BRANCH  19  27
ATOM     27  O   UNL     1     -33.268  30.288   4.659  0.00  0.00    -0.329 OA
ATOM     28  C   UNL     1     -31.971  30.191   5.223  0.00  0.00    +0.177 C 
ENDBRANCH  19  27
ENDBRANCH  17  19
BRANCH  17  29
ATOM     29  O   UNL     1     -32.610  28.273   1.754  0.00  0.00    -0.372 OA
ATOM     30  H   UNL     1     -33.429  28.012   1.306  0.00  0.00    +0.211 HD
ENDBRANCH  17  29
ENDBRANCH  15  17
ENDBRANCH   9  14
BRANCH   5  31
ATOM     31  O   UNL     1     -34.493  22.852   0.896  0.00  0.00    -0.382 OA
ATOM     32  H   UNL     1     -34.385  22.495   1.792  0.00  0.00    +0.210 HD
ENDBRANCH   5  31
BRANCH   6  33
ATOM     33  C   UNL     1     -35.669  22.479   3.964  0.00  0.00    +0.061 C 
BRANCH  33  34
ATOM     34  C   UNL     1     -35.704  23.096   5.360  0.00  0.00    +0.142 C 
BRANCH  34  35
ATOM     35  O   UNL     1     -34.724  24.133   5.433  0.00  0.00    -0.382 OA
ATOM     36  H   UNL     1     -34.080  24.020   4.717  0.00  0.00    +0.210 HD
ENDBRANCH  34  35
BRANCH  34  37
ATOM     37  C   UNL     1     -35.391  22.052   6.427  0.00  0.00    +0.166 C 
BRANCH  37  38
ATOM     38  O   UNL     1     -35.335  20.758   5.836  0.00  0.00    -0.379 OA
ATOM     39  H   UNL     1     -35.739  20.787   4.955  0.00  0.00    +0.211 HD
ENDBRANCH  37  38
ENDBRANCH  34  37
ENDBRANCH  33  34
ENDBRANCH   6  33
TORSDOF 11
ENDMDL
MODEL 5
REMARK VINA RESULT:      -5.4      1.956      4.158
REMARK  Name = 21603508
REMARK  11 active torsions:
REMARK  status: ('A' for Active; 'I' for Inactive)
REMARK    1  A    between atoms: C_5  and  O_31
REMARK    2  A    between atoms: C_6  and  C_33
REMARK    3  A    between atoms: C_9  and  N_14
REMARK    4  A    between atoms: C_15  and  C_17
REMARK    5  A    between atoms: C_17  and  C_19
REMARK    6  A    between atoms: C_17  and  O_29
REMARK    7  A    between atoms: C_19  and  O_27
REMARK    8  A    between atoms: C_33  and  C_34
REMARK    9  A    between atoms: C_34  and  O_35
REMARK   10  A    between atoms: C_34  and  C_37
REMARK   11  A    between atoms: C_37  and  O_38
REMARK                            x       y       z     vdW  Elec       q    Type
REMARK                         _______ _______ _______ _____ _____    ______ ____
ROOT
ATOM      1  O   UNL     1     -32.773  29.027   2.417  0.00  0.00    -0.352 OA
ATOM      2  O   UNL     1     -35.201  28.784   0.750  0.00  0.00    -0.324 OA
ATOM      3  O   UNL     1     -34.081  26.723   1.094  0.00  0.00    -0.308 OA
ATOM      4  C   UNL     1     -33.738  31.260   2.027  0.00  0.00    +0.052 C 
ATOM      5  C   UNL     1     -35.149  30.649   2.277  0.00  0.00    +0.142 C 
ATOM      6  C   UNL     1     -32.625  30.421   2.719  0.00  0.00    +0.120 C 
ATOM      7  C   UNL     1     -35.196  29.120   2.140  0.00  0.00    +0.176 C 
ATOM      8  C   UNL     1     -34.011  28.442   2.841  0.00  0.00    +0.191 C 
ATOM      9  C   UNL     1     -33.929  26.947   2.496  0.00  0.00    +0.224 C 
ATOM     10  C   UNL     1     -33.698  32.734   2.483  0.00  0.00    +0.005 C 
ATOM     11  C   UNL     1     -33.447  31.256   0.503  0.00  0.00    +0.005 C 
ATOM     12  C   UNL     1     -35.228  27.375   0.559  0.00  0.00    +0.295 C 
ENDROOT
BRANCH   9  14
ATOM     13  O   UNL     1     -33.404  25.294   4.787  0.00  0.00    -0.272 OA
ATOM     14  N   UNL     1     -34.888  26.156   3.225  0.00  0.00    -0.279 N 
ATOM     15  C   UNL     1     -34.539  25.386   4.325  0.00  0.00    +0.256 C 
ATOM     16  H   UNL     1     -35.827  26.164   2.931  0.00  0.00    +0.152 HD
BRANCH  15  17
ATOM     17  C   UNL     1     -35.732  24.662   4.934  0.00  0.00    +0.239 C 
BRANCH  17  19
ATOM     18  O   UNL     1     -35.221  23.379   3.006  0.00  0.00    -0.334 OA
ATOM     19  C   UNL     1     -36.227  23.545   4.016  0.00  0.00    +0.224 C 
ATOM     20  C   UNL     1     -37.581  23.942   3.400  0.00  0.00    +0.081 C 
ATOM     21  C   UNL     1     -36.833  22.795   1.251  0.00  0.00    +0.046 C 
ATOM     22  C   UNL     1     -35.561  22.388   2.025  0.00  0.00    +0.121 C 
ATOM     23  C   UNL     1     -37.939  23.020   2.261  0.00  0.00    -0.037 C 
ATOM     24  C   UNL     1     -36.651  24.043   0.378  0.00  0.00    +0.007 C 
ATOM     25  C   UNL     1     -34.344  22.203   1.124  0.00  0.00    +0.032 C 
ATOM     26  C   UNL     1     -39.133  22.415   2.172  0.00  0.00    -0.009 C 
BRANCH  19  27
ATOM     27  O   UNL     1     -36.360  22.389   4.846  0.00  0.00    -0.329 OA
ATOM     28  C   UNL     1     -35.366  22.368   5.858  0.00  0.00    +0.177 C 
ENDBRANCH  19  27
ENDBRANCH  17  19
BRANCH  17  29
ATOM     29  O   UNL     1     -36.792  25.585   5.122  0.00  0.00    -0.372 OA
ATOM     30  H   UNL     1     -37.579  25.274   4.650  0.00  0.00    +0.211 HD
ENDBRANCH  17  29
ENDBRANCH  15  17
ENDBRANCH   9  14
BRANCH   5  31
ATOM     31  O   UNL     1     -35.644  31.015   3.568  0.00  0.00    -0.382 OA
ATOM     32  H   UNL     1     -36.613  31.060   3.541  0.00  0.00    +0.210 HD
ENDBRANCH   5  31
BRANCH   6  33
ATOM     33  C   UNL     1     -32.427  30.629   4.222  0.00  0.00    +0.061 C 
BRANCH  33  34
ATOM     34  C   UNL     1     -31.094  30.063   4.709  0.00  0.00    +0.142 C 
BRANCH  34  35
ATOM     35  O   UNL     1     -30.341  29.615   3.581  0.00  0.00    -0.382 OA
ATOM     36  H   UNL     1     -30.087  30.378   3.038  0.00  0.00    +0.210 HD
ENDBRANCH  34  35
BRANCH  34  37
ATOM     37  C   UNL     1     -31.313  28.884   5.651  0.00  0.00    +0.166 C 
BRANCH  37  38
ATOM     38  O   UNL     1     -31.446  27.682   4.899  0.00  0.00    -0.379 OA
ATOM     39  H   UNL     1     -31.495  27.895   3.955  0.00  0.00    +0.211 HD
ENDBRANCH  37  38
ENDBRANCH  34  37
ENDBRANCH  33  34
ENDBRANCH   6  33
TORSDOF 11
ENDMDL
MODEL 6
REMARK VINA RESULT:      -5.4      2.040      7.486
REMARK  Name = 21603508
REMARK  11 active torsions:
REMARK  status: ('A' for Active; 'I' for Inactive)
REMARK    1  A    between atoms: C_5  and  O_31
REMARK    2  A    between atoms: C_6  and  C_33
REMARK    3  A    between atoms: C_9  and  N_14
REMARK    4  A    between atoms: C_15  and  C_17
REMARK    5  A    between atoms: C_17  and  C_19
REMARK    6  A    between atoms: C_17  and  O_29
REMARK    7  A    between atoms: C_19  and  O_27
REMARK    8  A    between atoms: C_33  and  C_34
REMARK    9  A    between atoms: C_34  and  O_35
REMARK   10  A    between atoms: C_34  and  C_37
REMARK   11  A    between atoms: C_37  and  O_38
REMARK                            x       y       z     vdW  Elec       q    Type
REMARK                         _______ _______ _______ _____ _____    ______ ____
ROOT
ATOM      1  O   UNL     1     -36.696  24.610   3.152  0.00  0.00    -0.352 OA
ATOM      2  O   UNL     1     -36.623  25.564   0.357  0.00  0.00    -0.324 OA
ATOM      3  O   UNL     1     -36.754  27.316   1.950  0.00  0.00    -0.308 OA
ATOM      4  C   UNL     1     -36.712  22.683   1.618  0.00  0.00    +0.052 C 
ATOM      5  C   UNL     1     -35.629  23.406   0.764  0.00  0.00    +0.142 C 
ATOM      6  C   UNL     1     -36.696  23.177   3.093  0.00  0.00    +0.120 C 
ATOM      7  C   UNL     1     -35.539  24.917   1.027  0.00  0.00    +0.176 C 
ATOM      8  C   UNL     1     -35.575  25.244   2.526  0.00  0.00    +0.191 C 
ATOM      9  C   UNL     1     -35.730  26.752   2.772  0.00  0.00    +0.224 C 
ATOM     10  C   UNL     1     -36.535  21.152   1.534  0.00  0.00    +0.005 C 
ATOM     11  C   UNL     1     -38.114  23.002   1.033  0.00  0.00    +0.005 C 
ATOM     12  C   UNL     1     -36.601  26.969   0.577  0.00  0.00    +0.295 C 
ENDROOT
BRANCH   9  14
ATOM     13  O   UNL     1     -35.260  29.525   3.363  0.00  0.00    -0.272 OA
ATOM     14  N   UNL     1     -34.498  27.475   2.584  0.00  0.00    -0.279 N 
ATOM     15  C   UNL     1     -34.365  28.820   2.901  0.00  0.00    +0.256 C 
ATOM     16  H   UNL     1     -33.720  26.996   2.218  0.00  0.00    +0.152 HD
BRANCH  15  17
ATOM     17  C   UNL     1     -32.963  29.348   2.634  0.00  0.00    +0.239 C 
BRANCH  17  19
ATOM     18  O   UNL     1     -32.700  28.298   4.745  0.00  0.00    -0.334 OA
ATOM     19  C   UNL     1     -31.951  28.737   3.602  0.00  0.00    +0.224 C 
ATOM     20  C   UNL     1     -30.901  29.794   3.991  0.00  0.00    +0.081 C 
ATOM     21  C   UNL     1     -30.898  28.791   6.334  0.00  0.00    +0.046 C 
ATOM     22  C   UNL     1     -31.880  27.737   5.780  0.00  0.00    +0.121 C 
ATOM     23  C   UNL     1     -30.087  29.327   5.173  0.00  0.00    -0.037 C 
ATOM     24  C   UNL     1     -31.585  29.943   7.076  0.00  0.00    +0.007 C 
ATOM     25  C   UNL     1     -32.813  27.168   6.844  0.00  0.00    +0.032 C 
ATOM     26  C   UNL     1     -28.746  29.348   5.176  0.00  0.00    -0.009 C 
BRANCH  19  27
ATOM     27  O   UNL     1     -31.346  27.649   2.897  0.00  0.00    -0.329 OA
ATOM     28  C   UNL     1     -30.777  28.085   1.674  0.00  0.00    +0.177 C 
ENDBRANCH  19  27
ENDBRANCH  17  19
BRANCH  17  29
ATOM     29  O   UNL     1     -32.953  30.755   2.811  0.00  0.00    -0.372 OA
ATOM     30  H   UNL     1     -33.842  31.057   3.053  0.00  0.00    +0.211 HD
ENDBRANCH  17  29
ENDBRANCH  15  17
ENDBRANCH   9  14
BRANCH   5  31
ATOM     31  O   UNL     1     -34.340  22.821   0.969  0.00  0.00    -0.382 OA
ATOM     32  H   UNL     1     -33.786  23.432   1.480  0.00  0.00    +0.210 HD
ENDBRANCH   5  31
BRANCH   6  33
ATOM     33  C   UNL     1     -35.617  22.600   4.011  0.00  0.00    +0.061 C 
BRANCH  33  34
ATOM     34  C   UNL     1     -35.730  23.134   5.437  0.00  0.00    +0.142 C 
BRANCH  34  35
ATOM     35  O   UNL     1     -34.742  24.145   5.633  0.00  0.00    -0.382 OA
ATOM     36  H   UNL     1     -34.067  23.824   6.250  0.00  0.00    +0.210 HD
ENDBRANCH  34  35
BRANCH  34  37
ATOM     37  C   UNL     1     -35.501  22.022   6.457  0.00  0.00    +0.166 C 
BRANCH  37  38
ATOM     38  O   UNL     1     -35.282  20.787   5.784  0.00  0.00    -0.379 OA
ATOM     39  H   UNL     1     -34.999  20.115   6.424  0.00  0.00    +0.211 HD
ENDBRANCH  37  38
ENDBRANCH  34  37
ENDBRANCH  33  34
ENDBRANCH   6  33
TORSDOF 11
ENDMDL
MODEL 7
REMARK VINA RESULT:      -5.4      1.863      2.705
REMARK  Name = 21603508
REMARK  11 active torsions:
REMARK  status: ('A' for Active; 'I' for Inactive)
REMARK    1  A    between atoms: C_5  and  O_31
REMARK    2  A    between atoms: C_6  and  C_33
REMARK    3  A    between atoms: C_9  and  N_14
REMARK    4  A    between atoms: C_15  and  C_17
REMARK    5  A    between atoms: C_17  and  C_19
REMARK    6  A    between atoms: C_17  and  O_29
REMARK    7  A    between atoms: C_19  and  O_27
REMARK    8  A    between atoms: C_33  and  C_34
REMARK    9  A    between atoms: C_34  and  O_35
REMARK   10  A    between atoms: C_34  and  C_37
REMARK   11  A    between atoms: C_37  and  O_38
REMARK                            x       y       z     vdW  Elec       q    Type
REMARK                         _______ _______ _______ _____ _____    ______ ____
ROOT
ATOM      1  O   UNL     1     -34.666  28.845   3.664  0.00  0.00    -0.352 OA
ATOM      2  O   UNL     1     -32.768  27.236   5.259  0.00  0.00    -0.324 OA
ATOM      3  O   UNL     1     -35.029  26.577   5.534  0.00  0.00    -0.308 OA
ATOM      4  C   UNL     1     -32.387  29.739   3.390  0.00  0.00    +0.052 C 
ATOM      5  C   UNL     1     -31.870  28.274   3.276  0.00  0.00    +0.142 C 
ATOM      6  C   UNL     1     -33.888  29.845   2.992  0.00  0.00    +0.120 C 
ATOM      7  C   UNL     1     -32.847  27.227   3.831  0.00  0.00    +0.176 C 
ATOM      8  C   UNL     1     -34.291  27.491   3.382  0.00  0.00    +0.191 C 
ATOM      9  C   UNL     1     -35.289  26.595   4.130  0.00  0.00    +0.224 C 
ATOM     10  C   UNL     1     -31.513  30.689   2.545  0.00  0.00    +0.005 C 
ATOM     11  C   UNL     1     -32.260  30.208   4.864  0.00  0.00    +0.005 C 
ATOM     12  C   UNL     1     -33.665  26.294   5.832  0.00  0.00    +0.295 C 
ENDROOT
BRANCH   9  14
ATOM     13  O   UNL     1     -37.366  24.649   4.527  0.00  0.00    -0.272 OA
ATOM     14  N   UNL     1     -35.315  25.247   3.620  0.00  0.00    -0.279 N 
ATOM     15  C   UNL     1     -36.367  24.376   3.865  0.00  0.00    +0.256 C 
ATOM     16  H   UNL     1     -34.558  24.933   3.076  0.00  0.00    +0.152 HD
BRANCH  15  17
ATOM     17  C   UNL     1     -36.172  23.021   3.201  0.00  0.00    +0.239 C 
BRANCH  17  19
ATOM     18  O   UNL     1     -37.241  24.244   1.472  0.00  0.00    -0.334 OA
ATOM     19  C   UNL     1     -37.013  22.903   1.931  0.00  0.00    +0.224 C 
ATOM     20  C   UNL     1     -38.339  22.187   2.250  0.00  0.00    +0.081 C 
ATOM     21  C   UNL     1     -39.475  23.749   0.588  0.00  0.00    +0.046 C 
ATOM     22  C   UNL     1     -38.066  24.311   0.301  0.00  0.00    +0.121 C 
ATOM     23  C   UNL     1     -39.314  22.336   1.109  0.00  0.00    -0.037 C 
ATOM     24  C   UNL     1     -40.283  24.591   1.583  0.00  0.00    +0.007 C 
ATOM     25  C   UNL     1     -38.084  25.764  -0.163  0.00  0.00    +0.032 C 
ATOM     26  C   UNL     1     -39.958  21.290   0.571  0.00  0.00    -0.009 C 
BRANCH  19  27
ATOM     27  O   UNL     1     -36.226  22.141   1.011  0.00  0.00    -0.329 OA
ATOM     28  C   UNL     1     -34.867  22.543   1.046  0.00  0.00    +0.177 C 
ENDBRANCH  19  27
ENDBRANCH  17  19
BRANCH  17  29
ATOM     29  O   UNL     1     -36.576  21.999   4.097  0.00  0.00    -0.372 OA
ATOM     30  H   UNL     1     -37.211  22.360   4.735  0.00  0.00    +0.211 HD
ENDBRANCH  17  29
ENDBRANCH  15  17
ENDBRANCH   9  14
BRANCH   5  31
ATOM     31  O   UNL     1     -31.557  27.946   1.920  0.00  0.00    -0.382 OA
ATOM     32  H   UNL     1     -32.294  28.207   1.346  0.00  0.00    +0.210 HD
ENDBRANCH   5  31
BRANCH   6  33
ATOM     33  C   UNL     1     -34.214  29.867   1.498  0.00  0.00    +0.061 C 
BRANCH  33  34
ATOM     34  C   UNL     1     -35.539  30.570   1.209  0.00  0.00    +0.142 C 
BRANCH  34  35
ATOM     35  O   UNL     1     -36.051  31.110   2.428  0.00  0.00    -0.382 OA
ATOM     36  H   UNL     1     -36.643  30.464   2.845  0.00  0.00    +0.210 HD
ENDBRANCH  34  35
BRANCH  34  37
ATOM     37  C   UNL     1     -36.562  29.594   0.638  0.00  0.00    +0.166 C 
BRANCH  37  38
ATOM     38  O   UNL     1     -36.904  28.621   1.619  0.00  0.00    -0.379 OA
ATOM     39  H   UNL     1     -36.765  28.992   2.504  0.00  0.00    +0.211 HD
ENDBRANCH  37  38
ENDBRANCH  34  37
ENDBRANCH  33  34
ENDBRANCH   6  33
TORSDOF 11
ENDMDL
MODEL 8
REMARK VINA RESULT:      -5.3      3.163      7.981
REMARK  Name = 21603508
REMARK  11 active torsions:
REMARK  status: ('A' for Active; 'I' for Inactive)
REMARK    1  A    between atoms: C_5  and  O_31
REMARK    2  A    between atoms: C_6  and  C_33
REMARK    3  A    between atoms: C_9  and  N_14
REMARK    4  A    between atoms: C_15  and  C_17
REMARK    5  A    between atoms: C_17  and  C_19
REMARK    6  A    between atoms: C_17  and  O_29
REMARK    7  A    between atoms: C_19  and  O_27
REMARK    8  A    between atoms: C_33  and  C_34
REMARK    9  A    between atoms: C_34  and  O_35
REMARK   10  A    between atoms: C_34  and  C_37
REMARK   11  A    between atoms: C_37  and  O_38
REMARK                            x       y       z     vdW  Elec       q    Type
REMARK                         _______ _______ _______ _____ _____    ______ ____
ROOT
ATOM      1  O   UNL     1     -38.736  20.368  -0.127  0.00  0.00    -0.352 OA
ATOM      2  O   UNL     1     -40.585  22.230  -1.487  0.00  0.00    -0.324 OA
ATOM      3  O   UNL     1     -40.662  22.381   0.878  0.00  0.00    -0.308 OA
ATOM      4  C   UNL     1     -38.651  19.991  -2.560  0.00  0.00    +0.052 C 
ATOM      5  C   UNL     1     -38.657  21.536  -2.759  0.00  0.00    +0.142 C 
ATOM      6  C   UNL     1     -38.101  19.600  -1.158  0.00  0.00    +0.120 C 
ATOM      7  C   UNL     1     -39.158  22.317  -1.534  0.00  0.00    +0.176 C 
ATOM      8  C   UNL     1     -38.555  21.786  -0.226  0.00  0.00    +0.191 C 
ATOM      9  C   UNL     1     -39.239  22.402   1.003  0.00  0.00    +0.224 C 
ATOM     10  C   UNL     1     -37.856  19.303  -3.689  0.00  0.00    +0.005 C 
ATOM     11  C   UNL     1     -40.108  19.462  -2.655  0.00  0.00    +0.005 C 
ATOM     12  C   UNL     1     -41.107  22.924  -0.361  0.00  0.00    +0.295 C 
ENDROOT
BRANCH   9  14
ATOM     13  O   UNL     1     -39.570  23.861   3.456  0.00  0.00    -0.272 OA
ATOM     14  N   UNL     1     -38.791  23.745   1.273  0.00  0.00    -0.279 N 
ATOM     15  C   UNL     1     -38.998  24.370   2.495  0.00  0.00    +0.256 C 
ATOM     16  H   UNL     1     -38.320  24.237   0.563  0.00  0.00    +0.152 HD
BRANCH  15  17
ATOM     17  C   UNL     1     -38.413  25.774   2.540  0.00  0.00    +0.239 C 
BRANCH  17  19
ATOM     18  O   UNL     1     -36.368  24.617   2.213  0.00  0.00    -0.334 OA
ATOM     19  C   UNL     1     -36.929  25.741   2.906  0.00  0.00    +0.224 C 
ATOM     20  C   UNL     1     -36.773  25.596   4.431  0.00  0.00    +0.081 C 
ATOM     21  C   UNL     1     -34.752  24.108   3.987  0.00  0.00    +0.046 C 
ATOM     22  C   UNL     1     -34.975  24.416   2.491  0.00  0.00    +0.121 C 
ATOM     23  C   UNL     1     -35.351  25.244   4.790  0.00  0.00    -0.037 C 
ATOM     24  C   UNL     1     -35.352  22.770   4.436  0.00  0.00    +0.007 C 
ATOM     25  C   UNL     1     -34.480  23.305   1.570  0.00  0.00    +0.032 C 
ATOM     26  C   UNL     1     -34.656  25.915   5.722  0.00  0.00    -0.009 C 
BRANCH  19  27
ATOM     27  O   UNL     1     -36.389  26.985   2.451  0.00  0.00    -0.329 OA
ATOM     28  C   UNL     1     -36.805  27.270   1.125  0.00  0.00    +0.177 C 
ENDBRANCH  19  27
ENDBRANCH  17  19
BRANCH  17  29
ATOM     29  O   UNL     1     -39.096  26.533   3.524  0.00  0.00    -0.372 OA
ATOM     30  H   UNL     1     -38.905  26.169   4.403  0.00  0.00    +0.211 HD
ENDBRANCH  17  29
ENDBRANCH  15  17
ENDBRANCH   9  14
BRANCH   5  31
ATOM     31  O   UNL     1     -37.356  22.011  -3.112  0.00  0.00    -0.382 OA
ATOM     32  H   UNL     1     -36.727  21.272  -3.103  0.00  0.00    +0.210 HD
ENDBRANCH   5  31
BRANCH   6  33
ATOM     33  C   UNL     1     -36.582  19.608  -0.977  0.00  0.00    +0.061 C 
BRANCH  33  34
ATOM     34  C   UNL     1     -36.148  18.844   0.272  0.00  0.00    +0.142 C 
BRANCH  34  35
ATOM     35  O   UNL     1     -37.208  17.977   0.676  0.00  0.00    -0.382 OA
ATOM     36  H   UNL     1     -36.838  17.130   0.970  0.00  0.00    +0.210 HD
ENDBRANCH  34  35
BRANCH  34  37
ATOM     37  C   UNL     1     -35.836  19.803   1.418  0.00  0.00    +0.166 C 
BRANCH  37  38
ATOM     38  O   UNL     1     -36.854  19.719   2.409  0.00  0.00    -0.379 OA
ATOM     39  H   UNL     1     -37.633  20.216   2.116  0.00  0.00    +0.211 HD
ENDBRANCH  37  38
ENDBRANCH  34  37
ENDBRANCH  33  34
ENDBRANCH   6  33
TORSDOF 11
ENDMDL
MODEL 9
REMARK VINA RESULT:      -5.3      3.904      7.592
REMARK  Name = 21603508
REMARK  11 active torsions:
REMARK  status: ('A' for Active; 'I' for Inactive)
REMARK    1  A    between atoms: C_5  and  O_31
REMARK    2  A    between atoms: C_6  and  C_33
REMARK    3  A    between atoms: C_9  and  N_14
REMARK    4  A    between atoms: C_15  and  C_17
REMARK    5  A    between atoms: C_17  and  C_19
REMARK    6  A    between atoms: C_17  and  O_29
REMARK    7  A    between atoms: C_19  and  O_27
REMARK    8  A    between atoms: C_33  and  C_34
REMARK    9  A    between atoms: C_34  and  O_35
REMARK   10  A    between atoms: C_34  and  C_37
REMARK   11  A    between atoms: C_37  and  O_38
REMARK                            x       y       z     vdW  Elec       q    Type
REMARK                         _______ _______ _______ _____ _____    ______ ____
ROOT
ATOM      1  O   UNL     1     -37.329  21.212   2.366  0.00  0.00    -0.352 OA
ATOM      2  O   UNL     1     -38.528  21.389  -0.330  0.00  0.00    -0.324 OA
ATOM      3  O   UNL     1     -40.128  21.128   1.400  0.00  0.00    -0.308 OA
ATOM      4  C   UNL     1     -35.545  21.331   0.672  0.00  0.00    +0.052 C 
ATOM      5  C   UNL     1     -36.370  22.430  -0.061  0.00  0.00    +0.142 C 
ATOM      6  C   UNL     1     -35.908  21.261   2.183  0.00  0.00    +0.120 C 
ATOM      7  C   UNL     1     -37.854  22.460   0.336  0.00  0.00    +0.176 C 
ATOM      8  C   UNL     1     -38.047  22.342   1.854  0.00  0.00    +0.191 C 
ATOM      9  C   UNL     1     -39.523  22.128   2.221  0.00  0.00    +0.224 C 
ATOM     10  C   UNL     1     -34.033  21.560   0.465  0.00  0.00    +0.005 C 
ATOM     11  C   UNL     1     -35.876  19.949   0.047  0.00  0.00    +0.005 C 
ATOM     12  C   UNL     1     -39.908  21.356   0.012  0.00  0.00    +0.295 C 
ENDROOT
BRANCH   9  14
ATOM     13  O   UNL     1     -39.022  24.553   3.679  0.00  0.00    -0.272 OA
ATOM     14  N   UNL     1     -40.293  23.344   2.159  0.00  0.00    -0.279 N 
ATOM     15  C   UNL     1     -39.972  24.470   2.904  0.00  0.00    +0.256 C 
ATOM     16  H   UNL     1     -41.076  23.377   1.564  0.00  0.00    +0.152 HD
BRANCH  15  17
ATOM     17  C   UNL     1     -40.922  25.631   2.646  0.00  0.00    +0.239 C 
BRANCH  17  19
ATOM     18  O   UNL     1     -39.685  25.786   0.628  0.00  0.00    -0.334 OA
ATOM     19  C   UNL     1     -41.010  25.951   1.154  0.00  0.00    +0.224 C 
ATOM     20  C   UNL     1     -41.516  27.393   0.961  0.00  0.00    +0.081 C 
ATOM     21  C   UNL     1     -39.930  27.582  -1.025  0.00  0.00    +0.046 C 
ATOM     22  C   UNL     1     -39.586  26.100  -0.769  0.00  0.00    +0.121 C 
ATOM     23  C   UNL     1     -41.313  27.842  -0.465  0.00  0.00    -0.037 C 
ATOM     24  C   UNL     1     -38.920  28.563  -0.417  0.00  0.00    +0.007 C 
ATOM     25  C   UNL     1     -38.179  25.723  -1.223  0.00  0.00    +0.032 C 
ATOM     26  C   UNL     1     -42.296  28.393  -1.193  0.00  0.00    -0.009 C 
BRANCH  19  27
ATOM     27  O   UNL     1     -41.933  25.006   0.608  0.00  0.00    -0.329 OA
ATOM     28  C   UNL     1     -43.234  25.193   1.141  0.00  0.00    +0.177 C 
ENDBRANCH  19  27
ENDBRANCH  17  19
BRANCH  17  29
ATOM     29  O   UNL     1     -40.442  26.784   3.320  0.00  0.00    -0.372 OA
ATOM     30  H   UNL     1     -40.607  27.569   2.775  0.00  0.00    +0.211 HD
ENDBRANCH  17  29
ENDBRANCH  15  17
ENDBRANCH   9  14
BRANCH   5  31
ATOM     31  O   UNL     1     -35.804  23.725   0.158  0.00  0.00    -0.382 OA
ATOM     32  H   UNL     1     -35.553  24.116  -0.694  0.00  0.00    +0.210 HD
ENDBRANCH   5  31
BRANCH   6  33
ATOM     33  C   UNL     1     -35.282  22.313   3.101  0.00  0.00    +0.061 C 
BRANCH  33  34
ATOM     34  C   UNL     1     -35.993  22.394   4.450  0.00  0.00    +0.142 C 
BRANCH  34  35
ATOM     35  O   UNL     1     -36.376  23.748   4.691  0.00  0.00    -0.382 OA
ATOM     36  H   UNL     1     -36.023  24.037   5.547  0.00  0.00    +0.210 HD
ENDBRANCH  34  35
BRANCH  34  37
ATOM     37  C   UNL     1     -35.074  21.937   5.580  0.00  0.00    +0.166 C 
BRANCH  37  38
ATOM     38  O   UNL     1     -35.307  20.562   5.867  0.00  0.00    -0.379 OA
ATOM     39  H   UNL     1     -36.085  20.256   5.376  0.00  0.00    +0.211 HD
ENDBRANCH  37  38
ENDBRANCH  34  37
ENDBRANCH  33  34
ENDBRANCH   6  33
TORSDOF 11
ENDMDL
