MODEL 1
REMARK VINA RESULT:      -6.6      0.000      0.000
REMARK  Name = 5487117
REMARK  9 active torsions:
REMARK  status: ('A' for Active; 'I' for Inactive)
REMARK    1  A    between atoms: N_2  and  C_17
REMARK    2  A    between atoms: C_3  and  C_5
REMARK    3  A    between atoms: C_5  and  N_6
REMARK    4  A    between atoms: C_5  and  C_10
REMARK    5  A    between atoms: C_10  and  C_11
REMARK    6  A    between atoms: C_17  and  C_19
REMARK    7  A    between atoms: C_17  and  S_22
REMARK    8  A    between atoms: C_19  and  O_20
REMARK    9  A    between atoms: S_22  and  C_23
REMARK                            x       y       z     vdW  Elec       q    Type
REMARK                         _______ _______ _______ _____ _____    ______ ____
ROOT
ATOM      1  O   UNL     1     -35.474  21.974   4.788  0.00  0.00    -0.277 OA
ATOM      2  N   UNL     1     -36.052  23.216   2.914  0.00  0.00    -0.290 N 
ATOM      3  C   UNL     1     -35.696  22.052   3.582  0.00  0.00    +0.203 C 
ATOM      4  H   UNL     1     -36.208  23.170   1.943  0.00  0.00    +0.151 HD
ENDROOT
BRANCH   3   5
ATOM      5  C   UNL     1     -35.644  20.843   2.652  0.00  0.00    +0.017 C 
BRANCH   5   6
ATOM      6  N   UNL     1     -37.031  20.432   2.430  0.00  0.00    +0.388 N 
ATOM      7  H   UNL     1     -37.077  19.807   1.626  0.00  0.00    -0.089 HD
ATOM      8  H   UNL     1     -37.606  21.256   2.254  0.00  0.00    -0.089 HD
ATOM      9  H   UNL     1     -37.378  19.947   3.258  0.00  0.00    -0.089 HD
ENDBRANCH   5   6
BRANCH   5  10
ATOM     10  C   UNL     1     -34.995  21.176   1.301  0.00  0.00    +0.013 C 
BRANCH  10  11
ATOM     11  C   UNL     1     -33.777  20.328   1.013  0.00  0.00    -0.024 C 
ATOM     12  C   UNL     1     -33.682  19.067   1.576  0.00  0.00    -0.004 C 
ATOM     13  C   UNL     1     -32.781  20.830   0.192  0.00  0.00    -0.004 C 
ATOM     14  C   UNL     1     -32.557  18.285   1.312  0.00  0.00    -0.000 C 
ATOM     15  C   UNL     1     -31.657  20.048  -0.073  0.00  0.00    -0.000 C 
ATOM     16  C   UNL     1     -31.545  18.775   0.486  0.00  0.00    -0.000 C 
ENDBRANCH  10  11
ENDBRANCH   5  10
ENDBRANCH   3   5
BRANCH   2  17
ATOM     17  C   UNL     1     -36.207  24.496   3.578  0.00  0.00    +0.225 C 
BRANCH  17  19
ATOM     18  O   UNL     1     -38.607  24.185   3.510  0.00  0.00    -0.247 OA
ATOM     19  C   UNL     1     -37.656  24.954   3.612  0.00  0.00    +0.343 C 
BRANCH  19  20
ATOM     20  O   UNL     1     -37.824  26.291   3.762  0.00  0.00    -0.478 OA
ATOM     21  H   UNL     1     -38.452  26.746   3.237  0.00  0.00    +0.295 HD
ENDBRANCH  19  20
ENDBRANCH  17  19
BRANCH  17  22
ATOM     22  S   UNL     1     -35.245  25.771   2.691  0.00  0.00    -0.083 S 
BRANCH  22  23
ATOM     23  C   UNL     1     -34.239  26.412   4.022  0.00  0.00    +0.027 C 
ATOM     24  C   UNL     1     -33.284  27.390   3.759  0.00  0.00    +0.006 C 
ATOM     25  C   UNL     1     -34.416  25.930   5.317  0.00  0.00    +0.006 C 
ATOM     26  C   UNL     1     -32.499  27.890   4.798  0.00  0.00    +0.001 C 
ATOM     27  C   UNL     1     -33.631  26.429   6.355  0.00  0.00    +0.001 C 
ATOM     28  C   UNL     1     -32.672  27.409   6.096  0.00  0.00    +0.000 C 
ENDBRANCH  22  23
ENDBRANCH  17  22
ENDBRANCH   2  17
TORSDOF 9
ENDMDL
MODEL 2
REMARK VINA RESULT:      -6.6      1.847      2.598
REMARK  Name = 5487117
REMARK  9 active torsions:
REMARK  status: ('A' for Active; 'I' for Inactive)
REMARK    1  A    between atoms: N_2  and  C_17
REMARK    2  A    between atoms: C_3  and  C_5
REMARK    3  A    between atoms: C_5  and  N_6
REMARK    4  A    between atoms: C_5  and  C_10
REMARK    5  A    between atoms: C_10  and  C_11
REMARK    6  A    between atoms: C_17  and  C_19
REMARK    7  A    between atoms: C_17  and  S_22
REMARK    8  A    between atoms: C_19  and  O_20
REMARK    9  A    between atoms: S_22  and  C_23
REMARK                            x       y       z     vdW  Elec       q    Type
REMARK                         _______ _______ _______ _____ _____    ______ ____
ROOT
ATOM      1  O   UNL     1     -35.464  21.013   3.815  0.00  0.00    -0.277 OA
ATOM      2  N   UNL     1     -36.816  21.480   1.986  0.00  0.00    -0.290 N 
ATOM      3  C   UNL     1     -35.762  20.849   2.634  0.00  0.00    +0.203 C 
ATOM      4  H   UNL     1     -36.969  21.279   1.035  0.00  0.00    +0.151 HD
ENDROOT
BRANCH   3   5
ATOM      5  C   UNL     1     -35.016  19.882   1.719  0.00  0.00    +0.017 C 
BRANCH   5   6
ATOM      6  N   UNL     1     -36.036  19.195   0.925  0.00  0.00    +0.388 N 
ATOM      7  H   UNL     1     -36.880  19.076   1.484  0.00  0.00    -0.089 HD
ATOM      8  H   UNL     1     -35.685  18.280   0.639  0.00  0.00    -0.089 HD
ATOM      9  H   UNL     1     -36.252  19.749   0.096  0.00  0.00    -0.089 HD
ENDBRANCH   5   6
BRANCH   5  10
ATOM     10  C   UNL     1     -34.045  20.605   0.775  0.00  0.00    +0.013 C 
BRANCH  10  11
ATOM     11  C   UNL     1     -32.736  19.869   0.609  0.00  0.00    -0.024 C 
ATOM     12  C   UNL     1     -32.570  18.636   1.216  0.00  0.00    -0.004 C 
ATOM     13  C   UNL     1     -31.727  20.442  -0.149  0.00  0.00    -0.004 C 
ATOM     14  C   UNL     1     -31.361  17.956   1.062  0.00  0.00    -0.000 C 
ATOM     15  C   UNL     1     -30.520  19.762  -0.303  0.00  0.00    -0.000 C 
ATOM     16  C   UNL     1     -30.336  18.519   0.302  0.00  0.00    -0.000 C 
ENDBRANCH  10  11
ENDBRANCH   5  10
ENDBRANCH   3   5
BRANCH   2  17
ATOM     17  C   UNL     1     -37.704  22.420   2.645  0.00  0.00    +0.225 C 
BRANCH  17  19
ATOM     18  O   UNL     1     -39.987  23.054   2.150  0.00  0.00    -0.247 OA
ATOM     19  C   UNL     1     -39.164  22.159   2.315  0.00  0.00    +0.343 C 
BRANCH  19  20
ATOM     20  O   UNL     1     -39.497  20.849   2.216  0.00  0.00    -0.478 OA
ATOM     21  H   UNL     1     -40.343  20.603   1.897  0.00  0.00    +0.295 HD
ENDBRANCH  19  20
ENDBRANCH  17  19
BRANCH  17  22
ATOM     22  S   UNL     1     -37.310  24.121   2.106  0.00  0.00    -0.083 S 
BRANCH  22  23
ATOM     23  C   UNL     1     -36.223  24.642   3.426  0.00  0.00    +0.027 C 
ATOM     24  C   UNL     1     -36.754  25.237   4.566  0.00  0.00    +0.006 C 
ATOM     25  C   UNL     1     -34.848  24.451   3.305  0.00  0.00    +0.006 C 
ATOM     26  C   UNL     1     -35.905  25.644   5.596  0.00  0.00    +0.001 C 
ATOM     27  C   UNL     1     -34.000  24.859   4.334  0.00  0.00    +0.001 C 
ATOM     28  C   UNL     1     -34.528  25.455   5.479  0.00  0.00    +0.000 C 
ENDBRANCH  22  23
ENDBRANCH  17  22
ENDBRANCH   2  17
TORSDOF 9
ENDMDL
MODEL 3
REMARK VINA RESULT:      -6.5      1.867      2.691
REMARK  Name = 5487117
REMARK  9 active torsions:
REMARK  status: ('A' for Active; 'I' for Inactive)
REMARK    1  A    between atoms: N_2  and  C_17
REMARK    2  A    between atoms: C_3  and  C_5
REMARK    3  A    between atoms: C_5  and  N_6
REMARK    4  A    between atoms: C_5  and  C_10
REMARK    5  A    between atoms: C_10  and  C_11
REMARK    6  A    between atoms: C_17  and  C_19
REMARK    7  A    between atoms: C_17  and  S_22
REMARK    8  A    between atoms: C_19  and  O_20
REMARK    9  A    between atoms: S_22  and  C_23
REMARK                            x       y       z     vdW  Elec       q    Type
REMARK                         _______ _______ _______ _____ _____    ______ ____
ROOT
ATOM      1  O   UNL     1     -35.638  21.093   3.774  0.00  0.00    -0.277 OA
ATOM      2  N   UNL     1     -37.051  21.476   1.972  0.00  0.00    -0.290 N 
ATOM      3  C   UNL     1     -35.985  20.863   2.618  0.00  0.00    +0.203 C 
ATOM      4  H   UNL     1     -37.245  21.219   1.042  0.00  0.00    +0.151 HD
ENDROOT
BRANCH   3   5
ATOM      5  C   UNL     1     -35.296  19.823   1.739  0.00  0.00    +0.017 C 
BRANCH   5   6
ATOM      6  N   UNL     1     -36.361  19.094   1.048  0.00  0.00    +0.388 N 
ATOM      7  H   UNL     1     -36.880  18.531   1.722  0.00  0.00    -0.089 HD
ATOM      8  H   UNL     1     -35.951  18.485   0.340  0.00  0.00    -0.089 HD
ATOM      9  H   UNL     1     -36.993  19.758   0.601  0.00  0.00    -0.089 HD
ENDBRANCH   5   6
BRANCH   5  10
ATOM     10  C   UNL     1     -34.367  20.465   0.698  0.00  0.00    +0.013 C 
BRANCH  10  11
ATOM     11  C   UNL     1     -33.022  19.781   0.616  0.00  0.00    -0.024 C 
ATOM     12  C   UNL     1     -32.000  20.381  -0.099  0.00  0.00    -0.004 C 
ATOM     13  C   UNL     1     -32.839  18.567   1.257  0.00  0.00    -0.004 C 
ATOM     14  C   UNL     1     -30.758  19.749  -0.176  0.00  0.00    -0.000 C 
ATOM     15  C   UNL     1     -31.598  17.936   1.181  0.00  0.00    -0.000 C 
ATOM     16  C   UNL     1     -30.557  18.526   0.465  0.00  0.00    -0.000 C 
ENDBRANCH  10  11
ENDBRANCH   5  10
ENDBRANCH   3   5
BRANCH   2  17
ATOM     17  C   UNL     1     -37.892  22.475   2.603  0.00  0.00    +0.225 C 
BRANCH  17  19
ATOM     18  O   UNL     1     -40.157  23.221   2.186  0.00  0.00    -0.247 OA
ATOM     19  C   UNL     1     -39.361  22.290   2.257  0.00  0.00    +0.343 C 
BRANCH  19  20
ATOM     20  O   UNL     1     -39.733  21.006   2.033  0.00  0.00    -0.478 OA
ATOM     21  H   UNL     1     -40.340  20.586   2.610  0.00  0.00    +0.295 HD
ENDBRANCH  19  20
ENDBRANCH  17  19
BRANCH  17  22
ATOM     22  S   UNL     1     -37.398  24.142   2.040  0.00  0.00    -0.083 S 
BRANCH  22  23
ATOM     23  C   UNL     1     -36.284  24.618   3.355  0.00  0.00    +0.027 C 
ATOM     24  C   UNL     1     -34.913  24.436   3.200  0.00  0.00    +0.006 C 
ATOM     25  C   UNL     1     -36.795  25.168   4.528  0.00  0.00    +0.006 C 
ATOM     26  C   UNL     1     -34.045  24.808   4.227  0.00  0.00    +0.001 C 
ATOM     27  C   UNL     1     -35.926  25.538   5.555  0.00  0.00    +0.001 C 
ATOM     28  C   UNL     1     -34.551  25.358   5.404  0.00  0.00    +0.000 C 
ENDBRANCH  22  23
ENDBRANCH  17  22
ENDBRANCH   2  17
TORSDOF 9
ENDMDL
MODEL 4
REMARK VINA RESULT:      -6.2      3.819      7.428
REMARK  Name = 5487117
REMARK  9 active torsions:
REMARK  status: ('A' for Active; 'I' for Inactive)
REMARK    1  A    between atoms: N_2  and  C_17
REMARK    2  A    between atoms: C_3  and  C_5
REMARK    3  A    between atoms: C_5  and  N_6
REMARK    4  A    between atoms: C_5  and  C_10
REMARK    5  A    between atoms: C_10  and  C_11
REMARK    6  A    between atoms: C_17  and  C_19
REMARK    7  A    between atoms: C_17  and  S_22
REMARK    8  A    between atoms: C_19  and  O_20
REMARK    9  A    between atoms: S_22  and  C_23
REMARK                            x       y       z     vdW  Elec       q    Type
REMARK                         _______ _______ _______ _____ _____    ______ ____
ROOT
ATOM      1  O   UNL     1     -36.771  20.683  -0.700  0.00  0.00    -0.277 OA
ATOM      2  N   UNL     1     -36.652  18.841   0.708  0.00  0.00    -0.290 N 
ATOM      3  C   UNL     1     -36.723  20.199   0.429  0.00  0.00    +0.203 C 
ATOM      4  H   UNL     1     -36.617  18.557   1.649  0.00  0.00    +0.151 HD
ENDROOT
BRANCH   3   5
ATOM      5  C   UNL     1     -36.775  21.048   1.695  0.00  0.00    +0.017 C 
BRANCH   5   6
ATOM      6  N   UNL     1     -38.064  20.767   2.329  0.00  0.00    +0.388 N 
ATOM      7  H   UNL     1     -38.061  21.130   3.282  0.00  0.00    -0.089 HD
ATOM      8  H   UNL     1     -38.221  19.759   2.349  0.00  0.00    -0.089 HD
ATOM      9  H   UNL     1     -38.810  21.216   1.797  0.00  0.00    -0.089 HD
ENDBRANCH   5   6
BRANCH   5  10
ATOM     10  C   UNL     1     -35.645  20.702   2.675  0.00  0.00    +0.013 C 
BRANCH  10  11
ATOM     11  C   UNL     1     -35.459  21.750   3.747  0.00  0.00    -0.024 C 
ATOM     12  C   UNL     1     -35.456  23.089   3.392  0.00  0.00    -0.004 C 
ATOM     13  C   UNL     1     -35.295  21.352   5.064  0.00  0.00    -0.004 C 
ATOM     14  C   UNL     1     -35.284  24.057   4.382  0.00  0.00    -0.000 C 
ATOM     15  C   UNL     1     -35.123  22.320   6.053  0.00  0.00    -0.000 C 
ATOM     16  C   UNL     1     -35.118  23.673   5.713  0.00  0.00    -0.000 C 
ENDBRANCH  10  11
ENDBRANCH   5  10
ENDBRANCH   3   5
BRANCH   2  17
ATOM     17  C   UNL     1     -36.628  17.820  -0.323  0.00  0.00    +0.225 C 
BRANCH  17  19
ATOM     18  O   UNL     1     -38.888  16.999  -0.601  0.00  0.00    -0.247 OA
ATOM     19  C   UNL     1     -37.757  16.815  -0.162  0.00  0.00    +0.343 C 
BRANCH  19  20
ATOM     20  O   UNL     1     -37.421  15.688   0.511  0.00  0.00    -0.478 OA
ATOM     21  H   UNL     1     -37.911  14.900   0.380  0.00  0.00    +0.295 HD
ENDBRANCH  19  20
ENDBRANCH  17  19
BRANCH  17  22
ATOM     22  S   UNL     1     -35.052  16.898  -0.240  0.00  0.00    -0.083 S 
BRANCH  22  23
ATOM     23  C   UNL     1     -33.878  18.244  -0.321  0.00  0.00    +0.027 C 
ATOM     24  C   UNL     1     -33.755  18.986  -1.491  0.00  0.00    +0.006 C 
ATOM     25  C   UNL     1     -33.091  18.542   0.789  0.00  0.00    +0.006 C 
ATOM     26  C   UNL     1     -32.839  20.036  -1.554  0.00  0.00    +0.001 C 
ATOM     27  C   UNL     1     -32.174  19.591   0.726  0.00  0.00    +0.001 C 
ATOM     28  C   UNL     1     -32.048  20.338  -0.445  0.00  0.00    +0.000 C 
ENDBRANCH  22  23
ENDBRANCH  17  22
ENDBRANCH   2  17
TORSDOF 9
ENDMDL
MODEL 5
REMARK VINA RESULT:      -6.1      1.909      2.646
REMARK  Name = 5487117
REMARK  9 active torsions:
REMARK  status: ('A' for Active; 'I' for Inactive)
REMARK    1  A    between atoms: N_2  and  C_17
REMARK    2  A    between atoms: C_3  and  C_5
REMARK    3  A    between atoms: C_5  and  N_6
REMARK    4  A    between atoms: C_5  and  C_10
REMARK    5  A    between atoms: C_10  and  C_11
REMARK    6  A    between atoms: C_17  and  C_19
REMARK    7  A    between atoms: C_17  and  S_22
REMARK    8  A    between atoms: C_19  and  O_20
REMARK    9  A    between atoms: S_22  and  C_23
REMARK                            x       y       z     vdW  Elec       q    Type
REMARK                         _______ _______ _______ _____ _____    ______ ____
ROOT
ATOM      1  O   UNL     1     -34.397  23.611   1.756  0.00  0.00    -0.277 OA
ATOM      2  N   UNL     1     -35.462  22.108   3.168  0.00  0.00    -0.290 N 
ATOM      3  C   UNL     1     -35.039  22.578   1.932  0.00  0.00    +0.203 C 
ATOM      4  H   UNL     1     -35.973  21.267   3.200  0.00  0.00    +0.151 HD
ENDROOT
BRANCH   3   5
ATOM      5  C   UNL     1     -35.429  21.642   0.792  0.00  0.00    +0.017 C 
BRANCH   5   6
ATOM      6  N   UNL     1     -36.543  22.284   0.092  0.00  0.00    +0.388 N 
ATOM      7  H   UNL     1     -37.057  21.585  -0.442  0.00  0.00    -0.089 HD
ATOM      8  H   UNL     1     -36.181  22.998  -0.540  0.00  0.00    -0.089 HD
ATOM      9  H   UNL     1     -37.167  22.719   0.773  0.00  0.00    -0.089 HD
ENDBRANCH   5   6
BRANCH   5  10
ATOM     10  C   UNL     1     -34.276  21.416  -0.196  0.00  0.00    +0.013 C 
BRANCH  10  11
ATOM     11  C   UNL     1     -33.340  20.314   0.242  0.00  0.00    -0.024 C 
ATOM     12  C   UNL     1     -32.015  20.351  -0.160  0.00  0.00    -0.004 C 
ATOM     13  C   UNL     1     -33.825  19.288   1.035  0.00  0.00    -0.004 C 
ATOM     14  C   UNL     1     -31.150  19.333   0.244  0.00  0.00    -0.000 C 
ATOM     15  C   UNL     1     -32.961  18.270   1.439  0.00  0.00    -0.000 C 
ATOM     16  C   UNL     1     -31.624  18.292   1.044  0.00  0.00    -0.000 C 
ENDBRANCH  10  11
ENDBRANCH   5  10
ENDBRANCH   3   5
BRANCH   2  17
ATOM     17  C   UNL     1     -35.186  22.795   4.416  0.00  0.00    +0.225 C 
BRANCH  17  19
ATOM     18  O   UNL     1     -35.947  22.349   6.670  0.00  0.00    -0.247 OA
ATOM     19  C   UNL     1     -35.464  21.920   5.627  0.00  0.00    +0.343 C 
BRANCH  19  20
ATOM     20  O   UNL     1     -35.133  20.615   5.471  0.00  0.00    -0.478 OA
ATOM     21  H   UNL     1     -35.565  20.096   4.822  0.00  0.00    +0.295 HD
ENDBRANCH  19  20
ENDBRANCH  17  19
BRANCH  17  22
ATOM     22  S   UNL     1     -36.244  24.278   4.550  0.00  0.00    -0.083 S 
BRANCH  22  23
ATOM     23  C   UNL     1     -35.004  25.559   4.686  0.00  0.00    +0.027 C 
ATOM     24  C   UNL     1     -34.750  26.392   3.601  0.00  0.00    +0.006 C 
ATOM     25  C   UNL     1     -34.299  25.715   5.876  0.00  0.00    +0.006 C 
ATOM     26  C   UNL     1     -33.782  27.392   3.707  0.00  0.00    +0.001 C 
ATOM     27  C   UNL     1     -33.331  26.713   5.982  0.00  0.00    +0.001 C 
ATOM     28  C   UNL     1     -33.072  27.552   4.897  0.00  0.00    +0.000 C 
ENDBRANCH  22  23
ENDBRANCH  17  22
ENDBRANCH   2  17
TORSDOF 9
ENDMDL
MODEL 6
REMARK VINA RESULT:      -6.1      4.023      6.055
REMARK  Name = 5487117
REMARK  9 active torsions:
REMARK  status: ('A' for Active; 'I' for Inactive)
REMARK    1  A    between atoms: N_2  and  C_17
REMARK    2  A    between atoms: C_3  and  C_5
REMARK    3  A    between atoms: C_5  and  N_6
REMARK    4  A    between atoms: C_5  and  C_10
REMARK    5  A    between atoms: C_10  and  C_11
REMARK    6  A    between atoms: C_17  and  C_19
REMARK    7  A    between atoms: C_17  and  S_22
REMARK    8  A    between atoms: C_19  and  O_20
REMARK    9  A    between atoms: S_22  and  C_23
REMARK                            x       y       z     vdW  Elec       q    Type
REMARK                         _______ _______ _______ _____ _____    ______ ____
ROOT
ATOM      1  O   UNL     1     -32.547  26.166   3.655  0.00  0.00    -0.277 OA
ATOM      2  N   UNL     1     -33.318  28.065   4.744  0.00  0.00    -0.290 N 
ATOM      3  C   UNL     1     -33.465  26.826   4.136  0.00  0.00    +0.203 C 
ATOM      4  H   UNL     1     -34.121  28.512   5.097  0.00  0.00    +0.151 HD
ENDROOT
BRANCH   3   5
ATOM      5  C   UNL     1     -34.910  26.337   4.159  0.00  0.00    +0.017 C 
BRANCH   5   6
ATOM      6  N   UNL     1     -35.727  27.438   3.646  0.00  0.00    +0.388 N 
ATOM      7  H   UNL     1     -35.351  28.325   3.980  0.00  0.00    -0.089 HD
ATOM      8  H   UNL     1     -36.687  27.330   3.974  0.00  0.00    -0.089 HD
ATOM      9  H   UNL     1     -35.714  27.425   2.626  0.00  0.00    -0.089 HD
ENDBRANCH   5   6
BRANCH   5  10
ATOM     10  C   UNL     1     -35.120  25.099   3.275  0.00  0.00    +0.013 C 
BRANCH  10  11
ATOM     11  C   UNL     1     -35.184  23.817   4.072  0.00  0.00    -0.024 C 
ATOM     12  C   UNL     1     -35.110  23.874   5.454  0.00  0.00    -0.004 C 
ATOM     13  C   UNL     1     -35.315  22.610   3.405  0.00  0.00    -0.004 C 
ATOM     14  C   UNL     1     -35.169  22.690   6.190  0.00  0.00    -0.000 C 
ATOM     15  C   UNL     1     -35.375  21.427   4.140  0.00  0.00    -0.000 C 
ATOM     16  C   UNL     1     -35.302  21.466   5.533  0.00  0.00    -0.000 C 
ENDBRANCH  10  11
ENDBRANCH   5  10
ENDBRANCH   3   5
BRANCH   2  17
ATOM     17  C   UNL     1     -32.038  28.733   4.885  0.00  0.00    +0.225 C 
BRANCH  17  19
ATOM     18  O   UNL     1     -31.514  29.585   7.089  0.00  0.00    -0.247 OA
ATOM     19  C   UNL     1     -31.497  28.644   6.302  0.00  0.00    +0.343 C 
BRANCH  19  20
ATOM     20  O   UNL     1     -30.985  27.435   6.638  0.00  0.00    -0.478 OA
ATOM     21  H   UNL     1     -30.584  27.312   7.476  0.00  0.00    +0.295 HD
ENDBRANCH  19  20
ENDBRANCH  17  19
BRANCH  17  22
ATOM     22  S   UNL     1     -32.218  30.504   4.472  0.00  0.00    -0.083 S 
BRANCH  22  23
ATOM     23  C   UNL     1     -33.464  30.420   3.193  0.00  0.00    +0.027 C 
ATOM     24  C   UNL     1     -33.172  29.799   1.983  0.00  0.00    +0.006 C 
ATOM     25  C   UNL     1     -34.720  30.979   3.414  0.00  0.00    +0.006 C 
ATOM     26  C   UNL     1     -34.145  29.734   0.985  0.00  0.00    +0.001 C 
ATOM     27  C   UNL     1     -35.692  30.914   2.416  0.00  0.00    +0.001 C 
ATOM     28  C   UNL     1     -35.405  30.292   1.201  0.00  0.00    +0.000 C 
ENDBRANCH  22  23
ENDBRANCH  17  22
ENDBRANCH   2  17
TORSDOF 9
ENDMDL
MODEL 7
REMARK VINA RESULT:      -6.0      3.546      7.386
REMARK  Name = 5487117
REMARK  9 active torsions:
REMARK  status: ('A' for Active; 'I' for Inactive)
REMARK    1  A    between atoms: N_2  and  C_17
REMARK    2  A    between atoms: C_3  and  C_5
REMARK    3  A    between atoms: C_5  and  N_6
REMARK    4  A    between atoms: C_5  and  C_10
REMARK    5  A    between atoms: C_10  and  C_11
REMARK    6  A    between atoms: C_17  and  C_19
REMARK    7  A    between atoms: C_17  and  S_22
REMARK    8  A    between atoms: C_19  and  O_20
REMARK    9  A    between atoms: S_22  and  C_23
REMARK                            x       y       z     vdW  Elec       q    Type
REMARK                         _______ _______ _______ _____ _____    ______ ____
ROOT
ATOM      1  O   UNL     1     -33.931  26.905   1.717  0.00  0.00    -0.277 OA
ATOM      2  N   UNL     1     -35.716  27.469   3.090  0.00  0.00    -0.290 N 
ATOM      3  C   UNL     1     -34.576  27.741   2.347  0.00  0.00    +0.203 C 
ATOM      4  H   UNL     1     -36.159  28.213   3.559  0.00  0.00    +0.151 HD
ENDROOT
BRANCH   3   5
ATOM      5  C   UNL     1     -34.216  29.224   2.360  0.00  0.00    +0.017 C 
BRANCH   5   6
ATOM      6  N   UNL     1     -35.000  29.831   3.437  0.00  0.00    +0.388 N 
ATOM      7  H   UNL     1     -35.988  29.823   3.184  0.00  0.00    -0.089 HD
ATOM      8  H   UNL     1     -34.693  30.793   3.580  0.00  0.00    -0.089 HD
ATOM      9  H   UNL     1     -34.865  29.299   4.297  0.00  0.00    -0.089 HD
ENDBRANCH   5   6
BRANCH   5  10
ATOM     10  C   UNL     1     -32.723  29.459   2.629  0.00  0.00    +0.013 C 
BRANCH  10  11
ATOM     11  C   UNL     1     -32.386  29.448   4.102  0.00  0.00    -0.024 C 
ATOM     12  C   UNL     1     -32.223  28.236   4.751  0.00  0.00    -0.004 C 
ATOM     13  C   UNL     1     -32.248  30.652   4.774  0.00  0.00    -0.004 C 
ATOM     14  C   UNL     1     -31.912  28.227   6.111  0.00  0.00    -0.000 C 
ATOM     15  C   UNL     1     -31.938  30.642   6.133  0.00  0.00    -0.000 C 
ATOM     16  C   UNL     1     -31.769  29.430   6.803  0.00  0.00    -0.000 C 
ENDBRANCH  10  11
ENDBRANCH   5  10
ENDBRANCH   3   5
BRANCH   2  17
ATOM     17  C   UNL     1     -36.289  26.141   3.208  0.00  0.00    +0.225 C 
BRANCH  17  19
ATOM     18  O   UNL     1     -37.956  25.793   1.488  0.00  0.00    -0.247 OA
ATOM     19  C   UNL     1     -37.703  26.074   2.655  0.00  0.00    +0.343 C 
BRANCH  19  20
ATOM     20  O   UNL     1     -38.677  26.352   3.555  0.00  0.00    -0.478 OA
ATOM     21  H   UNL     1     -38.451  26.653   4.413  0.00  0.00    +0.295 HD
ENDBRANCH  19  20
ENDBRANCH  17  19
BRANCH  17  22
ATOM     22  S   UNL     1     -36.359  25.655   4.968  0.00  0.00    -0.083 S 
BRANCH  22  23
ATOM     23  C   UNL     1     -35.879  23.936   4.855  0.00  0.00    +0.027 C 
ATOM     24  C   UNL     1     -35.417  23.272   5.987  0.00  0.00    +0.006 C 
ATOM     25  C   UNL     1     -35.970  23.272   3.635  0.00  0.00    +0.006 C 
ATOM     26  C   UNL     1     -35.043  21.930   5.899  0.00  0.00    +0.001 C 
ATOM     27  C   UNL     1     -35.595  21.931   3.546  0.00  0.00    +0.001 C 
ATOM     28  C   UNL     1     -35.131  21.261   4.679  0.00  0.00    +0.000 C 
ENDBRANCH  22  23
ENDBRANCH  17  22
ENDBRANCH   2  17
TORSDOF 9
ENDMDL
MODEL 8
REMARK VINA RESULT:      -5.9      1.179      2.019
REMARK  Name = 5487117
REMARK  9 active torsions:
REMARK  status: ('A' for Active; 'I' for Inactive)
REMARK    1  A    between atoms: N_2  and  C_17
REMARK    2  A    between atoms: C_3  and  C_5
REMARK    3  A    between atoms: C_5  and  N_6
REMARK    4  A    between atoms: C_5  and  C_10
REMARK    5  A    between atoms: C_10  and  C_11
REMARK    6  A    between atoms: C_17  and  C_19
REMARK    7  A    between atoms: C_17  and  S_22
REMARK    8  A    between atoms: C_19  and  O_20
REMARK    9  A    between atoms: S_22  and  C_23
REMARK                            x       y       z     vdW  Elec       q    Type
REMARK                         _______ _______ _______ _____ _____    ______ ____
ROOT
ATOM      1  O   UNL     1     -35.150  21.080   4.323  0.00  0.00    -0.277 OA
ATOM      2  N   UNL     1     -35.644  22.569   2.612  0.00  0.00    -0.290 N 
ATOM      3  C   UNL     1     -35.503  21.305   3.167  0.00  0.00    +0.203 C 
ATOM      4  H   UNL     1     -35.933  22.640   1.674  0.00  0.00    +0.151 HD
ENDROOT
BRANCH   3   5
ATOM      5  C   UNL     1     -35.876  20.197   2.187  0.00  0.00    +0.017 C 
BRANCH   5   6
ATOM      6  N   UNL     1     -37.334  20.231   2.059  0.00  0.00    +0.388 N 
ATOM      7  H   UNL     1     -37.707  20.994   2.623  0.00  0.00    -0.089 HD
ATOM      8  H   UNL     1     -37.724  19.346   2.381  0.00  0.00    -0.089 HD
ATOM      9  H   UNL     1     -37.586  20.377   1.081  0.00  0.00    -0.089 HD
ENDBRANCH   5   6
BRANCH   5  10
ATOM     10  C   UNL     1     -35.243  20.406   0.803  0.00  0.00    +0.013 C 
BRANCH  10  11
ATOM     11  C   UNL     1     -33.829  19.879   0.722  0.00  0.00    -0.024 C 
ATOM     12  C   UNL     1     -32.862  20.630   0.076  0.00  0.00    -0.004 C 
ATOM     13  C   UNL     1     -33.529  18.655   1.296  0.00  0.00    -0.004 C 
ATOM     14  C   UNL     1     -31.557  20.143   0.000  0.00  0.00    -0.000 C 
ATOM     15  C   UNL     1     -32.224  18.169   1.221  0.00  0.00    -0.000 C 
ATOM     16  C   UNL     1     -31.238  18.912   0.574  0.00  0.00    -0.000 C 
ENDBRANCH  10  11
ENDBRANCH   5  10
ENDBRANCH   3   5
BRANCH   2  17
ATOM     17  C   UNL     1     -35.387  23.793   3.349  0.00  0.00    +0.225 C 
BRANCH  17  19
ATOM     18  O   UNL     1     -37.475  24.553   4.308  0.00  0.00    -0.247 OA
ATOM     19  C   UNL     1     -36.388  24.008   4.472  0.00  0.00    +0.343 C 
BRANCH  19  20
ATOM     20  O   UNL     1     -35.987  23.551   5.683  0.00  0.00    -0.478 OA
ATOM     21  H   UNL     1     -36.582  23.068   6.222  0.00  0.00    +0.295 HD
ENDBRANCH  19  20
ENDBRANCH  17  19
BRANCH  17  22
ATOM     22  S   UNL     1     -35.503  25.227   2.222  0.00  0.00    -0.083 S 
BRANCH  22  23
ATOM     23  C   UNL     1     -34.050  26.148   2.709  0.00  0.00    +0.027 C 
ATOM     24  C   UNL     1     -34.125  27.051   3.765  0.00  0.00    +0.006 C 
ATOM     25  C   UNL     1     -32.850  25.957   2.028  0.00  0.00    +0.006 C 
ATOM     26  C   UNL     1     -32.991  27.770   4.145  0.00  0.00    +0.001 C 
ATOM     27  C   UNL     1     -31.717  26.676   2.408  0.00  0.00    +0.001 C 
ATOM     28  C   UNL     1     -31.787  27.582   3.466  0.00  0.00    +0.000 C 
ENDBRANCH  22  23
ENDBRANCH  17  22
ENDBRANCH   2  17
TORSDOF 9
ENDMDL
MODEL 9
REMARK VINA RESULT:      -5.9      3.683      5.825
REMARK  Name = 5487117
REMARK  9 active torsions:
REMARK  status: ('A' for Active; 'I' for Inactive)
REMARK    1  A    between atoms: N_2  and  C_17
REMARK    2  A    between atoms: C_3  and  C_5
REMARK    3  A    between atoms: C_5  and  N_6
REMARK    4  A    between atoms: C_5  and  C_10
REMARK    5  A    between atoms: C_10  and  C_11
REMARK    6  A    between atoms: C_17  and  C_19
REMARK    7  A    between atoms: C_17  and  S_22
REMARK    8  A    between atoms: C_19  and  O_20
REMARK    9  A    between atoms: S_22  and  C_23
REMARK                            x       y       z     vdW  Elec       q    Type
REMARK                         _______ _______ _______ _____ _____    ______ ____
ROOT
ATOM      1  O   UNL     1     -35.953  21.542   1.898  0.00  0.00    -0.277 OA
ATOM      2  N   UNL     1     -36.712  22.717   3.750  0.00  0.00    -0.290 N 
ATOM      3  C   UNL     1     -36.848  22.131   2.499  0.00  0.00    +0.203 C 
ATOM      4  H   UNL     1     -37.494  23.166   4.145  0.00  0.00    +0.151 HD
ENDROOT
BRANCH   3   5
ATOM      5  C   UNL     1     -38.266  22.262   1.949  0.00  0.00    +0.017 C 
BRANCH   5   6
ATOM      6  N   UNL     1     -38.944  21.000   2.250  0.00  0.00    +0.388 N 
ATOM      7  H   UNL     1     -38.261  20.313   2.568  0.00  0.00    -0.089 HD
ATOM      8  H   UNL     1     -39.409  20.655   1.410  0.00  0.00    -0.089 HD
ATOM      9  H   UNL     1     -39.638  21.153   2.982  0.00  0.00    -0.089 HD
ENDBRANCH   5   6
BRANCH   5  10
ATOM     10  C   UNL     1     -39.038  23.418   2.601  0.00  0.00    +0.013 C 
BRANCH  10  11
ATOM     11  C   UNL     1     -39.261  24.576   1.657  0.00  0.00    -0.024 C 
ATOM     12  C   UNL     1     -38.609  24.591   0.436  0.00  0.00    -0.004 C 
ATOM     13  C   UNL     1     -40.114  25.602   2.032  0.00  0.00    -0.004 C 
ATOM     14  C   UNL     1     -38.815  25.661  -0.436  0.00  0.00    -0.000 C 
ATOM     15  C   UNL     1     -40.320  26.671   1.161  0.00  0.00    -0.000 C 
ATOM     16  C   UNL     1     -39.671  26.701  -0.073  0.00  0.00    -0.000 C 
ENDBRANCH  10  11
ENDBRANCH   5  10
ENDBRANCH   3   5
BRANCH   2  17
ATOM     17  C   UNL     1     -35.473  22.698   4.505  0.00  0.00    +0.225 C 
BRANCH  17  19
ATOM     18  O   UNL     1     -36.172  22.125   6.750  0.00  0.00    -0.247 OA
ATOM     19  C   UNL     1     -35.562  21.808   5.733  0.00  0.00    +0.343 C 
BRANCH  19  20
ATOM     20  O   UNL     1     -34.910  20.625   5.625  0.00  0.00    -0.478 OA
ATOM     21  H   UNL     1     -35.290  19.923   5.135  0.00  0.00    +0.295 HD
ENDBRANCH  19  20
ENDBRANCH  17  19
BRANCH  17  22
ATOM     22  S   UNL     1     -35.071  24.387   5.073  0.00  0.00    -0.083 S 
BRANCH  22  23
ATOM     23  C   UNL     1     -35.275  25.305   3.552  0.00  0.00    +0.027 C 
ATOM     24  C   UNL     1     -36.296  26.244   3.442  0.00  0.00    +0.006 C 
ATOM     25  C   UNL     1     -34.410  25.074   2.485  0.00  0.00    +0.006 C 
ATOM     26  C   UNL     1     -36.454  26.960   2.255  0.00  0.00    +0.001 C 
ATOM     27  C   UNL     1     -34.569  25.790   1.298  0.00  0.00    +0.001 C 
ATOM     28  C   UNL     1     -35.591  26.732   1.183  0.00  0.00    +0.000 C 
ENDBRANCH  22  23
ENDBRANCH  17  22
ENDBRANCH   2  17
TORSDOF 9
ENDMDL
