MODEL 1
REMARK VINA RESULT:      -7.0      0.000      0.000
REMARK  Name = 53262780
REMARK  10 active torsions:
REMARK  status: ('A' for Active; 'I' for Inactive)
REMARK    1  A    between atoms: C_1  and  C_26
REMARK    2  A    between atoms: C_2  and  O_9
REMARK    3  A    between atoms: C_3  and  C_14
REMARK    4  A    between atoms: C_4  and  O_11
REMARK    5  A    between atoms: C_5  and  O_7
REMARK    6  A    between atoms: C_14  and  C_15
REMARK    7  A    between atoms: C_16  and  C_17
REMARK    8  A    between atoms: C_22  and  O_23
REMARK    9  A    between atoms: C_25  and  C_27
REMARK   10  A    between atoms: C_27  and  O_30
REMARK                            x       y       z     vdW  Elec       q    Type
REMARK                         _______ _______ _______ _____ _____    ______ ____
ROOT
ATOM      1  C   UNL     1     -37.093  24.929   2.879  0.00  0.00    +0.067 C 
ATOM      2  C   UNL     1     -36.892  23.725   2.205  0.00  0.00    +0.142 C 
ATOM      3  C   UNL     1     -36.306  22.646   2.867  0.00  0.00    +0.107 C 
ATOM      4  C   UNL     1     -36.708  25.056   4.213  0.00  0.00    +0.140 C 
ATOM      5  C   UNL     1     -35.921  22.771   4.201  0.00  0.00    +0.148 C 
ATOM      6  C   UNL     1     -36.122  23.976   4.875  0.00  0.00    +0.074 C 
ENDROOT
BRANCH   5   7
ATOM      7  O   UNL     1     -35.346  21.730   4.866  0.00  0.00    -0.471 OA
ATOM      8  C   UNL     1     -35.260  21.837   6.286  0.00  0.00    +0.252 C 
ENDBRANCH   5   7
BRANCH   2   9
ATOM      9  O   UNL     1     -37.267  23.594   0.898  0.00  0.00    -0.505 OA
ATOM     10  H   UNL     1     -37.004  22.840   0.408  0.00  0.00    +0.292 HD
ENDBRANCH   2   9
BRANCH   4  11
ATOM     11  O   UNL     1     -36.892  26.221   4.898  0.00  0.00    -0.505 OA
ATOM     12  H   UNL     1     -36.598  26.294   5.785  0.00  0.00    +0.292 HD
ENDBRANCH   4  11
BRANCH   3  14
ATOM     13  O   UNL     1     -37.021  20.576   2.024  0.00  0.00    -0.286 OA
ATOM     14  C   UNL     1     -36.094  21.384   2.165  0.00  0.00    +0.202 C 
BRANCH  14  15
ATOM     15  C   UNL     1     -34.719  21.075   1.648  0.00  0.00    +0.042 C 
ATOM     16  C   UNL     1     -34.314  19.803   1.511  0.00  0.00    +0.003 C 
BRANCH  16  17
ATOM     17  C   UNL     1     -32.982  19.398   1.028  0.00  0.00    +0.000 C 
ATOM     18  C   UNL     1     -32.458  18.156   1.387  0.00  0.00    +0.003 C 
ATOM     19  C   UNL     1     -32.245  20.258   0.213  0.00  0.00    +0.003 C 
ATOM     20  C   UNL     1     -31.197  17.774   0.931  0.00  0.00    +0.037 C 
ATOM     21  C   UNL     1     -30.984  19.875  -0.243  0.00  0.00    +0.037 C 
ATOM     22  C   UNL     1     -30.459  18.633   0.116  0.00  0.00    +0.134 C 
BRANCH  22  23
ATOM     23  O   UNL     1     -29.229  18.260  -0.328  0.00  0.00    -0.506 OA
ATOM     24  H   UNL     1     -29.025  18.309  -1.242  0.00  0.00    +0.292 HD
ENDBRANCH  22  23
ENDBRANCH  16  17
ENDBRANCH  14  15
ENDBRANCH   3  14
BRANCH   1  26
ATOM     25  C   UNL     1     -39.032  26.317   2.139  0.00  0.00    +0.000 C 
ATOM     26  C   UNL     1     -37.713  26.072   2.183  0.00  0.00    +0.004 C 
BRANCH  25  27
ATOM     27  C   UNL     1     -40.131  25.494   2.778  0.00  0.00    +0.107 C 
ATOM     28  C   UNL     1     -41.437  26.245   3.062  0.00  0.00    +0.034 C 
ATOM     29  C   UNL     1     -40.417  24.267   1.905  0.00  0.00    +0.034 C 
BRANCH  27  30
ATOM     30  O   UNL     1     -39.617  25.033   4.033  0.00  0.00    -0.383 OA
ATOM     31  H   UNL     1     -40.300  24.521   4.493  0.00  0.00    +0.211 HD
ENDBRANCH  27  30
ENDBRANCH  25  27
ENDBRANCH   1  26
TORSDOF 10
ENDMDL
MODEL 2
REMARK VINA RESULT:      -6.8      1.774      3.846
REMARK  Name = 53262780
REMARK  10 active torsions:
REMARK  status: ('A' for Active; 'I' for Inactive)
REMARK    1  A    between atoms: C_1  and  C_26
REMARK    2  A    between atoms: C_2  and  O_9
REMARK    3  A    between atoms: C_3  and  C_14
REMARK    4  A    between atoms: C_4  and  O_11
REMARK    5  A    between atoms: C_5  and  O_7
REMARK    6  A    between atoms: C_14  and  C_15
REMARK    7  A    between atoms: C_16  and  C_17
REMARK    8  A    between atoms: C_22  and  O_23
REMARK    9  A    between atoms: C_25  and  C_27
REMARK   10  A    between atoms: C_27  and  O_30
REMARK                            x       y       z     vdW  Elec       q    Type
REMARK                         _______ _______ _______ _____ _____    ______ ____
ROOT
ATOM      1  C   UNL     1     -36.808  24.770   3.608  0.00  0.00    +0.067 C 
ATOM      2  C   UNL     1     -36.507  23.424   3.397  0.00  0.00    +0.142 C 
ATOM      3  C   UNL     1     -36.482  22.911   2.100  0.00  0.00    +0.107 C 
ATOM      4  C   UNL     1     -37.083  25.602   2.523  0.00  0.00    +0.140 C 
ATOM      5  C   UNL     1     -36.756  23.742   1.015  0.00  0.00    +0.148 C 
ATOM      6  C   UNL     1     -37.057  25.088   1.226  0.00  0.00    +0.074 C 
ENDROOT
BRANCH   5   7
ATOM      7  O   UNL     1     -36.737  23.262  -0.260  0.00  0.00    -0.471 OA
ATOM      8  C   UNL     1     -37.981  23.222  -0.956  0.00  0.00    +0.252 C 
ENDBRANCH   5   7
BRANCH   2   9
ATOM      9  O   UNL     1     -36.236  22.604   4.455  0.00  0.00    -0.505 OA
ATOM     10  H   UNL     1     -36.890  22.009   4.765  0.00  0.00    +0.292 HD
ENDBRANCH   2   9
BRANCH   4  11
ATOM     11  O   UNL     1     -37.381  26.922   2.698  0.00  0.00    -0.505 OA
ATOM     12  H   UNL     1     -37.457  27.487   1.954  0.00  0.00    +0.292 HD
ENDBRANCH   4  11
BRANCH   3  14
ATOM     13  O   UNL     1     -37.012  20.625   2.096  0.00  0.00    -0.286 OA
ATOM     14  C   UNL     1     -36.167  21.504   1.875  0.00  0.00    +0.202 C 
BRANCH  14  15
ATOM     15  C   UNL     1     -34.789  21.145   1.403  0.00  0.00    +0.042 C 
ATOM     16  C   UNL     1     -34.366  19.873   1.444  0.00  0.00    +0.003 C 
BRANCH  16  17
ATOM     17  C   UNL     1     -33.028  19.423   1.019  0.00  0.00    +0.000 C 
ATOM     18  C   UNL     1     -32.236  20.248   0.221  0.00  0.00    +0.003 C 
ATOM     19  C   UNL     1     -32.556  18.171   1.412  0.00  0.00    +0.003 C 
ATOM     20  C   UNL     1     -30.971  19.823  -0.183  0.00  0.00    +0.037 C 
ATOM     21  C   UNL     1     -31.291  17.744   1.008  0.00  0.00    +0.037 C 
ATOM     22  C   UNL     1     -30.498  18.570   0.211  0.00  0.00    +0.134 C 
BRANCH  22  23
ATOM     23  O   UNL     1     -29.264  18.155  -0.183  0.00  0.00    -0.506 OA
ATOM     24  H   UNL     1     -29.047  17.243  -0.164  0.00  0.00    +0.292 HD
ENDBRANCH  22  23
ENDBRANCH  16  17
ENDBRANCH  14  15
ENDBRANCH   3  14
BRANCH   1  26
ATOM     25  C   UNL     1     -35.770  25.812   5.625  0.00  0.00    +0.000 C 
ATOM     26  C   UNL     1     -36.836  25.316   4.976  0.00  0.00    +0.004 C 
BRANCH  25  27
ATOM     27  C   UNL     1     -34.353  25.911   5.100  0.00  0.00    +0.107 C 
ATOM     28  C   UNL     1     -34.192  26.668   3.777  0.00  0.00    +0.034 C 
ATOM     29  C   UNL     1     -33.459  26.543   6.173  0.00  0.00    +0.034 C 
BRANCH  27  30
ATOM     30  O   UNL     1     -33.903  24.568   4.885  0.00  0.00    -0.383 OA
ATOM     31  H   UNL     1     -34.113  24.298   3.978  0.00  0.00    +0.211 HD
ENDBRANCH  27  30
ENDBRANCH  25  27
ENDBRANCH   1  26
TORSDOF 10
ENDMDL
MODEL 3
REMARK VINA RESULT:      -6.8      1.633      2.781
REMARK  Name = 53262780
REMARK  10 active torsions:
REMARK  status: ('A' for Active; 'I' for Inactive)
REMARK    1  A    between atoms: C_1  and  C_26
REMARK    2  A    between atoms: C_2  and  O_9
REMARK    3  A    between atoms: C_3  and  C_14
REMARK    4  A    between atoms: C_4  and  O_11
REMARK    5  A    between atoms: C_5  and  O_7
REMARK    6  A    between atoms: C_14  and  C_15
REMARK    7  A    between atoms: C_16  and  C_17
REMARK    8  A    between atoms: C_22  and  O_23
REMARK    9  A    between atoms: C_25  and  C_27
REMARK   10  A    between atoms: C_27  and  O_30
REMARK                            x       y       z     vdW  Elec       q    Type
REMARK                         _______ _______ _______ _____ _____    ______ ____
ROOT
ATOM      1  C   UNL     1     -36.611  25.458   3.097  0.00  0.00    +0.067 C 
ATOM      2  C   UNL     1     -36.544  24.278   2.358  0.00  0.00    +0.142 C 
ATOM      3  C   UNL     1     -36.211  23.078   2.988  0.00  0.00    +0.107 C 
ATOM      4  C   UNL     1     -36.345  25.440   4.467  0.00  0.00    +0.140 C 
ATOM      5  C   UNL     1     -35.946  23.060   4.356  0.00  0.00    +0.148 C 
ATOM      6  C   UNL     1     -36.013  24.241   5.097  0.00  0.00    +0.074 C 
ENDROOT
BRANCH   5   7
ATOM      7  O   UNL     1     -35.619  21.899   4.992  0.00  0.00    -0.471 OA
ATOM      8  C   UNL     1     -35.301  21.989   6.379  0.00  0.00    +0.252 C 
ENDBRANCH   5   7
BRANCH   2   9
ATOM      9  O   UNL     1     -36.804  24.288   1.017  0.00  0.00    -0.505 OA
ATOM     10  H   UNL     1     -37.688  24.340   0.711  0.00  0.00    +0.292 HD
ENDBRANCH   2   9
BRANCH   4  11
ATOM     11  O   UNL     1     -36.403  26.579   5.216  0.00  0.00    -0.505 OA
ATOM     12  H   UNL     1     -35.652  26.856   5.704  0.00  0.00    +0.292 HD
ENDBRANCH   4  11
BRANCH   3  14
ATOM     13  O   UNL     1     -37.153  21.152   2.034  0.00  0.00    -0.286 OA
ATOM     14  C   UNL     1     -36.140  21.842   2.217  0.00  0.00    +0.202 C 
BRANCH  14  15
ATOM     15  C   UNL     1     -34.807  21.409   1.680  0.00  0.00    +0.042 C 
ATOM     16  C   UNL     1     -34.503  20.105   1.586  0.00  0.00    +0.003 C 
BRANCH  16  17
ATOM     17  C   UNL     1     -33.219  19.581   1.088  0.00  0.00    +0.000 C 
ATOM     18  C   UNL     1     -32.807  18.295   1.439  0.00  0.00    +0.003 C 
ATOM     19  C   UNL     1     -32.415  20.372   0.267  0.00  0.00    +0.003 C 
ATOM     20  C   UNL     1     -31.591  17.800   0.969  0.00  0.00    +0.037 C 
ATOM     21  C   UNL     1     -31.198  19.877  -0.203  0.00  0.00    +0.037 C 
ATOM     22  C   UNL     1     -30.786  18.591   0.148  0.00  0.00    +0.134 C 
BRANCH  22  23
ATOM     23  O   UNL     1     -29.600  18.107  -0.310  0.00  0.00    -0.506 OA
ATOM     24  H   UNL     1     -28.798  18.367   0.100  0.00  0.00    +0.292 HD
ENDBRANCH  22  23
ENDBRANCH  16  17
ENDBRANCH  14  15
ENDBRANCH   3  14
BRANCH   1  26
ATOM     25  C   UNL     1     -36.079  27.672   2.073  0.00  0.00    +0.000 C 
ATOM     26  C   UNL     1     -36.962  26.727   2.435  0.00  0.00    +0.004 C 
BRANCH  25  27
ATOM     27  C   UNL     1     -34.577  27.632   2.263  0.00  0.00    +0.107 C 
ATOM     28  C   UNL     1     -33.901  26.306   1.897  0.00  0.00    +0.034 C 
ATOM     29  C   UNL     1     -33.937  28.779   1.473  0.00  0.00    +0.034 C 
BRANCH  27  30
ATOM     30  O   UNL     1     -34.338  27.868   3.656  0.00  0.00    -0.383 OA
ATOM     31  H   UNL     1     -34.731  27.151   4.177  0.00  0.00    +0.211 HD
ENDBRANCH  27  30
ENDBRANCH  25  27
ENDBRANCH   1  26
TORSDOF 10
ENDMDL
MODEL 4
REMARK VINA RESULT:      -6.6      3.158      6.771
REMARK  Name = 53262780
REMARK  10 active torsions:
REMARK  status: ('A' for Active; 'I' for Inactive)
REMARK    1  A    between atoms: C_1  and  C_26
REMARK    2  A    between atoms: C_2  and  O_9
REMARK    3  A    between atoms: C_3  and  C_14
REMARK    4  A    between atoms: C_4  and  O_11
REMARK    5  A    between atoms: C_5  and  O_7
REMARK    6  A    between atoms: C_14  and  C_15
REMARK    7  A    between atoms: C_16  and  C_17
REMARK    8  A    between atoms: C_22  and  O_23
REMARK    9  A    between atoms: C_25  and  C_27
REMARK   10  A    between atoms: C_27  and  O_30
REMARK                            x       y       z     vdW  Elec       q    Type
REMARK                         _______ _______ _______ _____ _____    ______ ____
ROOT
ATOM      1  C   UNL     1     -35.799  21.910   1.601  0.00  0.00    +0.067 C 
ATOM      2  C   UNL     1     -36.277  23.149   2.026  0.00  0.00    +0.142 C 
ATOM      3  C   UNL     1     -36.383  23.426   3.389  0.00  0.00    +0.107 C 
ATOM      4  C   UNL     1     -35.427  20.946   2.539  0.00  0.00    +0.140 C 
ATOM      5  C   UNL     1     -36.011  22.463   4.327  0.00  0.00    +0.148 C 
ATOM      6  C   UNL     1     -35.533  21.223   3.902  0.00  0.00    +0.074 C 
ENDROOT
BRANCH   5   7
ATOM      7  O   UNL     1     -36.107  22.712   5.664  0.00  0.00    -0.471 OA
ATOM      8  C   UNL     1     -35.202  22.017   6.518  0.00  0.00    +0.252 C 
ENDBRANCH   5   7
BRANCH   2   9
ATOM      9  O   UNL     1     -36.642  24.097   1.113  0.00  0.00    -0.505 OA
ATOM     10  H   UNL     1     -37.528  24.139   0.810  0.00  0.00    +0.292 HD
ENDBRANCH   2   9
BRANCH   4  11
ATOM     11  O   UNL     1     -34.956  19.725   2.154  0.00  0.00    -0.505 OA
ATOM     12  H   UNL     1     -34.559  19.621   1.312  0.00  0.00    +0.292 HD
ENDBRANCH   4  11
BRANCH   3  14
ATOM     13  O   UNL     1     -38.020  25.101   3.528  0.00  0.00    -0.286 OA
ATOM     14  C   UNL     1     -36.883  24.721   3.837  0.00  0.00    +0.202 C 
BRANCH  14  15
ATOM     15  C   UNL     1     -35.975  25.595   4.652  0.00  0.00    +0.042 C 
ATOM     16  C   UNL     1     -34.720  25.837   4.246  0.00  0.00    +0.003 C 
BRANCH  16  17
ATOM     17  C   UNL     1     -33.749  26.667   4.982  0.00  0.00    +0.000 C 
ATOM     18  C   UNL     1     -33.005  27.634   4.307  0.00  0.00    +0.003 C 
ATOM     19  C   UNL     1     -33.574  26.483   6.354  0.00  0.00    +0.003 C 
ATOM     20  C   UNL     1     -32.085  28.418   5.003  0.00  0.00    +0.037 C 
ATOM     21  C   UNL     1     -32.654  27.267   7.050  0.00  0.00    +0.037 C 
ATOM     22  C   UNL     1     -31.909  28.235   6.375  0.00  0.00    +0.134 C 
BRANCH  22  23
ATOM     23  O   UNL     1     -31.012  29.000   7.054  0.00  0.00    -0.506 OA
ATOM     24  H   UNL     1     -31.252  29.858   7.343  0.00  0.00    +0.292 HD
ENDBRANCH  22  23
ENDBRANCH  16  17
ENDBRANCH  14  15
ENDBRANCH   3  14
BRANCH   1  26
ATOM     25  C   UNL     1     -36.585  20.916  -0.550  0.00  0.00    +0.000 C 
ATOM     26  C   UNL     1     -35.685  21.614   0.162  0.00  0.00    +0.004 C 
BRANCH  25  27
ATOM     27  C   UNL     1     -37.872  20.304  -0.037  0.00  0.00    +0.107 C 
ATOM     28  C   UNL     1     -38.751  21.231   0.809  0.00  0.00    +0.034 C 
ATOM     29  C   UNL     1     -38.679  19.757  -1.219  0.00  0.00    +0.034 C 
BRANCH  27  30
ATOM     30  O   UNL     1     -37.493  19.196   0.790  0.00  0.00    -0.383 OA
ATOM     31  H   UNL     1     -38.273  18.650   0.973  0.00  0.00    +0.211 HD
ENDBRANCH  27  30
ENDBRANCH  25  27
ENDBRANCH   1  26
TORSDOF 10
ENDMDL
MODEL 5
REMARK VINA RESULT:      -6.6      3.059      6.267
REMARK  Name = 53262780
REMARK  10 active torsions:
REMARK  status: ('A' for Active; 'I' for Inactive)
REMARK    1  A    between atoms: C_1  and  C_26
REMARK    2  A    between atoms: C_2  and  O_9
REMARK    3  A    between atoms: C_3  and  C_14
REMARK    4  A    between atoms: C_4  and  O_11
REMARK    5  A    between atoms: C_5  and  O_7
REMARK    6  A    between atoms: C_14  and  C_15
REMARK    7  A    between atoms: C_16  and  C_17
REMARK    8  A    between atoms: C_22  and  O_23
REMARK    9  A    between atoms: C_25  and  C_27
REMARK   10  A    between atoms: C_27  and  O_30
REMARK                            x       y       z     vdW  Elec       q    Type
REMARK                         _______ _______ _______ _____ _____    ______ ____
ROOT
ATOM      1  C   UNL     1     -38.449  23.710   2.383  0.00  0.00    +0.067 C 
ATOM      2  C   UNL     1     -37.647  23.916   3.505  0.00  0.00    +0.142 C 
ATOM      3  C   UNL     1     -36.572  23.064   3.759  0.00  0.00    +0.107 C 
ATOM      4  C   UNL     1     -38.178  22.652   1.516  0.00  0.00    +0.140 C 
ATOM      5  C   UNL     1     -36.300  22.006   2.893  0.00  0.00    +0.148 C 
ATOM      6  C   UNL     1     -37.103  21.799   1.770  0.00  0.00    +0.074 C 
ENDROOT
BRANCH   5   7
ATOM      7  O   UNL     1     -35.255  21.162   3.122  0.00  0.00    -0.471 OA
ATOM      8  C   UNL     1     -34.934  20.234   2.088  0.00  0.00    +0.252 C 
ENDBRANCH   5   7
BRANCH   2   9
ATOM      9  O   UNL     1     -37.906  24.951   4.358  0.00  0.00    -0.505 OA
ATOM     10  H   UNL     1     -37.908  24.806   5.284  0.00  0.00    +0.292 HD
ENDBRANCH   2   9
BRANCH   4  11
ATOM     11  O   UNL     1     -38.946  22.424   0.411  0.00  0.00    -0.505 OA
ATOM     12  H   UNL     1     -38.538  22.214  -0.406  0.00  0.00    +0.292 HD
ENDBRANCH   4  11
BRANCH   3  14
ATOM     13  O   UNL     1     -35.933  22.647   5.978  0.00  0.00    -0.286 OA
ATOM     14  C   UNL     1     -35.730  23.277   4.932  0.00  0.00    +0.202 C 
BRANCH  14  15
ATOM     15  C   UNL     1     -34.634  24.300   4.849  0.00  0.00    +0.042 C 
ATOM     16  C   UNL     1     -34.687  25.414   5.595  0.00  0.00    +0.003 C 
BRANCH  16  17
ATOM     17  C   UNL     1     -33.671  26.481   5.574  0.00  0.00    +0.000 C 
ATOM     18  C   UNL     1     -33.322  27.089   4.368  0.00  0.00    +0.003 C 
ATOM     19  C   UNL     1     -33.057  26.883   6.761  0.00  0.00    +0.003 C 
ATOM     20  C   UNL     1     -32.360  28.098   4.347  0.00  0.00    +0.037 C 
ATOM     21  C   UNL     1     -32.095  27.893   6.741  0.00  0.00    +0.037 C 
ATOM     22  C   UNL     1     -31.746  28.500   5.534  0.00  0.00    +0.134 C 
BRANCH  22  23
ATOM     23  O   UNL     1     -30.807  29.485   5.514  0.00  0.00    -0.506 OA
ATOM     24  H   UNL     1     -30.519  29.841   4.697  0.00  0.00    +0.292 HD
ENDBRANCH  22  23
ENDBRANCH  16  17
ENDBRANCH  14  15
ENDBRANCH   3  14
BRANCH   1  26
ATOM     25  C   UNL     1     -39.486  25.814   1.529  0.00  0.00    +0.000 C 
ATOM     26  C   UNL     1     -39.586  24.608   2.111  0.00  0.00    +0.004 C 
BRANCH  25  27
ATOM     27  C   UNL     1     -38.219  26.486   1.043  0.00  0.00    +0.107 C 
ATOM     28  C   UNL     1     -37.221  25.571   0.325  0.00  0.00    +0.034 C 
ATOM     29  C   UNL     1     -38.587  27.666   0.137  0.00  0.00    +0.034 C 
BRANCH  27  30
ATOM     30  O   UNL     1     -37.565  27.010   2.205  0.00  0.00    -0.383 OA
ATOM     31  H   UNL     1     -38.156  26.933   2.970  0.00  0.00    +0.211 HD
ENDBRANCH  27  30
ENDBRANCH  25  27
ENDBRANCH   1  26
TORSDOF 10
ENDMDL
MODEL 6
REMARK VINA RESULT:      -6.6      2.492      3.355
REMARK  Name = 53262780
REMARK  10 active torsions:
REMARK  status: ('A' for Active; 'I' for Inactive)
REMARK    1  A    between atoms: C_1  and  C_26
REMARK    2  A    between atoms: C_2  and  O_9
REMARK    3  A    between atoms: C_3  and  C_14
REMARK    4  A    between atoms: C_4  and  O_11
REMARK    5  A    between atoms: C_5  and  O_7
REMARK    6  A    between atoms: C_14  and  C_15
REMARK    7  A    between atoms: C_16  and  C_17
REMARK    8  A    between atoms: C_22  and  O_23
REMARK    9  A    between atoms: C_25  and  C_27
REMARK   10  A    between atoms: C_27  and  O_30
REMARK                            x       y       z     vdW  Elec       q    Type
REMARK                         _______ _______ _______ _____ _____    ______ ____
ROOT
ATOM      1  C   UNL     1     -34.101  25.384   3.181  0.00  0.00    +0.067 C 
ATOM      2  C   UNL     1     -34.841  24.351   2.606  0.00  0.00    +0.142 C 
ATOM      3  C   UNL     1     -35.503  23.431   3.420  0.00  0.00    +0.107 C 
ATOM      4  C   UNL     1     -34.022  25.497   4.569  0.00  0.00    +0.140 C 
ATOM      5  C   UNL     1     -35.424  23.544   4.807  0.00  0.00    +0.148 C 
ATOM      6  C   UNL     1     -34.683  24.577   5.382  0.00  0.00    +0.074 C 
ENDROOT
BRANCH   5   7
ATOM      7  O   UNL     1     -36.063  22.656   5.621  0.00  0.00    -0.471 OA
ATOM      8  C   UNL     1     -35.248  21.722   6.325  0.00  0.00    +0.252 C 
ENDBRANCH   5   7
BRANCH   2   9
ATOM      9  O   UNL     1     -34.923  24.234   1.247  0.00  0.00    -0.505 OA
ATOM     10  H   UNL     1     -35.189  23.422   0.862  0.00  0.00    +0.292 HD
ENDBRANCH   2   9
BRANCH   4  11
ATOM     11  O   UNL     1     -33.305  26.496   5.160  0.00  0.00    -0.505 OA
ATOM     12  H   UNL     1     -32.698  26.295   5.844  0.00  0.00    +0.292 HD
ENDBRANCH   4  11
BRANCH   3  14
ATOM     13  O   UNL     1     -37.478  22.503   2.558  0.00  0.00    -0.286 OA
ATOM     14  C   UNL     1     -36.278  22.349   2.822  0.00  0.00    +0.202 C 
BRANCH  14  15
ATOM     15  C   UNL     1     -35.596  21.037   2.565  0.00  0.00    +0.042 C 
ATOM     16  C   UNL     1     -35.242  20.688   1.319  0.00  0.00    +0.003 C 
BRANCH  16  17
ATOM     17  C   UNL     1     -34.583  19.419   0.963  0.00  0.00    +0.000 C 
ATOM     18  C   UNL     1     -33.347  19.093   1.521  0.00  0.00    +0.003 C 
ATOM     19  C   UNL     1     -35.195  18.543   0.066  0.00  0.00    +0.003 C 
ATOM     20  C   UNL     1     -32.722  17.894   1.183  0.00  0.00    +0.037 C 
ATOM     21  C   UNL     1     -34.571  17.343  -0.273  0.00  0.00    +0.037 C 
ATOM     22  C   UNL     1     -33.335  17.017   0.286  0.00  0.00    +0.134 C 
BRANCH  22  23
ATOM     23  O   UNL     1     -32.725  15.846  -0.044  0.00  0.00    -0.506 OA
ATOM     24  H   UNL     1     -31.824  15.843  -0.300  0.00  0.00    +0.292 HD
ENDBRANCH  22  23
ENDBRANCH  16  17
ENDBRANCH  14  15
ENDBRANCH   3  14
BRANCH   1  26
ATOM     25  C   UNL     1     -33.887  27.559   1.976  0.00  0.00    +0.000 C 
ATOM     26  C   UNL     1     -33.401  26.357   2.325  0.00  0.00    +0.004 C 
BRANCH  25  27
ATOM     27  C   UNL     1     -35.222  28.151   2.379  0.00  0.00    +0.107 C 
ATOM     28  C   UNL     1     -35.440  29.615   1.982  0.00  0.00    +0.034 C 
ATOM     29  C   UNL     1     -36.352  27.284   1.813  0.00  0.00    +0.034 C 
BRANCH  27  30
ATOM     30  O   UNL     1     -35.283  28.079   3.809  0.00  0.00    -0.383 OA
ATOM     31  H   UNL     1     -35.904  27.381   4.070  0.00  0.00    +0.211 HD
ENDBRANCH  27  30
ENDBRANCH  25  27
ENDBRANCH   1  26
TORSDOF 10
ENDMDL
MODEL 7
REMARK VINA RESULT:      -6.6      2.758      4.188
REMARK  Name = 53262780
REMARK  10 active torsions:
REMARK  status: ('A' for Active; 'I' for Inactive)
REMARK    1  A    between atoms: C_1  and  C_26
REMARK    2  A    between atoms: C_2  and  O_9
REMARK    3  A    between atoms: C_3  and  C_14
REMARK    4  A    between atoms: C_4  and  O_11
REMARK    5  A    between atoms: C_5  and  O_7
REMARK    6  A    between atoms: C_14  and  C_15
REMARK    7  A    between atoms: C_16  and  C_17
REMARK    8  A    between atoms: C_22  and  O_23
REMARK    9  A    between atoms: C_25  and  C_27
REMARK   10  A    between atoms: C_27  and  O_30
REMARK                            x       y       z     vdW  Elec       q    Type
REMARK                         _______ _______ _______ _____ _____    ______ ____
ROOT
ATOM      1  C   UNL     1     -35.099  26.373   3.829  0.00  0.00    +0.067 C 
ATOM      2  C   UNL     1     -35.909  25.445   3.175  0.00  0.00    +0.142 C 
ATOM      3  C   UNL     1     -36.240  24.244   3.801  0.00  0.00    +0.107 C 
ATOM      4  C   UNL     1     -34.619  26.099   5.110  0.00  0.00    +0.140 C 
ATOM      5  C   UNL     1     -35.761  23.970   5.082  0.00  0.00    +0.148 C 
ATOM      6  C   UNL     1     -34.950  24.898   5.737  0.00  0.00    +0.074 C 
ENDROOT
BRANCH   5   7
ATOM      7  O   UNL     1     -36.072  22.802   5.713  0.00  0.00    -0.471 OA
ATOM      8  C   UNL     1     -35.000  21.896   5.961  0.00  0.00    +0.252 C 
ENDBRANCH   5   7
BRANCH   2   9
ATOM      9  O   UNL     1     -36.383  25.707   1.920  0.00  0.00    -0.505 OA
ATOM     10  H   UNL     1     -35.787  25.916   1.229  0.00  0.00    +0.292 HD
ENDBRANCH   2   9
BRANCH   4  11
ATOM     11  O   UNL     1     -33.825  26.986   5.775  0.00  0.00    -0.505 OA
ATOM     12  H   UNL     1     -32.931  27.100   5.516  0.00  0.00    +0.292 HD
ENDBRANCH   4  11
BRANCH   3  14
ATOM     13  O   UNL     1     -38.322  23.366   3.166  0.00  0.00    -0.286 OA
ATOM     14  C   UNL     1     -37.088  23.271   3.120  0.00  0.00    +0.202 C 
BRANCH  14  15
ATOM     15  C   UNL     1     -36.430  22.137   2.390  0.00  0.00    +0.042 C 
ATOM     16  C   UNL     1     -35.135  22.209   2.047  0.00  0.00    +0.003 C 
BRANCH  16  17
ATOM     17  C   UNL     1     -34.405  21.157   1.318  0.00  0.00    +0.000 C 
ATOM     18  C   UNL     1     -33.621  21.490   0.213  0.00  0.00    +0.003 C 
ATOM     19  C   UNL     1     -34.498  19.828   1.731  0.00  0.00    +0.003 C 
ATOM     20  C   UNL     1     -32.931  20.495  -0.479  0.00  0.00    +0.037 C 
ATOM     21  C   UNL     1     -33.808  18.832   1.040  0.00  0.00    +0.037 C 
ATOM     22  C   UNL     1     -33.025  19.165  -0.065  0.00  0.00    +0.134 C 
BRANCH  22  23
ATOM     23  O   UNL     1     -32.351  18.195  -0.740  0.00  0.00    -0.506 OA
ATOM     24  H   UNL     1     -32.417  17.301  -0.465  0.00  0.00    +0.292 HD
ENDBRANCH  22  23
ENDBRANCH  16  17
ENDBRANCH  14  15
ENDBRANCH   3  14
BRANCH   1  26
ATOM     25  C   UNL     1     -33.620  27.857   2.473  0.00  0.00    +0.000 C 
ATOM     26  C   UNL     1     -34.747  27.643   3.170  0.00  0.00    +0.004 C 
BRANCH  25  27
ATOM     27  C   UNL     1     -32.503  26.865   2.223  0.00  0.00    +0.107 C 
ATOM     28  C   UNL     1     -32.930  25.541   1.580  0.00  0.00    +0.034 C 
ATOM     29  C   UNL     1     -31.416  27.530   1.372  0.00  0.00    +0.034 C 
BRANCH  27  30
ATOM     30  O   UNL     1     -31.937  26.560   3.504  0.00  0.00    -0.383 OA
ATOM     31  H   UNL     1     -31.128  27.079   3.631  0.00  0.00    +0.211 HD
ENDBRANCH  27  30
ENDBRANCH  25  27
ENDBRANCH   1  26
TORSDOF 10
ENDMDL
MODEL 8
REMARK VINA RESULT:      -6.6      2.988      7.179
REMARK  Name = 53262780
REMARK  10 active torsions:
REMARK  status: ('A' for Active; 'I' for Inactive)
REMARK    1  A    between atoms: C_1  and  C_26
REMARK    2  A    between atoms: C_2  and  O_9
REMARK    3  A    between atoms: C_3  and  C_14
REMARK    4  A    between atoms: C_4  and  O_11
REMARK    5  A    between atoms: C_5  and  O_7
REMARK    6  A    between atoms: C_14  and  C_15
REMARK    7  A    between atoms: C_16  and  C_17
REMARK    8  A    between atoms: C_22  and  O_23
REMARK    9  A    between atoms: C_25  and  C_27
REMARK   10  A    between atoms: C_27  and  O_30
REMARK                            x       y       z     vdW  Elec       q    Type
REMARK                         _______ _______ _______ _____ _____    ______ ____
ROOT
ATOM      1  C   UNL     1     -36.568  20.953   1.925  0.00  0.00    +0.067 C 
ATOM      2  C   UNL     1     -35.931  21.359   3.097  0.00  0.00    +0.142 C 
ATOM      3  C   UNL     1     -36.340  22.526   3.744  0.00  0.00    +0.107 C 
ATOM      4  C   UNL     1     -37.612  21.713   1.398  0.00  0.00    +0.140 C 
ATOM      5  C   UNL     1     -37.384  23.286   3.218  0.00  0.00    +0.148 C 
ATOM      6  C   UNL     1     -38.021  22.879   2.045  0.00  0.00    +0.074 C 
ENDROOT
BRANCH   5   7
ATOM      7  O   UNL     1     -37.799  24.429   3.834  0.00  0.00    -0.471 OA
ATOM      8  C   UNL     1     -37.615  25.650   3.121  0.00  0.00    +0.252 C 
ENDBRANCH   5   7
BRANCH   2   9
ATOM      9  O   UNL     1     -34.908  20.619   3.619  0.00  0.00    -0.505 OA
ATOM     10  H   UNL     1     -34.353  20.987   4.277  0.00  0.00    +0.292 HD
ENDBRANCH   2   9
BRANCH   4  11
ATOM     11  O   UNL     1     -38.253  21.341   0.253  0.00  0.00    -0.505 OA
ATOM     12  H   UNL     1     -38.969  21.853  -0.070  0.00  0.00    +0.292 HD
ENDBRANCH   4  11
BRANCH   3  14
ATOM     13  O   UNL     1     -35.992  22.464   6.064  0.00  0.00    -0.286 OA
ATOM     14  C   UNL     1     -35.676  22.954   4.971  0.00  0.00    +0.202 C 
BRANCH  14  15
ATOM     15  C   UNL     1     -34.627  24.023   4.882  0.00  0.00    +0.042 C 
ATOM     16  C   UNL     1     -34.763  25.168   5.568  0.00  0.00    +0.003 C 
BRANCH  16  17
ATOM     17  C   UNL     1     -33.798  26.281   5.534  0.00  0.00    +0.000 C 
ATOM     18  C   UNL     1     -33.186  26.710   6.712  0.00  0.00    +0.003 C 
ATOM     19  C   UNL     1     -33.499  26.908   4.325  0.00  0.00    +0.003 C 
ATOM     20  C   UNL     1     -32.275  27.764   6.681  0.00  0.00    +0.037 C 
ATOM     21  C   UNL     1     -32.587  27.963   4.293  0.00  0.00    +0.037 C 
ATOM     22  C   UNL     1     -31.975  28.392   5.471  0.00  0.00    +0.134 C 
BRANCH  22  23
ATOM     23  O   UNL     1     -31.085  29.421   5.441  0.00  0.00    -0.506 OA
ATOM     24  H   UNL     1     -30.492  29.549   6.155  0.00  0.00    +0.292 HD
ENDBRANCH  22  23
ENDBRANCH  16  17
ENDBRANCH  14  15
ENDBRANCH   3  14
BRANCH   1  26
ATOM     25  C   UNL     1     -35.302  19.681   0.190  0.00  0.00    +0.000 C 
ATOM     26  C   UNL     1     -36.139  19.721   1.239  0.00  0.00    +0.004 C 
BRANCH  25  27
ATOM     27  C   UNL     1     -34.639  20.860  -0.490  0.00  0.00    +0.107 C 
ATOM     28  C   UNL     1     -33.926  21.844   0.445  0.00  0.00    +0.034 C 
ATOM     29  C   UNL     1     -33.659  20.348  -1.551  0.00  0.00    +0.034 C 
BRANCH  27  30
ATOM     30  O   UNL     1     -35.680  21.580  -1.160  0.00  0.00    -0.383 OA
ATOM     31  H   UNL     1     -36.383  20.964  -1.420  0.00  0.00    +0.211 HD
ENDBRANCH  27  30
ENDBRANCH  25  27
ENDBRANCH   1  26
TORSDOF 10
ENDMDL
MODEL 9
REMARK VINA RESULT:      -6.3      2.188      3.888
REMARK  Name = 53262780
REMARK  10 active torsions:
REMARK  status: ('A' for Active; 'I' for Inactive)
REMARK    1  A    between atoms: C_1  and  C_26
REMARK    2  A    between atoms: C_2  and  O_9
REMARK    3  A    between atoms: C_3  and  C_14
REMARK    4  A    between atoms: C_4  and  O_11
REMARK    5  A    between atoms: C_5  and  O_7
REMARK    6  A    between atoms: C_14  and  C_15
REMARK    7  A    between atoms: C_16  and  C_17
REMARK    8  A    between atoms: C_22  and  O_23
REMARK    9  A    between atoms: C_25  and  C_27
REMARK   10  A    between atoms: C_27  and  O_30
REMARK                            x       y       z     vdW  Elec       q    Type
REMARK                         _______ _______ _______ _____ _____    ______ ____
ROOT
ATOM      1  C   UNL     1     -36.364  24.759   4.542  0.00  0.00    +0.067 C 
ATOM      2  C   UNL     1     -35.712  23.531   4.435  0.00  0.00    +0.142 C 
ATOM      3  C   UNL     1     -36.188  22.564   3.549  0.00  0.00    +0.107 C 
ATOM      4  C   UNL     1     -37.491  25.022   3.763  0.00  0.00    +0.140 C 
ATOM      5  C   UNL     1     -37.314  22.826   2.770  0.00  0.00    +0.148 C 
ATOM      6  C   UNL     1     -37.966  24.055   2.877  0.00  0.00    +0.074 C 
ENDROOT
BRANCH   5   7
ATOM      7  O   UNL     1     -37.796  21.896   1.898  0.00  0.00    -0.471 OA
ATOM      8  C   UNL     1     -39.189  21.601   1.971  0.00  0.00    +0.252 C 
ENDBRANCH   5   7
BRANCH   2   9
ATOM      9  O   UNL     1     -34.608  23.267   5.195  0.00  0.00    -0.505 OA
ATOM     10  H   UNL     1     -34.196  23.957   5.677  0.00  0.00    +0.292 HD
ENDBRANCH   2   9
BRANCH   4  11
ATOM     11  O   UNL     1     -38.149  26.214   3.845  0.00  0.00    -0.505 OA
ATOM     12  H   UNL     1     -38.546  26.583   3.081  0.00  0.00    +0.292 HD
ENDBRANCH   4  11
BRANCH   3  14
ATOM     13  O   UNL     1     -35.306  20.579   4.437  0.00  0.00    -0.286 OA
ATOM     14  C   UNL     1     -35.509  21.278   3.435  0.00  0.00    +0.202 C 
BRANCH  14  15
ATOM     15  C   UNL     1     -35.034  20.837   2.081  0.00  0.00    +0.042 C 
ATOM     16  C   UNL     1     -34.190  19.801   1.961  0.00  0.00    +0.003 C 
BRANCH  16  17
ATOM     17  C   UNL     1     -33.656  19.303   0.680  0.00  0.00    +0.000 C 
ATOM     18  C   UNL     1     -32.341  19.590   0.314  0.00  0.00    +0.003 C 
ATOM     19  C   UNL     1     -34.467  18.547  -0.166  0.00  0.00    +0.003 C 
ATOM     20  C   UNL     1     -31.836  19.120  -0.898  0.00  0.00    +0.037 C 
ATOM     21  C   UNL     1     -33.962  18.078  -1.379  0.00  0.00    +0.037 C 
ATOM     22  C   UNL     1     -32.647  18.364  -1.745  0.00  0.00    +0.134 C 
BRANCH  22  23
ATOM     23  O   UNL     1     -32.154  17.906  -2.928  0.00  0.00    -0.506 OA
ATOM     24  H   UNL     1     -32.479  17.106  -3.292  0.00  0.00    +0.292 HD
ENDBRANCH  22  23
ENDBRANCH  16  17
ENDBRANCH  14  15
ENDBRANCH   3  14
BRANCH   1  26
ATOM     25  C   UNL     1     -34.814  26.586   5.242  0.00  0.00    +0.000 C 
ATOM     26  C   UNL     1     -35.864  25.783   5.477  0.00  0.00    +0.004 C 
BRANCH  25  27
ATOM     27  C   UNL     1     -33.946  26.609   4.001  0.00  0.00    +0.107 C 
ATOM     28  C   UNL     1     -34.702  26.678   2.670  0.00  0.00    +0.034 C 
ATOM     29  C   UNL     1     -32.955  27.774   4.098  0.00  0.00    +0.034 C 
BRANCH  27  30
ATOM     30  O   UNL     1     -33.196  25.389   4.008  0.00  0.00    -0.383 OA
ATOM     31  H   UNL     1     -32.432  25.476   3.417  0.00  0.00    +0.211 HD
ENDBRANCH  27  30
ENDBRANCH  25  27
ENDBRANCH   1  26
TORSDOF 10
ENDMDL
