MODEL 1
REMARK VINA RESULT:      -6.7      0.000      0.000
REMARK  Name = 50194
REMARK  6 active torsions:
REMARK  status: ('A' for Active; 'I' for Inactive)
REMARK    1  A    between atoms: N_2  and  CA_9
REMARK    2  A    between atoms: C_3  and  C_19
REMARK    3  A    between atoms: CA_11  and  C_15
REMARK    4  A    between atoms: C_15  and  O_16
REMARK    5  A    between atoms: N_18  and  O_28
REMARK    6  A    between atoms: C_19  and  C_23
REMARK                            x       y       z     vdW  Elec       q    Type
REMARK                         _______ _______ _______ _____ _____    ______ ____
ROOT
ATOM      1  O   UNK A   0     -35.892  26.610   5.590  0.00  0.00    -0.268 OA
ATOM      2  N   MET A   1     -34.821  24.651   4.863  0.00  0.00    -0.291 N 
ATOM      3  C   UNK A   0     -34.908  25.982   5.235  0.00  0.00    +0.269 C 
ATOM      4  H   MET A   1     -33.944  24.291   4.600  0.00  0.00    +0.150 HD
ENDROOT
BRANCH   2   9
ATOM      5  SD  MET A   1     -36.376  24.807   2.211  0.00  0.00    -0.114 S 
ATOM      6  O   MET A   1     -34.998  21.394   5.096  0.00  0.00    -0.273 OA
ATOM      7  N   MET A   1     -36.199  22.391   3.333  0.00  0.00    -0.242 N 
ATOM      8  CE  MET A   1     -36.830  23.680   3.557  0.00  0.00    +0.155 C 
ATOM      9  CA  MET A   1     -35.980  23.759   4.845  0.00  0.00    +0.179 C 
ATOM     10  C   MET A   1     -35.616  22.273   4.544  0.00  0.00    +0.251 C 
ATOM     11  CA  MET A   1     -36.309  21.705   2.174  0.00  0.00    +0.127 C 
ATOM     12  CG  MET A   1     -37.104  23.751   0.905  0.00  0.00    +0.087 C 
ATOM     13  CB  MET A   1     -36.752  22.289   1.046  0.00  0.00    +0.007 C 
BRANCH  11  15
ATOM     14  OXT MET A   1     -34.785  19.939   1.715  0.00  0.00    -0.244 OA
ATOM     15  C   MET A   1     -35.878  20.307   2.107  0.00  0.00    +0.352 C 
BRANCH  15  16
ATOM     16  O   MET A   1     -36.873  19.506   2.541  0.00  0.00    -0.476 OA
ATOM     17  H   MET A   1     -37.761  19.803   2.513  0.00  0.00    +0.295 HD
ENDBRANCH  15  16
ENDBRANCH  11  15
ENDBRANCH   2   9
BRANCH   3  19
ATOM     18  N   UNK A   0     -32.969  27.030   6.267  0.00  0.00    -0.076 NA
ATOM     19  C   UNK A   0     -33.584  26.698   5.173  0.00  0.00    +0.198 C 
BRANCH  19  23
ATOM     20  S   UNK A   0     -32.258  28.260   1.815  0.00  0.00    -0.060 S 
ATOM     21  N   UNK A   0     -32.174  26.120   3.262  0.00  0.00    -0.383 NA
ATOM     22  N   UNK A   0     -30.924  26.028   1.257  0.00  0.00    -0.328 N 
ATOM     23  C   UNK A   0     -32.963  27.042   3.889  0.00  0.00    +0.148 C 
ATOM     24  C   UNK A   0     -33.139  28.251   3.286  0.00  0.00    +0.127 C 
ATOM     25  C   UNK A   0     -31.740  26.657   2.144  0.00  0.00    +0.204 C 
ATOM     26  H   UNK A   0     -30.637  26.491   0.438  0.00  0.00    +0.145 HD
ATOM     27  H   UNK A   0     -30.620  25.108   1.436  0.00  0.00    +0.145 HD
ENDBRANCH  19  23
BRANCH  18  28
ATOM     28  O   UNK A   0     -31.761  27.691   6.006  0.00  0.00    -0.373 OA
ATOM     29  C   UNK A   0     -31.793  28.946   6.667  0.00  0.00    +0.288 C 
ENDBRANCH  18  28
ENDBRANCH   3  19
TORSDOF 6
ENDMDL
MODEL 2
REMARK VINA RESULT:      -6.2      1.135      1.306
REMARK  Name = 50194
REMARK  6 active torsions:
REMARK  status: ('A' for Active; 'I' for Inactive)
REMARK    1  A    between atoms: N_2  and  CA_9
REMARK    2  A    between atoms: C_3  and  C_19
REMARK    3  A    between atoms: CA_11  and  C_15
REMARK    4  A    between atoms: C_15  and  O_16
REMARK    5  A    between atoms: N_18  and  O_28
REMARK    6  A    between atoms: C_19  and  C_23
REMARK                            x       y       z     vdW  Elec       q    Type
REMARK                         _______ _______ _______ _____ _____    ______ ____
ROOT
ATOM      1  O   UNK A   0     -36.028  26.735   5.285  0.00  0.00    -0.268 OA
ATOM      2  N   MET A   1     -34.889  24.729   4.848  0.00  0.00    -0.291 N 
ATOM      3  C   UNK A   0     -35.013  26.088   5.081  0.00  0.00    +0.269 C 
ATOM      4  H   MET A   1     -33.990  24.356   4.701  0.00  0.00    +0.150 HD
ENDROOT
BRANCH   2   9
ATOM      5  SD  MET A   1     -36.337  24.790   2.133  0.00  0.00    -0.114 S 
ATOM      6  O   MET A   1     -35.046  21.479   5.172  0.00  0.00    -0.273 OA
ATOM      7  N   MET A   1     -36.183  22.411   3.333  0.00  0.00    -0.242 N 
ATOM      8  CE  MET A   1     -36.835  23.700   3.493  0.00  0.00    +0.155 C 
ATOM      9  CA  MET A   1     -36.038  23.826   4.811  0.00  0.00    +0.179 C 
ATOM     10  C   MET A   1     -35.649  22.335   4.570  0.00  0.00    +0.251 C 
ATOM     11  CA  MET A   1     -36.241  21.689   2.193  0.00  0.00    +0.127 C 
ATOM     12  CG  MET A   1     -37.003  23.688   0.831  0.00  0.00    +0.087 C 
ATOM     13  CB  MET A   1     -36.644  22.234   1.030  0.00  0.00    +0.007 C 
BRANCH  11  15
ATOM     14  OXT MET A   1     -34.656  19.934   1.952  0.00  0.00    -0.244 OA
ATOM     15  C   MET A   1     -35.796  20.294   2.185  0.00  0.00    +0.352 C 
BRANCH  15  16
ATOM     16  O   MET A   1     -36.836  19.485   2.473  0.00  0.00    -0.476 OA
ATOM     17  H   MET A   1     -36.747  18.556   2.387  0.00  0.00    +0.295 HD
ENDBRANCH  15  16
ENDBRANCH  11  15
ENDBRANCH   2   9
BRANCH   3  19
ATOM     18  N   UNK A   0     -32.985  26.896   6.157  0.00  0.00    -0.076 NA
ATOM     19  C   UNK A   0     -33.692  26.811   5.070  0.00  0.00    +0.198 C 
BRANCH  19  23
ATOM     20  S   UNK A   0     -32.026  27.831   1.656  0.00  0.00    -0.060 S 
ATOM     21  N   UNK A   0     -33.443  28.755   3.610  0.00  0.00    -0.383 NA
ATOM     22  N   UNK A   0     -32.937  30.317   1.909  0.00  0.00    -0.328 N 
ATOM     23  C   UNK A   0     -33.176  27.437   3.848  0.00  0.00    +0.148 C 
ATOM     24  C   UNK A   0     -32.434  26.757   2.929  0.00  0.00    +0.127 C 
ATOM     25  C   UNK A   0     -32.880  29.079   2.468  0.00  0.00    +0.204 C 
ATOM     26  H   UNK A   0     -32.491  30.490   1.048  0.00  0.00    +0.145 HD
ATOM     27  H   UNK A   0     -33.425  31.041   2.364  0.00  0.00    +0.145 HD
ENDBRANCH  19  23
BRANCH  18  28
ATOM     28  O   UNK A   0     -31.796  27.610   5.949  0.00  0.00    -0.373 OA
ATOM     29  C   UNK A   0     -31.807  28.743   6.802  0.00  0.00    +0.288 C 
ENDBRANCH  18  28
ENDBRANCH   3  19
TORSDOF 6
ENDMDL
MODEL 3
REMARK VINA RESULT:      -6.0      1.691      2.772
REMARK  Name = 50194
REMARK  6 active torsions:
REMARK  status: ('A' for Active; 'I' for Inactive)
REMARK    1  A    between atoms: N_2  and  CA_9
REMARK    2  A    between atoms: C_3  and  C_19
REMARK    3  A    between atoms: CA_11  and  C_15
REMARK    4  A    between atoms: C_15  and  O_16
REMARK    5  A    between atoms: N_18  and  O_28
REMARK    6  A    between atoms: C_19  and  C_23
REMARK                            x       y       z     vdW  Elec       q    Type
REMARK                         _______ _______ _______ _____ _____    ______ ____
ROOT
ATOM      1  O   UNK A   0     -35.144  27.501   3.897  0.00  0.00    -0.268 OA
ATOM      2  N   MET A   1     -34.345  25.295   3.829  0.00  0.00    -0.291 N 
ATOM      3  C   UNK A   0     -34.246  26.675   3.867  0.00  0.00    +0.269 C 
ATOM      4  H   MET A   1     -33.517  24.763   3.809  0.00  0.00    +0.150 HD
ENDROOT
BRANCH   2   9
ATOM      5  SD  MET A   1     -35.308  24.674   0.971  0.00  0.00    -0.114 S 
ATOM      6  O   MET A   1     -35.186  22.378   5.043  0.00  0.00    -0.273 OA
ATOM      7  N   MET A   1     -35.815  22.813   2.816  0.00  0.00    -0.242 N 
ATOM      8  CE  MET A   1     -36.217  24.161   2.453  0.00  0.00    +0.155 C 
ATOM      9  CA  MET A   1     -35.629  24.595   3.814  0.00  0.00    +0.179 C 
ATOM     10  C   MET A   1     -35.507  23.068   4.105  0.00  0.00    +0.251 C 
ATOM     11  CA  MET A   1     -35.833  21.777   1.949  0.00  0.00    +0.127 C 
ATOM     12  CG  MET A   1     -35.964  23.314  -0.064  0.00  0.00    +0.087 C 
ATOM     13  CB  MET A   1     -35.933  21.968   0.621  0.00  0.00    +0.007 C 
BRANCH  11  15
ATOM     14  OXT MET A   1     -34.612  19.905   2.759  0.00  0.00    -0.244 OA
ATOM     15  C   MET A   1     -35.675  20.407   2.442  0.00  0.00    +0.352 C 
BRANCH  15  16
ATOM     16  O   MET A   1     -36.879  19.800   2.484  0.00  0.00    -0.476 OA
ATOM     17  H   MET A   1     -36.937  18.867   2.414  0.00  0.00    +0.295 HD
ENDBRANCH  15  16
ENDBRANCH  11  15
ENDBRANCH   2   9
BRANCH   3  19
ATOM     18  N   UNK A   0     -31.927  26.575   3.138  0.00  0.00    -0.076 NA
ATOM     19  C   UNK A   0     -32.821  27.164   3.873  0.00  0.00    +0.198 C 
BRANCH  19  23
ATOM     20  S   UNK A   0     -31.746  30.591   5.476  0.00  0.00    -0.060 S 
ATOM     21  N   UNK A   0     -32.201  28.110   6.039  0.00  0.00    -0.383 NA
ATOM     22  N   UNK A   0     -31.554  29.455   7.873  0.00  0.00    -0.328 N 
ATOM     23  C   UNK A   0     -32.409  28.301   4.703  0.00  0.00    +0.148 C 
ATOM     24  C   UNK A   0     -32.221  29.553   4.197  0.00  0.00    +0.127 C 
ATOM     25  C   UNK A   0     -31.844  29.263   6.559  0.00  0.00    +0.204 C 
ATOM     26  H   UNK A   0     -31.292  30.348   8.194  0.00  0.00    +0.145 HD
ATOM     27  H   UNK A   0     -31.607  28.700   8.503  0.00  0.00    +0.145 HD
ENDBRANCH  19  23
BRANCH  18  28
ATOM     28  O   UNK A   0     -30.664  27.167   3.282  0.00  0.00    -0.373 OA
ATOM     29  C   UNK A   0     -29.992  27.083   2.035  0.00  0.00    +0.288 C 
ENDBRANCH  18  28
ENDBRANCH   3  19
TORSDOF 6
ENDMDL
MODEL 4
REMARK VINA RESULT:      -5.9      3.091      7.005
REMARK  Name = 50194
REMARK  6 active torsions:
REMARK  status: ('A' for Active; 'I' for Inactive)
REMARK    1  A    between atoms: N_2  and  CA_9
REMARK    2  A    between atoms: C_3  and  C_19
REMARK    3  A    between atoms: CA_11  and  C_15
REMARK    4  A    between atoms: C_15  and  O_16
REMARK    5  A    between atoms: N_18  and  O_28
REMARK    6  A    between atoms: C_19  and  C_23
REMARK                            x       y       z     vdW  Elec       q    Type
REMARK                         _______ _______ _______ _____ _____    ______ ____
ROOT
ATOM      1  O   UNK A   0     -33.175  25.470   4.622  0.00  0.00    -0.268 OA
ATOM      2  N   MET A   1     -34.692  26.007   2.913  0.00  0.00    -0.291 N 
ATOM      3  C   UNK A   0     -34.239  25.340   4.038  0.00  0.00    +0.269 C 
ATOM      4  H   MET A   1     -35.585  25.786   2.561  0.00  0.00    +0.150 HD
ENDROOT
BRANCH   2   9
ATOM      5  SD  MET A   1     -36.268  27.396   0.663  0.00  0.00    -0.114 S 
ATOM      6  O   MET A   1     -33.336  28.760   4.040  0.00  0.00    -0.273 OA
ATOM      7  N   MET A   1     -34.607  28.944   2.067  0.00  0.00    -0.242 N 
ATOM      8  CE  MET A   1     -34.571  27.854   1.107  0.00  0.00    +0.155 C 
ATOM      9  CA  MET A   1     -33.899  27.025   2.225  0.00  0.00    +0.179 C 
ATOM     10  C   MET A   1     -33.816  28.375   3.001  0.00  0.00    +0.251 C 
ATOM     11  CA  MET A   1     -35.296  30.087   1.862  0.00  0.00    +0.127 C 
ATOM     12  CG  MET A   1     -36.684  29.054   0.008  0.00  0.00    +0.087 C 
ATOM     13  CB  MET A   1     -36.235  30.186   0.903  0.00  0.00    +0.007 C 
BRANCH  11  15
ATOM     14  OXT MET A   1     -34.547  32.282   2.387  0.00  0.00    -0.244 OA
ATOM     15  C   MET A   1     -35.076  31.242   2.736  0.00  0.00    +0.352 C 
BRANCH  15  16
ATOM     16  O   MET A   1     -35.546  30.970   3.971  0.00  0.00    -0.476 OA
ATOM     17  H   MET A   1     -36.180  31.535   4.367  0.00  0.00    +0.295 HD
ENDBRANCH  15  16
ENDBRANCH  11  15
ENDBRANCH   2   9
BRANCH   3  19
ATOM     18  N   UNK A   0     -34.948  23.635   5.623  0.00  0.00    -0.076 NA
ATOM     19  C   UNK A   0     -35.229  24.335   4.567  0.00  0.00    +0.198 C 
BRANCH  19  23
ATOM     20  S   UNK A   0     -38.354  23.206   2.461  0.00  0.00    -0.060 S 
ATOM     21  N   UNK A   0     -37.569  24.943   4.206  0.00  0.00    -0.383 NA
ATOM     22  N   UNK A   0     -39.827  25.142   3.535  0.00  0.00    -0.328 N 
ATOM     23  C   UNK A   0     -36.521  24.120   3.906  0.00  0.00    +0.148 C 
ATOM     24  C   UNK A   0     -36.727  23.125   2.998  0.00  0.00    +0.127 C 
ATOM     25  C   UNK A   0     -38.603  24.552   3.496  0.00  0.00    +0.204 C 
ATOM     26  H   UNK A   0     -40.559  24.796   2.974  0.00  0.00    +0.145 HD
ATOM     27  H   UNK A   0     -39.982  25.915   4.125  0.00  0.00    +0.145 HD
ENDBRANCH  19  23
BRANCH  18  28
ATOM     28  O   UNK A   0     -35.987  22.754   5.955  0.00  0.00    -0.373 OA
ATOM     29  C   UNK A   0     -35.426  21.466   6.157  0.00  0.00    +0.288 C 
ENDBRANCH  18  28
ENDBRANCH   3  19
TORSDOF 6
ENDMDL
MODEL 5
REMARK VINA RESULT:      -5.9      2.490      7.368
REMARK  Name = 50194
REMARK  6 active torsions:
REMARK  status: ('A' for Active; 'I' for Inactive)
REMARK    1  A    between atoms: N_2  and  CA_9
REMARK    2  A    between atoms: C_3  and  C_19
REMARK    3  A    between atoms: CA_11  and  C_15
REMARK    4  A    between atoms: C_15  and  O_16
REMARK    5  A    between atoms: N_18  and  O_28
REMARK    6  A    between atoms: C_19  and  C_23
REMARK                            x       y       z     vdW  Elec       q    Type
REMARK                         _______ _______ _______ _____ _____    ______ ____
ROOT
ATOM      1  O   UNK A   0     -34.047  24.525   1.847  0.00  0.00    -0.268 OA
ATOM      2  N   MET A   1     -33.807  26.093   3.577  0.00  0.00    -0.291 N 
ATOM      3  C   UNK A   0     -34.301  24.957   2.959  0.00  0.00    +0.269 C 
ATOM      4  H   MET A   1     -34.114  26.307   4.488  0.00  0.00    +0.150 HD
ENDROOT
BRANCH   2   9
ATOM      5  SD  MET A   1     -35.148  28.628   2.457  0.00  0.00    -0.114 S 
ATOM      6  O   MET A   1     -31.216  27.669   4.800  0.00  0.00    -0.273 OA
ATOM      7  N   MET A   1     -32.720  28.951   3.520  0.00  0.00    -0.242 N 
ATOM      8  CE  MET A   1     -33.361  28.336   2.370  0.00  0.00    +0.155 C 
ATOM      9  CA  MET A   1     -32.849  26.990   2.931  0.00  0.00    +0.179 C 
ATOM     10  C   MET A   1     -32.039  27.863   3.938  0.00  0.00    +0.251 C 
ATOM     11  CA  MET A   1     -32.904  30.243   3.866  0.00  0.00    +0.127 C 
ATOM     12  CG  MET A   1     -34.984  30.451   2.430  0.00  0.00    +0.087 C 
ATOM     13  CB  MET A   1     -33.914  30.974   3.360  0.00  0.00    +0.007 C 
BRANCH  11  15
ATOM     14  OXT MET A   1     -31.189  31.709   4.615  0.00  0.00    -0.244 OA
ATOM     15  C   MET A   1     -32.032  30.866   4.864  0.00  0.00    +0.352 C 
BRANCH  15  16
ATOM     16  O   MET A   1     -32.308  30.361   6.084  0.00  0.00    -0.476 OA
ATOM     17  H   MET A   1     -33.024  29.767   6.195  0.00  0.00    +0.295 HD
ENDBRANCH  15  16
ENDBRANCH  11  15
ENDBRANCH   2   9
BRANCH   3  19
ATOM     18  N   UNK A   0     -34.967  23.896   5.046  0.00  0.00    -0.076 NA
ATOM     19  C   UNK A   0     -35.275  24.195   3.820  0.00  0.00    +0.198 C 
BRANCH  19  23
ATOM     20  S   UNK A   0     -38.959  23.753   2.516  0.00  0.00    -0.060 S 
ATOM     21  N   UNK A   0     -36.766  22.460   2.962  0.00  0.00    -0.383 NA
ATOM     22  N   UNK A   0     -38.543  21.159   2.101  0.00  0.00    -0.328 N 
ATOM     23  C   UNK A   0     -36.579  23.769   3.301  0.00  0.00    +0.148 C 
ATOM     24  C   UNK A   0     -37.625  24.629   3.140  0.00  0.00    +0.127 C 
ATOM     25  C   UNK A   0     -38.000  22.329   2.528  0.00  0.00    +0.204 C 
ATOM     26  H   UNK A   0     -39.476  21.134   1.789  0.00  0.00    +0.145 HD
ATOM     27  H   UNK A   0     -38.002  20.336   2.103  0.00  0.00    +0.145 HD
ENDBRANCH  19  23
BRANCH  18  28
ATOM     28  O   UNK A   0     -35.994  23.183   5.681  0.00  0.00    -0.373 OA
ATOM     29  C   UNK A   0     -35.408  22.103   6.389  0.00  0.00    +0.288 C 
ENDBRANCH  18  28
ENDBRANCH   3  19
TORSDOF 6
ENDMDL
MODEL 6
REMARK VINA RESULT:      -5.7      2.259      2.716
REMARK  Name = 50194
REMARK  6 active torsions:
REMARK  status: ('A' for Active; 'I' for Inactive)
REMARK    1  A    between atoms: N_2  and  CA_9
REMARK    2  A    between atoms: C_3  and  C_19
REMARK    3  A    between atoms: CA_11  and  C_15
REMARK    4  A    between atoms: C_15  and  O_16
REMARK    5  A    between atoms: N_18  and  O_28
REMARK    6  A    between atoms: C_19  and  C_23
REMARK                            x       y       z     vdW  Elec       q    Type
REMARK                         _______ _______ _______ _____ _____    ______ ____
ROOT
ATOM      1  O   UNK A   0     -33.255  26.259   6.351  0.00  0.00    -0.268 OA
ATOM      2  N   MET A   1     -34.958  26.507   4.754  0.00  0.00    -0.291 N 
ATOM      3  C   UNK A   0     -33.761  26.804   5.384  0.00  0.00    +0.269 C 
ATOM      4  H   MET A   1     -35.228  27.046   3.976  0.00  0.00    +0.150 HD
ENDROOT
BRANCH   2   9
ATOM      5  SD  MET A   1     -37.206  25.921   2.735  0.00  0.00    -0.114 S 
ATOM      6  O   MET A   1     -34.309  23.360   5.364  0.00  0.00    -0.273 OA
ATOM      7  N   MET A   1     -36.163  23.805   3.983  0.00  0.00    -0.242 N 
ATOM      8  CE  MET A   1     -36.980  24.973   4.263  0.00  0.00    +0.155 C 
ATOM      9  CA  MET A   1     -35.836  25.425   5.198  0.00  0.00    +0.179 C 
ATOM     10  C   MET A   1     -35.244  24.003   4.950  0.00  0.00    +0.251 C 
ATOM     11  CA  MET A   1     -36.444  22.926   2.996  0.00  0.00    +0.127 C 
ATOM     12  CG  MET A   1     -38.019  24.544   1.844  0.00  0.00    +0.087 C 
ATOM     13  CB  MET A   1     -37.316  23.218   2.015  0.00  0.00    +0.007 C 
BRANCH  11  15
ATOM     14  OXT MET A   1     -35.152  21.219   1.962  0.00  0.00    -0.244 OA
ATOM     15  C   MET A   1     -35.743  21.641   2.939  0.00  0.00    +0.352 C 
BRANCH  15  16
ATOM     16  O   MET A   1     -35.857  21.010   4.127  0.00  0.00    -0.476 OA
ATOM     17  H   MET A   1     -35.959  20.079   4.155  0.00  0.00    +0.295 HD
ENDBRANCH  15  16
ENDBRANCH  11  15
ENDBRANCH   2   9
BRANCH   3  19
ATOM     18  N   UNK A   0     -33.576  28.614   3.768  0.00  0.00    -0.076 NA
ATOM     19  C   UNK A   0     -33.033  27.960   4.749  0.00  0.00    +0.198 C 
BRANCH  19  23
ATOM     20  S   UNK A   0     -29.834  29.481   6.459  0.00  0.00    -0.060 S 
ATOM     21  N   UNK A   0     -30.596  27.829   4.623  0.00  0.00    -0.383 NA
ATOM     22  N   UNK A   0     -28.254  28.040   4.877  0.00  0.00    -0.328 N 
ATOM     23  C   UNK A   0     -31.703  28.369   5.213  0.00  0.00    +0.148 C 
ATOM     24  C   UNK A   0     -31.518  29.273   6.216  0.00  0.00    +0.127 C 
ATOM     25  C   UNK A   0     -29.537  28.347   5.205  0.00  0.00    +0.204 C 
ATOM     26  H   UNK A   0     -27.508  28.468   5.355  0.00  0.00    +0.145 HD
ATOM     27  H   UNK A   0     -28.072  27.391   4.160  0.00  0.00    +0.145 HD
ENDBRANCH  19  23
BRANCH  18  28
ATOM     28  O   UNK A   0     -32.746  29.646   3.308  0.00  0.00    -0.373 OA
ATOM     29  C   UNK A   0     -33.536  30.816   3.163  0.00  0.00    +0.288 C 
ENDBRANCH  18  28
ENDBRANCH   3  19
TORSDOF 6
ENDMDL
MODEL 7
REMARK VINA RESULT:      -5.7      3.591      7.575
REMARK  Name = 50194
REMARK  6 active torsions:
REMARK  status: ('A' for Active; 'I' for Inactive)
REMARK    1  A    between atoms: N_2  and  CA_9
REMARK    2  A    between atoms: C_3  and  C_19
REMARK    3  A    between atoms: CA_11  and  C_15
REMARK    4  A    between atoms: C_15  and  O_16
REMARK    5  A    between atoms: N_18  and  O_28
REMARK    6  A    between atoms: C_19  and  C_23
REMARK                            x       y       z     vdW  Elec       q    Type
REMARK                         _______ _______ _______ _____ _____    ______ ____
ROOT
ATOM      1  O   UNK A   0     -40.505  23.712   2.170  0.00  0.00    -0.268 OA
ATOM      2  N   MET A   1     -38.233  23.521   2.728  0.00  0.00    -0.291 N 
ATOM      3  C   UNK A   0     -39.415  23.168   2.100  0.00  0.00    +0.269 C 
ATOM      4  H   MET A   1     -37.431  22.974   2.566  0.00  0.00    +0.150 HD
ENDROOT
BRANCH   2   9
ATOM      5  SD  MET A   1     -35.568  23.568   4.267  0.00  0.00    -0.114 S 
ATOM      6  O   MET A   1     -38.231  26.725   2.074  0.00  0.00    -0.273 OA
ATOM      7  N   MET A   1     -36.518  25.937   3.484  0.00  0.00    -0.242 N 
ATOM      8  CE  MET A   1     -36.820  24.869   4.422  0.00  0.00    +0.155 C 
ATOM      9  CA  MET A   1     -38.128  24.673   3.623  0.00  0.00    +0.179 C 
ATOM     10  C   MET A   1     -37.730  25.992   2.893  0.00  0.00    +0.251 C 
ATOM     11  CA  MET A   1     -35.312  26.541   3.415  0.00  0.00    +0.127 C 
ATOM     12  CG  MET A   1     -34.175  24.674   4.701  0.00  0.00    +0.087 C 
ATOM     13  CB  MET A   1     -34.219  26.006   3.990  0.00  0.00    +0.007 C 
BRANCH  11  15
ATOM     14  OXT MET A   1     -35.004  27.822   1.436  0.00  0.00    -0.244 OA
ATOM     15  C   MET A   1     -35.155  27.776   2.644  0.00  0.00    +0.352 C 
BRANCH  15  16
ATOM     16  O   MET A   1     -35.202  28.837   3.475  0.00  0.00    -0.476 OA
ATOM     17  H   MET A   1     -35.513  29.664   3.163  0.00  0.00    +0.295 HD
ENDBRANCH  15  16
ENDBRANCH  11  15
ENDBRANCH   2   9
BRANCH   3  19
ATOM     18  N   UNK A   0     -40.335  21.300   0.840  0.00  0.00    -0.076 NA
ATOM     19  C   UNK A   0     -39.278  21.946   1.230  0.00  0.00    +0.198 C 
BRANCH  19  23
ATOM     20  S   UNK A   0     -35.886  20.988  -0.516  0.00  0.00    -0.060 S 
ATOM     21  N   UNK A   0     -37.237  20.675   1.665  0.00  0.00    -0.383 NA
ATOM     22  N   UNK A   0     -35.133  19.596   1.621  0.00  0.00    -0.328 N 
ATOM     23  C   UNK A   0     -37.962  21.454   0.809  0.00  0.00    +0.148 C 
ATOM     24  C   UNK A   0     -37.423  21.742  -0.409  0.00  0.00    +0.127 C 
ATOM     25  C   UNK A   0     -36.108  20.364   1.068  0.00  0.00    +0.204 C 
ATOM     26  H   UNK A   0     -34.312  19.402   1.115  0.00  0.00    +0.145 HD
ATOM     27  H   UNK A   0     -35.249  19.233   2.530  0.00  0.00    +0.145 HD
ENDBRANCH  19  23
BRANCH  18  28
ATOM     28  O   UNK A   0     -40.005  20.192   0.047  0.00  0.00    -0.373 OA
ATOM     29  C   UNK A   0     -40.766  20.263  -1.149  0.00  0.00    +0.288 C 
ENDBRANCH  18  28
ENDBRANCH   3  19
TORSDOF 6
ENDMDL
MODEL 8
REMARK VINA RESULT:      -5.7      4.064      6.408
REMARK  Name = 50194
REMARK  6 active torsions:
REMARK  status: ('A' for Active; 'I' for Inactive)
REMARK    1  A    between atoms: N_2  and  CA_9
REMARK    2  A    between atoms: C_3  and  C_19
REMARK    3  A    between atoms: CA_11  and  C_15
REMARK    4  A    between atoms: C_15  and  O_16
REMARK    5  A    between atoms: N_18  and  O_28
REMARK    6  A    between atoms: C_19  and  C_23
REMARK                            x       y       z     vdW  Elec       q    Type
REMARK                         _______ _______ _______ _____ _____    ______ ____
ROOT
ATOM      1  O   UNK A   0     -34.583  22.355   0.914  0.00  0.00    -0.268 OA
ATOM      2  N   MET A   1     -35.819  20.382   1.212  0.00  0.00    -0.291 N 
ATOM      3  C   UNK A   0     -35.297  21.614   1.569  0.00  0.00    +0.269 C 
ATOM      4  H   MET A   1     -36.385  19.904   1.860  0.00  0.00    +0.150 HD
ENDROOT
BRANCH   2   9
ATOM      5  SD  MET A   1     -33.078  18.987   1.098  0.00  0.00    -0.114 S 
ATOM      6  O   MET A   1     -37.411  17.991  -0.350  0.00  0.00    -0.273 OA
ATOM      7  N   MET A   1     -35.072  17.775  -0.199  0.00  0.00    -0.242 N 
ATOM      8  CE  MET A   1     -34.251  18.972  -0.283  0.00  0.00    +0.155 C 
ATOM      9  CA  MET A   1     -35.564  19.763  -0.088  0.00  0.00    +0.179 C 
ATOM     10  C   MET A   1     -36.273  18.386  -0.270  0.00  0.00    +0.251 C 
ATOM     11  CA  MET A   1     -34.556  16.531  -0.090  0.00  0.00    +0.127 C 
ATOM     12  CG  MET A   1     -32.284  17.410   0.614  0.00  0.00    +0.087 C 
ATOM     13  CB  MET A   1     -33.270  16.326   0.249  0.00  0.00    +0.007 C 
BRANCH  11  15
ATOM     14  OXT MET A   1     -35.355  14.604  -1.230  0.00  0.00    -0.244 OA
ATOM     15  C   MET A   1     -35.418  15.362  -0.279  0.00  0.00    +0.352 C 
BRANCH  15  16
ATOM     16  O   MET A   1     -36.280  15.264   0.754  0.00  0.00    -0.476 OA
ATOM     17  H   MET A   1     -37.042  14.724   0.679  0.00  0.00    +0.295 HD
ENDBRANCH  15  16
ENDBRANCH  11  15
ENDBRANCH   2   9
BRANCH   3  19
ATOM     18  N   UNK A   0     -35.432  21.283   3.976  0.00  0.00    -0.076 NA
ATOM     19  C   UNK A   0     -35.696  22.043   2.957  0.00  0.00    +0.198 C 
BRANCH  19  23
ATOM     20  S   UNK A   0     -36.895  25.741   3.551  0.00  0.00    -0.060 S 
ATOM     21  N   UNK A   0     -37.750  23.311   3.338  0.00  0.00    -0.383 NA
ATOM     22  N   UNK A   0     -39.424  24.936   3.722  0.00  0.00    -0.328 N 
ATOM     23  C   UNK A   0     -36.392  23.312   3.191  0.00  0.00    +0.148 C 
ATOM     24  C   UNK A   0     -35.739  24.506   3.271  0.00  0.00    +0.127 C 
ATOM     25  C   UNK A   0     -38.134  24.552   3.535  0.00  0.00    +0.204 C 
ATOM     26  H   UNK A   0     -39.640  25.885   3.865  0.00  0.00    +0.145 HD
ATOM     27  H   UNK A   0     -40.143  24.263   3.714  0.00  0.00    +0.145 HD
ENDBRANCH  19  23
BRANCH  18  28
ATOM     28  O   UNK A   0     -35.885  21.847   5.177  0.00  0.00    -0.373 OA
ATOM     29  C   UNK A   0     -34.854  21.713   6.144  0.00  0.00    +0.288 C 
ENDBRANCH  18  28
ENDBRANCH   3  19
TORSDOF 6
ENDMDL
MODEL 9
REMARK VINA RESULT:      -5.6      3.045      7.409
REMARK  Name = 50194
REMARK  6 active torsions:
REMARK  status: ('A' for Active; 'I' for Inactive)
REMARK    1  A    between atoms: N_2  and  CA_9
REMARK    2  A    between atoms: C_3  and  C_19
REMARK    3  A    between atoms: CA_11  and  C_15
REMARK    4  A    between atoms: C_15  and  O_16
REMARK    5  A    between atoms: N_18  and  O_28
REMARK    6  A    between atoms: C_19  and  C_23
REMARK                            x       y       z     vdW  Elec       q    Type
REMARK                         _______ _______ _______ _____ _____    ______ ____
ROOT
ATOM      1  O   UNK A   0     -37.428  20.576   1.591  0.00  0.00    -0.268 OA
ATOM      2  N   MET A   1     -37.299  22.670   2.643  0.00  0.00    -0.291 N 
ATOM      3  C   UNK A   0     -37.880  21.672   1.880  0.00  0.00    +0.269 C 
ATOM      4  H   MET A   1     -37.798  23.506   2.786  0.00  0.00    +0.150 HD
ENDROOT
BRANCH   2   9
ATOM      5  SD  MET A   1     -35.138  24.191   1.064  0.00  0.00    -0.114 S 
ATOM      6  O   MET A   1     -36.192  23.590   5.579  0.00  0.00    -0.273 OA
ATOM      7  N   MET A   1     -34.885  24.207   3.721  0.00  0.00    -0.242 N 
ATOM      8  CE  MET A   1     -34.789  23.291   2.597  0.00  0.00    +0.155 C 
ATOM      9  CA  MET A   1     -35.972  22.534   3.243  0.00  0.00    +0.179 C 
ATOM     10  C   MET A   1     -35.743  23.477   4.464  0.00  0.00    +0.251 C 
ATOM     11  CA  MET A   1     -34.218  25.380   3.778  0.00  0.00    +0.127 C 
ATOM     12  CG  MET A   1     -33.754  25.369   1.284  0.00  0.00    +0.087 C 
ATOM     13  CB  MET A   1     -33.657  25.928   2.685  0.00  0.00    +0.007 C 
BRANCH  11  15
ATOM     14  OXT MET A   1     -33.133  26.279   5.692  0.00  0.00    -0.244 OA
ATOM     15  C   MET A   1     -34.148  26.123   5.038  0.00  0.00    +0.352 C 
BRANCH  15  16
ATOM     16  O   MET A   1     -35.371  26.597   5.353  0.00  0.00    -0.476 OA
ATOM     17  H   MET A   1     -35.568  26.837   6.237  0.00  0.00    +0.295 HD
ENDBRANCH  15  16
ENDBRANCH  11  15
ENDBRANCH   2   9
BRANCH   3  19
ATOM     18  N   UNK A   0     -40.015  21.136   0.843  0.00  0.00    -0.076 NA
ATOM     19  C   UNK A   0     -39.247  22.042   1.368  0.00  0.00    +0.198 C 
BRANCH  19  23
ATOM     20  S   UNK A   0     -40.505  25.731   0.838  0.00  0.00    -0.060 S 
ATOM     21  N   UNK A   0     -40.030  23.962   2.661  0.00  0.00    -0.383 NA
ATOM     22  N   UNK A   0     -40.829  26.039   3.460  0.00  0.00    -0.328 N 
ATOM     23  C   UNK A   0     -39.740  23.422   1.441  0.00  0.00    +0.148 C 
ATOM     24  C   UNK A   0     -39.923  24.198   0.336  0.00  0.00    +0.127 C 
ATOM     25  C   UNK A   0     -40.449  25.192   2.467  0.00  0.00    +0.204 C 
ATOM     26  H   UNK A   0     -41.132  26.950   3.241  0.00  0.00    +0.145 HD
ATOM     27  H   UNK A   0     -40.802  25.741   4.398  0.00  0.00    +0.145 HD
ENDBRANCH  19  23
BRANCH  18  28
ATOM     28  O   UNK A   0     -41.240  21.673   0.420  0.00  0.00    -0.373 OA
ATOM     29  C   UNK A   0     -41.629  21.001  -0.768  0.00  0.00    +0.288 C 
ENDBRANCH  18  28
ENDBRANCH   3  19
TORSDOF 6
ENDMDL
