MODEL 1
REMARK VINA RESULT:      -6.7      0.000      0.000
REMARK  Name = 54678924
REMARK  5 active torsions:
REMARK  status: ('A' for Active; 'I' for Inactive)
REMARK    1  A    between atoms: C_5  and  O_26
REMARK    2  A    between atoms: C_11  and  O_28
REMARK    3  A    between atoms: C_12  and  O_30
REMARK    4  A    between atoms: C_15  and  C_23
REMARK    5  A    between atoms: C_18  and  O_32
REMARK                            x       y       z     vdW  Elec       q    Type
REMARK                         _______ _______ _______ _____ _____    ______ ____
ROOT
ATOM      1  O   UNL     1     -38.724  24.796   3.761  0.00  0.00    -0.289 OA
ATOM      2  O   UNL     1     -32.563  26.799   4.569  0.00  0.00    -0.291 OA
ATOM      3  C   UNL     1     -35.412  24.627   5.109  0.00  0.00    +0.047 C 
ATOM      4  C   UNL     1     -35.875  22.562   3.670  0.00  0.00    +0.033 C 
ATOM      5  C   UNL     1     -36.482  25.450   4.374  0.00  0.00    +0.193 C 
ATOM      6  C   UNL     1     -34.812  23.522   4.222  0.00  0.00    +0.009 C 
ATOM      7  C   UNL     1     -37.036  23.290   3.042  0.00  0.00    +0.049 C 
ATOM      8  C   UNL     1     -34.307  25.553   5.625  0.00  0.00    +0.073 C 
ATOM      9  C   UNL     1     -37.522  24.527   3.729  0.00  0.00    +0.203 C 
ATOM     10  C   UNL     1     -35.188  21.589   2.690  0.00  0.00    +0.031 C 
ATOM     11  C   UNL     1     -35.899  26.417   3.362  0.00  0.00    +0.149 C 
ATOM     12  C   UNL     1     -37.687  22.837   1.954  0.00  0.00    +0.135 C 
ATOM     13  C   UNL     1     -36.148  20.886   1.766  0.00  0.00    -0.016 C 
ATOM     14  C   UNL     1     -33.729  26.412   4.519  0.00  0.00    +0.180 C 
ATOM     15  C   UNL     1     -34.622  26.840   3.399  0.00  0.00    +0.120 C 
ATOM     16  C   UNL     1     -37.346  21.515   1.379  0.00  0.00    +0.063 C 
ATOM     17  C   UNL     1     -35.804  19.632   1.239  0.00  0.00    -0.004 C 
ATOM     18  C   UNL     1     -38.201  20.835   0.495  0.00  0.00    +0.136 C 
ATOM     19  C   UNL     1     -36.659  18.981   0.354  0.00  0.00    +0.003 C 
ATOM     20  C   UNL     1     -37.858  19.580  -0.014  0.00  0.00    +0.037 C 
ENDROOT
BRANCH  15  23
ATOM     21  O   UNL     1     -34.063  27.418   1.185  0.00  0.00    -0.270 OA
ATOM     22  N   UNL     1     -33.790  28.996   2.849  0.00  0.00    -0.325 N 
ATOM     23  C   UNL     1     -34.136  27.760   2.359  0.00  0.00    +0.248 C 
ATOM     24  H   UNL     1     -33.452  29.690   2.239  0.00  0.00    +0.145 HD
ATOM     25  H   UNL     1     -33.880  29.187   3.811  0.00  0.00    +0.145 HD
ENDBRANCH  15  23
BRANCH   5  26
ATOM     26  O   UNL     1     -37.194  26.250   5.322  0.00  0.00    -0.373 OA
ATOM     27  H   UNL     1     -37.397  27.113   4.929  0.00  0.00    +0.211 HD
ENDBRANCH   5  26
BRANCH  11  28
ATOM     28  O   UNL     1     -36.766  26.883   2.385  0.00  0.00    -0.507 OA
ATOM     29  H   UNL     1     -37.264  27.662   2.533  0.00  0.00    +0.292 HD
ENDBRANCH  11  28
BRANCH  12  30
ATOM     30  O   UNL     1     -38.709  23.557   1.364  0.00  0.00    -0.506 OA
ATOM     31  H   UNL     1     -38.579  23.950   0.523  0.00  0.00    +0.292 HD
ENDBRANCH  12  30
BRANCH  18  32
ATOM     32  O   UNL     1     -39.405  21.346   0.101  0.00  0.00    -0.505 OA
ATOM     33  H   UNL     1     -40.137  21.321   0.685  0.00  0.00    +0.292 HD
ENDBRANCH  18  32
TORSDOF 5
ENDMDL
MODEL 2
REMARK VINA RESULT:      -6.7      2.805      7.028
REMARK  Name = 54678924
REMARK  5 active torsions:
REMARK  status: ('A' for Active; 'I' for Inactive)
REMARK    1  A    between atoms: C_5  and  O_26
REMARK    2  A    between atoms: C_11  and  O_28
REMARK    3  A    between atoms: C_12  and  O_30
REMARK    4  A    between atoms: C_15  and  C_23
REMARK    5  A    between atoms: C_18  and  O_32
REMARK                            x       y       z     vdW  Elec       q    Type
REMARK                         _______ _______ _______ _____ _____    ______ ____
ROOT
ATOM      1  O   UNL     1     -36.693  26.116   5.693  0.00  0.00    -0.289 OA
ATOM      2  O   UNL     1     -36.897  22.051   0.589  0.00  0.00    -0.291 OA
ATOM      3  C   UNL     1     -36.932  25.286   2.219  0.00  0.00    +0.047 C 
ATOM      4  C   UNL     1     -34.808  26.648   2.647  0.00  0.00    +0.033 C 
ATOM      5  C   UNL     1     -36.993  24.815   3.682  0.00  0.00    +0.193 C 
ATOM      6  C   UNL     1     -35.495  25.596   1.765  0.00  0.00    +0.009 C 
ATOM      7  C   UNL     1     -34.932  26.335   4.116  0.00  0.00    +0.049 C 
ATOM      8  C   UNL     1     -37.562  24.230   1.306  0.00  0.00    +0.073 C 
ATOM      9  C   UNL     1     -36.243  25.792   4.593  0.00  0.00    +0.203 C 
ATOM     10  C   UNL     1     -33.339  26.777   2.193  0.00  0.00    +0.031 C 
ATOM     11  C   UNL     1     -36.502  23.394   3.871  0.00  0.00    +0.149 C 
ATOM     12  C   UNL     1     -33.957  26.591   5.009  0.00  0.00    +0.135 C 
ATOM     13  C   UNL     1     -32.448  27.435   3.214  0.00  0.00    -0.016 C 
ATOM     14  C   UNL     1     -36.940  22.865   1.510  0.00  0.00    +0.180 C 
ATOM     15  C   UNL     1     -36.440  22.497   2.870  0.00  0.00    +0.120 C 
ATOM     16  C   UNL     1     -32.731  27.308   4.587  0.00  0.00    +0.063 C 
ATOM     17  C   UNL     1     -31.296  28.114   2.788  0.00  0.00    -0.004 C 
ATOM     18  C   UNL     1     -31.860  27.916   5.507  0.00  0.00    +0.136 C 
ATOM     19  C   UNL     1     -30.438  28.698   3.716  0.00  0.00    +0.003 C 
ATOM     20  C   UNL     1     -30.722  28.602   5.073  0.00  0.00    +0.037 C 
ENDROOT
BRANCH  15  23
ATOM     21  O   UNL     1     -34.885  20.971   3.765  0.00  0.00    -0.270 OA
ATOM     22  N   UNL     1     -36.722  20.150   2.632  0.00  0.00    -0.325 N 
ATOM     23  C   UNL     1     -35.926  21.146   3.142  0.00  0.00    +0.248 C 
ATOM     24  H   UNL     1     -36.471  19.207   2.756  0.00  0.00    +0.145 HD
ATOM     25  H   UNL     1     -37.544  20.381   2.141  0.00  0.00    +0.145 HD
ENDBRANCH  15  23
BRANCH   5  26
ATOM     26  O   UNL     1     -38.354  24.827   4.123  0.00  0.00    -0.373 OA
ATOM     27  H   UNL     1     -38.944  24.806   3.353  0.00  0.00    +0.211 HD
ENDBRANCH   5  26
BRANCH  11  28
ATOM     28  O   UNL     1     -36.134  23.036   5.160  0.00  0.00    -0.507 OA
ATOM     29  H   UNL     1     -36.648  22.417   5.640  0.00  0.00    +0.292 HD
ENDBRANCH  11  28
BRANCH  12  30
ATOM     30  O   UNL     1     -34.075  26.237   6.340  0.00  0.00    -0.506 OA
ATOM     31  H   UNL     1     -34.743  26.625   6.870  0.00  0.00    +0.292 HD
ENDBRANCH  12  30
BRANCH  18  32
ATOM     32  O   UNL     1     -32.079  27.886   6.855  0.00  0.00    -0.505 OA
ATOM     33  H   UNL     1     -32.954  27.834   7.185  0.00  0.00    +0.292 HD
ENDBRANCH  18  32
TORSDOF 5
ENDMDL
MODEL 3
REMARK VINA RESULT:      -6.7      3.475      4.952
REMARK  Name = 54678924
REMARK  5 active torsions:
REMARK  status: ('A' for Active; 'I' for Inactive)
REMARK    1  A    between atoms: C_5  and  O_26
REMARK    2  A    between atoms: C_11  and  O_28
REMARK    3  A    between atoms: C_12  and  O_30
REMARK    4  A    between atoms: C_15  and  C_23
REMARK    5  A    between atoms: C_18  and  O_32
REMARK                            x       y       z     vdW  Elec       q    Type
REMARK                         _______ _______ _______ _____ _____    ______ ____
ROOT
ATOM      1  O   UNL     1     -34.213  23.720  -1.108  0.00  0.00    -0.289 OA
ATOM      2  O   UNL     1     -37.053  24.295   4.742  0.00  0.00    -0.291 OA
ATOM      3  C   UNL     1     -36.535  22.832   1.468  0.00  0.00    +0.047 C 
ATOM      4  C   UNL     1     -34.910  20.899   1.054  0.00  0.00    +0.033 C 
ATOM      5  C   UNL     1     -35.543  23.862   0.901  0.00  0.00    +0.193 C 
ATOM      6  C   UNL     1     -35.824  21.605   2.065  0.00  0.00    +0.009 C 
ATOM      7  C   UNL     1     -33.986  21.858   0.348  0.00  0.00    +0.049 C 
ATOM      8  C   UNL     1     -37.427  23.495   2.522  0.00  0.00    +0.073 C 
ATOM      9  C   UNL     1     -34.551  23.186  -0.050  0.00  0.00    +0.203 C 
ATOM     10  C   UNL     1     -34.147  19.778   1.790  0.00  0.00    +0.031 C 
ATOM     11  C   UNL     1     -34.826  24.653   1.977  0.00  0.00    +0.149 C 
ATOM     12  C   UNL     1     -32.724  21.544   0.001  0.00  0.00    +0.135 C 
ATOM     13  C   UNL     1     -32.928  19.293   1.050  0.00  0.00    -0.016 C 
ATOM     14  C   UNL     1     -36.613  24.181   3.600  0.00  0.00    +0.180 C 
ATOM     15  C   UNL     1     -35.292  24.778   3.234  0.00  0.00    +0.120 C 
ATOM     16  C   UNL     1     -32.214  20.169   0.210  0.00  0.00    +0.063 C 
ATOM     17  C   UNL     1     -32.469  17.984   1.262  0.00  0.00    -0.004 C 
ATOM     18  C   UNL     1     -31.067  19.683  -0.440  0.00  0.00    +0.136 C 
ATOM     19  C   UNL     1     -31.322  17.526   0.618  0.00  0.00    +0.003 C 
ATOM     20  C   UNL     1     -30.625  18.373  -0.235  0.00  0.00    +0.037 C 
ENDROOT
BRANCH  15  23
ATOM     21  O   UNL     1     -33.408  25.174   4.591  0.00  0.00    -0.270 OA
ATOM     22  N   UNL     1     -35.157  26.680   4.650  0.00  0.00    -0.325 N 
ATOM     23  C   UNL     1     -34.514  25.546   4.219  0.00  0.00    +0.248 C 
ATOM     24  H   UNL     1     -34.726  27.269   5.310  0.00  0.00    +0.145 HD
ATOM     25  H   UNL     1     -36.048  26.905   4.297  0.00  0.00    +0.145 HD
ENDBRANCH  15  23
BRANCH   5  26
ATOM     26  O   UNL     1     -36.259  24.819   0.115  0.00  0.00    -0.373 OA
ATOM     27  H   UNL     1     -36.020  25.715   0.400  0.00  0.00    +0.211 HD
ENDBRANCH   5  26
BRANCH  11  28
ATOM     28  O   UNL     1     -33.651  25.285   1.597  0.00  0.00    -0.507 OA
ATOM     29  H   UNL     1     -33.656  26.197   1.385  0.00  0.00    +0.292 HD
ENDBRANCH  11  28
BRANCH  12  30
ATOM     30  O   UNL     1     -31.880  22.465  -0.591  0.00  0.00    -0.506 OA
ATOM     31  H   UNL     1     -31.333  22.206  -1.308  0.00  0.00    +0.292 HD
ENDBRANCH  12  30
BRANCH  18  32
ATOM     32  O   UNL     1     -30.339  20.445  -1.310  0.00  0.00    -0.505 OA
ATOM     33  H   UNL     1     -30.104  20.101  -2.149  0.00  0.00    +0.292 HD
ENDBRANCH  18  32
TORSDOF 5
ENDMDL
MODEL 4
REMARK VINA RESULT:      -6.6      2.805      6.661
REMARK  Name = 54678924
REMARK  5 active torsions:
REMARK  status: ('A' for Active; 'I' for Inactive)
REMARK    1  A    between atoms: C_5  and  O_26
REMARK    2  A    between atoms: C_11  and  O_28
REMARK    3  A    between atoms: C_12  and  O_30
REMARK    4  A    between atoms: C_15  and  C_23
REMARK    5  A    between atoms: C_18  and  O_32
REMARK                            x       y       z     vdW  Elec       q    Type
REMARK                         _______ _______ _______ _____ _____    ______ ____
ROOT
ATOM      1  O   UNL     1     -37.396  26.409   2.819  0.00  0.00    -0.289 OA
ATOM      2  O   UNL     1     -35.038  20.348   3.386  0.00  0.00    -0.291 OA
ATOM      3  C   UNL     1     -35.859  23.405   1.624  0.00  0.00    +0.047 C 
ATOM      4  C   UNL     1     -34.227  25.365   1.411  0.00  0.00    +0.033 C 
ATOM      5  C   UNL     1     -36.654  24.114   2.734  0.00  0.00    +0.193 C 
ATOM      6  C   UNL     1     -34.386  23.848   1.587  0.00  0.00    +0.009 C 
ATOM      7  C   UNL     1     -35.078  26.148   2.378  0.00  0.00    +0.049 C 
ATOM      8  C   UNL     1     -35.954  21.887   1.805  0.00  0.00    +0.073 C 
ATOM      9  C   UNL     1     -36.456  25.631   2.652  0.00  0.00    +0.203 C 
ATOM     10  C   UNL     1     -32.728  25.712   1.528  0.00  0.00    +0.031 C 
ATOM     11  C   UNL     1     -36.339  23.589   4.120  0.00  0.00    +0.149 C 
ATOM     12  C   UNL     1     -34.684  27.309   2.933  0.00  0.00    +0.135 C 
ATOM     13  C   UNL     1     -32.468  27.171   1.801  0.00  0.00    -0.016 C 
ATOM     14  C   UNL     1     -35.532  21.458   3.195  0.00  0.00    +0.180 C 
ATOM     15  C   UNL     1     -35.790  22.380   4.343  0.00  0.00    +0.120 C 
ATOM     16  C   UNL     1     -33.406  27.935   2.521  0.00  0.00    +0.063 C 
ATOM     17  C   UNL     1     -31.251  27.741   1.395  0.00  0.00    -0.004 C 
ATOM     18  C   UNL     1     -33.111  29.285   2.777  0.00  0.00    +0.136 C 
ATOM     19  C   UNL     1     -30.973  29.077   1.670  0.00  0.00    +0.003 C 
ATOM     20  C   UNL     1     -31.903  29.849   2.356  0.00  0.00    +0.037 C 
ENDROOT
BRANCH  15  23
ATOM     21  O   UNL     1     -36.319  22.099   6.621  0.00  0.00    -0.270 OA
ATOM     22  N   UNL     1     -34.239  21.432   5.872  0.00  0.00    -0.325 N 
ATOM     23  C   UNL     1     -35.496  21.965   5.723  0.00  0.00    +0.248 C 
ATOM     24  H   UNL     1     -33.938  21.121   6.755  0.00  0.00    +0.145 HD
ATOM     25  H   UNL     1     -33.639  21.362   5.094  0.00  0.00    +0.145 HD
ENDBRANCH  15  23
BRANCH   5  26
ATOM     26  O   UNL     1     -38.052  23.884   2.530  0.00  0.00    -0.373 OA
ATOM     27  H   UNL     1     -38.171  23.128   1.934  0.00  0.00    +0.211 HD
ENDBRANCH   5  26
BRANCH  11  28
ATOM     28  O   UNL     1     -36.675  24.415   5.182  0.00  0.00    -0.507 OA
ATOM     29  H   UNL     1     -37.376  25.030   5.095  0.00  0.00    +0.292 HD
ENDBRANCH  11  28
BRANCH  12  30
ATOM     30  O   UNL     1     -35.460  27.974   3.863  0.00  0.00    -0.506 OA
ATOM     31  H   UNL     1     -35.624  27.585   4.700  0.00  0.00    +0.292 HD
ENDBRANCH  12  30
BRANCH  18  32
ATOM     32  O   UNL     1     -33.980  30.115   3.425  0.00  0.00    -0.505 OA
ATOM     33  H   UNL     1     -33.911  31.043   3.315  0.00  0.00    +0.292 HD
ENDBRANCH  18  32
TORSDOF 5
ENDMDL
MODEL 5
REMARK VINA RESULT:      -6.6      3.423      5.910
REMARK  Name = 54678924
REMARK  5 active torsions:
REMARK  status: ('A' for Active; 'I' for Inactive)
REMARK    1  A    between atoms: C_5  and  O_26
REMARK    2  A    between atoms: C_11  and  O_28
REMARK    3  A    between atoms: C_12  and  O_30
REMARK    4  A    between atoms: C_15  and  C_23
REMARK    5  A    between atoms: C_18  and  O_32
REMARK                            x       y       z     vdW  Elec       q    Type
REMARK                         _______ _______ _______ _____ _____    ______ ____
ROOT
ATOM      1  O   UNL     1     -32.737  28.437   2.157  0.00  0.00    -0.289 OA
ATOM      2  O   UNL     1     -28.942  29.013   7.438  0.00  0.00    -0.291 OA
ATOM      3  C   UNL     1     -32.077  29.053   5.621  0.00  0.00    +0.047 C 
ATOM      4  C   UNL     1     -33.562  26.983   5.369  0.00  0.00    +0.033 C 
ATOM      5  C   UNL     1     -31.526  28.902   4.193  0.00  0.00    +0.193 C 
ATOM      6  C   UNL     1     -32.511  27.706   6.225  0.00  0.00    +0.009 C 
ATOM      7  C   UNL     1     -33.163  26.904   3.918  0.00  0.00    +0.049 C 
ATOM      8  C   UNL     1     -31.028  29.723   6.514  0.00  0.00    +0.073 C 
ATOM      9  C   UNL     1     -32.504  28.108   3.321  0.00  0.00    +0.203 C 
ATOM     10  C   UNL     1     -33.818  25.594   5.988  0.00  0.00    +0.031 C 
ATOM     11  C   UNL     1     -30.135  28.300   4.151  0.00  0.00    +0.149 C 
ATOM     12  C   UNL     1     -33.441  25.844   3.135  0.00  0.00    +0.135 C 
ATOM     13  C   UNL     1     -34.484  24.627   5.043  0.00  0.00    -0.016 C 
ATOM     14  C   UNL     1     -29.701  28.993   6.471  0.00  0.00    +0.180 C 
ATOM     15  C   UNL     1     -29.299  28.306   5.205  0.00  0.00    +0.120 C 
ATOM     16  C   UNL     1     -34.265  24.729   3.657  0.00  0.00    +0.063 C 
ATOM     17  C   UNL     1     -35.264  23.583   5.563  0.00  0.00    -0.004 C 
ATOM     18  C   UNL     1     -34.883  23.791   2.813  0.00  0.00    +0.136 C 
ATOM     19  C   UNL     1     -35.857  22.655   4.710  0.00  0.00    +0.003 C 
ATOM     20  C   UNL     1     -35.671  22.762   3.338  0.00  0.00    +0.037 C 
ENDROOT
BRANCH  15  23
ATOM     21  O   UNL     1     -27.855  26.475   4.868  0.00  0.00    -0.270 OA
ATOM     22  N   UNL     1     -26.938  28.563   5.224  0.00  0.00    -0.325 N 
ATOM     23  C   UNL     1     -27.975  27.676   5.080  0.00  0.00    +0.248 C 
ATOM     24  H   UNL     1     -26.008  28.248   5.158  0.00  0.00    +0.145 HD
ATOM     25  H   UNL     1     -27.124  29.516   5.394  0.00  0.00    +0.145 HD
ENDBRANCH  15  23
BRANCH   5  26
ATOM     26  O   UNL     1     -31.418  30.195   3.591  0.00  0.00    -0.373 OA
ATOM     27  H   UNL     1     -30.797  30.155   2.848  0.00  0.00    +0.211 HD
ENDBRANCH   5  26
BRANCH  11  28
ATOM     28  O   UNL     1     -29.737  27.753   2.940  0.00  0.00    -0.507 OA
ATOM     29  H   UNL     1     -29.251  28.270   2.329  0.00  0.00    +0.292 HD
ENDBRANCH  11  28
BRANCH  12  30
ATOM     30  O   UNL     1     -33.010  25.773   1.824  0.00  0.00    -0.506 OA
ATOM     31  H   UNL     1     -32.981  24.945   1.385  0.00  0.00    +0.292 HD
ENDBRANCH  12  30
BRANCH  18  32
ATOM     32  O   UNL     1     -34.767  23.838   1.453  0.00  0.00    -0.505 OA
ATOM     33  H   UNL     1     -34.944  24.637   0.996  0.00  0.00    +0.292 HD
ENDBRANCH  18  32
TORSDOF 5
ENDMDL
MODEL 6
REMARK VINA RESULT:      -6.6      4.187      7.170
REMARK  Name = 54678924
REMARK  5 active torsions:
REMARK  status: ('A' for Active; 'I' for Inactive)
REMARK    1  A    between atoms: C_5  and  O_26
REMARK    2  A    between atoms: C_11  and  O_28
REMARK    3  A    between atoms: C_12  and  O_30
REMARK    4  A    between atoms: C_15  and  C_23
REMARK    5  A    between atoms: C_18  and  O_32
REMARK                            x       y       z     vdW  Elec       q    Type
REMARK                         _______ _______ _______ _____ _____    ______ ____
ROOT
ATOM      1  O   UNL     1     -36.501  19.688   2.227  0.00  0.00    -0.289 OA
ATOM      2  O   UNL     1     -31.928  20.229  -2.400  0.00  0.00    -0.291 OA
ATOM      3  C   UNL     1     -35.039  21.058  -0.739  0.00  0.00    +0.047 C 
ATOM      4  C   UNL     1     -35.210  22.866   1.064  0.00  0.00    +0.033 C 
ATOM      5  C   UNL     1     -35.058  19.931   0.307  0.00  0.00    +0.193 C 
ATOM      6  C   UNL     1     -34.458  22.367  -0.178  0.00  0.00    +0.009 C 
ATOM      7  C   UNL     1     -35.393  21.784   2.098  0.00  0.00    +0.049 C 
ATOM      8  C   UNL     1     -34.247  20.610  -1.971  0.00  0.00    +0.073 C 
ATOM      9  C   UNL     1     -35.724  20.411   1.601  0.00  0.00    +0.203 C 
ATOM     10  C   UNL     1     -34.464  24.095   1.622  0.00  0.00    +0.031 C 
ATOM     11  C   UNL     1     -33.686  19.345   0.576  0.00  0.00    +0.149 C 
ATOM     12  C   UNL     1     -35.346  22.016   3.423  0.00  0.00    +0.135 C 
ATOM     13  C   UNL     1     -34.826  24.424   3.047  0.00  0.00    -0.016 C 
ATOM     14  C   UNL     1     -32.859  20.126  -1.604  0.00  0.00    +0.180 C 
ATOM     15  C   UNL     1     -32.656  19.459  -0.282  0.00  0.00    +0.120 C 
ATOM     16  C   UNL     1     -35.216  23.401   3.932  0.00  0.00    +0.063 C 
ATOM     17  C   UNL     1     -34.699  25.745   3.504  0.00  0.00    -0.004 C 
ATOM     18  C   UNL     1     -35.519  23.747   5.260  0.00  0.00    +0.136 C 
ATOM     19  C   UNL     1     -34.991  26.065   4.827  0.00  0.00    +0.003 C 
ATOM     20  C   UNL     1     -35.405  25.068   5.702  0.00  0.00    +0.037 C 
ENDROOT
BRANCH  15  23
ATOM     21  O   UNL     1     -31.249  17.713   0.442  0.00  0.00    -0.270 OA
ATOM     22  N   UNL     1     -30.312  19.766  -0.048  0.00  0.00    -0.325 N 
ATOM     23  C   UNL     1     -31.352  18.878   0.075  0.00  0.00    +0.248 C 
ATOM     24  H   UNL     1     -29.395  19.481   0.165  0.00  0.00    +0.145 HD
ATOM     25  H   UNL     1     -30.485  20.687  -0.351  0.00  0.00    +0.145 HD
ENDBRANCH  15  23
BRANCH   5  26
ATOM     26  O   UNL     1     -35.863  18.853  -0.178  0.00  0.00    -0.373 OA
ATOM     27  H   UNL     1     -35.912  18.157   0.497  0.00  0.00    +0.211 HD
ENDBRANCH   5  26
BRANCH  11  28
ATOM     28  O   UNL     1     -33.539  18.643   1.763  0.00  0.00    -0.507 OA
ATOM     29  H   UNL     1     -32.697  18.316   2.014  0.00  0.00    +0.292 HD
ENDBRANCH  11  28
BRANCH  12  30
ATOM     30  O   UNL     1     -35.457  20.994   4.346  0.00  0.00    -0.506 OA
ATOM     31  H   UNL     1     -35.605  21.193   5.250  0.00  0.00    +0.292 HD
ENDBRANCH  12  30
BRANCH  18  32
ATOM     32  O   UNL     1     -35.952  22.831   6.176  0.00  0.00    -0.505 OA
ATOM     33  H   UNL     1     -36.389  22.053   5.890  0.00  0.00    +0.292 HD
ENDBRANCH  18  32
TORSDOF 5
ENDMDL
MODEL 7
REMARK VINA RESULT:      -6.4      2.578      3.412
REMARK  Name = 54678924
REMARK  5 active torsions:
REMARK  status: ('A' for Active; 'I' for Inactive)
REMARK    1  A    between atoms: C_5  and  O_26
REMARK    2  A    between atoms: C_11  and  O_28
REMARK    3  A    between atoms: C_12  and  O_30
REMARK    4  A    between atoms: C_15  and  C_23
REMARK    5  A    between atoms: C_18  and  O_32
REMARK                            x       y       z     vdW  Elec       q    Type
REMARK                         _______ _______ _______ _____ _____    ______ ____
ROOT
ATOM      1  O   UNL     1     -37.199  23.968   4.450  0.00  0.00    -0.289 OA
ATOM      2  O   UNL     1     -36.263  29.031   0.436  0.00  0.00    -0.291 OA
ATOM      3  C   UNL     1     -35.246  26.455   2.772  0.00  0.00    +0.047 C 
ATOM      4  C   UNL     1     -34.511  24.119   2.028  0.00  0.00    +0.033 C 
ATOM      5  C   UNL     1     -36.637  25.947   3.187  0.00  0.00    +0.193 C 
ATOM      6  C   UNL     1     -34.624  25.603   1.652  0.00  0.00    +0.009 C 
ATOM      7  C   UNL     1     -35.802  23.565   2.573  0.00  0.00    +0.049 C 
ATOM      8  C   UNL     1     -35.336  27.921   2.338  0.00  0.00    +0.073 C 
ATOM      9  C   UNL     1     -36.593  24.445   3.490  0.00  0.00    +0.203 C 
ATOM     10  C   UNL     1     -34.010  23.342   0.793  0.00  0.00    +0.031 C 
ATOM     11  C   UNL     1     -37.717  26.276   2.176  0.00  0.00    +0.149 C 
ATOM     12  C   UNL     1     -36.224  22.309   2.335  0.00  0.00    +0.135 C 
ATOM     13  C   UNL     1     -34.255  21.858   0.875  0.00  0.00    -0.016 C 
ATOM     14  C   UNL     1     -36.382  28.127   1.262  0.00  0.00    +0.180 C 
ATOM     15  C   UNL     1     -37.596  27.255   1.261  0.00  0.00    +0.120 C 
ATOM     16  C   UNL     1     -35.359  21.362   1.594  0.00  0.00    +0.063 C 
ATOM     17  C   UNL     1     -33.418  20.981   0.168  0.00  0.00    -0.004 C 
ATOM     18  C   UNL     1     -35.566  19.972   1.622  0.00  0.00    +0.136 C 
ATOM     19  C   UNL     1     -33.648  19.608   0.198  0.00  0.00    +0.003 C 
ATOM     20  C   UNL     1     -34.718  19.105   0.927  0.00  0.00    +0.037 C 
ENDROOT
BRANCH  15  23
ATOM     21  O   UNL     1     -39.453  28.437   0.420  0.00  0.00    -0.270 OA
ATOM     22  N   UNL     1     -38.741  26.544  -0.695  0.00  0.00    -0.325 N 
ATOM     23  C   UNL     1     -38.688  27.486   0.303  0.00  0.00    +0.248 C 
ATOM     24  H   UNL     1     -39.434  26.603  -1.391  0.00  0.00    +0.145 HD
ATOM     25  H   UNL     1     -38.084  25.810  -0.713  0.00  0.00    +0.145 HD
ENDBRANCH  15  23
BRANCH   5  26
ATOM     26  O   UNL     1     -37.026  26.586   4.407  0.00  0.00    -0.373 OA
ATOM     27  H   UNL     1     -37.724  26.067   4.835  0.00  0.00    +0.211 HD
ENDBRANCH   5  26
BRANCH  11  28
ATOM     28  O   UNL     1     -38.880  25.523   2.251  0.00  0.00    -0.507 OA
ATOM     29  H   UNL     1     -39.436  25.442   1.501  0.00  0.00    +0.292 HD
ENDBRANCH  11  28
BRANCH  12  30
ATOM     30  O   UNL     1     -37.442  21.848   2.797  0.00  0.00    -0.506 OA
ATOM     31  H   UNL     1     -37.896  21.174   2.330  0.00  0.00    +0.292 HD
ENDBRANCH  12  30
BRANCH  18  32
ATOM     32  O   UNL     1     -36.581  19.396   2.332  0.00  0.00    -0.505 OA
ATOM     33  H   UNL     1     -36.408  19.017   3.171  0.00  0.00    +0.292 HD
ENDBRANCH  18  32
TORSDOF 5
ENDMDL
MODEL 8
REMARK VINA RESULT:      -6.4      3.611      6.308
REMARK  Name = 54678924
REMARK  5 active torsions:
REMARK  status: ('A' for Active; 'I' for Inactive)
REMARK    1  A    between atoms: C_5  and  O_26
REMARK    2  A    between atoms: C_11  and  O_28
REMARK    3  A    between atoms: C_12  and  O_30
REMARK    4  A    between atoms: C_15  and  C_23
REMARK    5  A    between atoms: C_18  and  O_32
REMARK                            x       y       z     vdW  Elec       q    Type
REMARK                         _______ _______ _______ _____ _____    ______ ____
ROOT
ATOM      1  O   UNL     1     -40.024  21.468   1.780  0.00  0.00    -0.289 OA
ATOM      2  O   UNL     1     -40.629  26.845  -1.874  0.00  0.00    -0.291 OA
ATOM      3  C   UNL     1     -40.883  24.889   1.166  0.00  0.00    +0.047 C 
ATOM      4  C   UNL     1     -39.000  24.759   2.894  0.00  0.00    +0.033 C 
ATOM      5  C   UNL     1     -40.528  23.507   0.590  0.00  0.00    +0.193 C 
ATOM      6  C   UNL     1     -39.666  25.592   1.790  0.00  0.00    +0.009 C 
ATOM      7  C   UNL     1     -38.732  23.341   2.460  0.00  0.00    +0.049 C 
ATOM      8  C   UNL     1     -41.500  25.764   0.071  0.00  0.00    +0.073 C 
ATOM      9  C   UNL     1     -39.782  22.667   1.632  0.00  0.00    +0.203 C 
ATOM     10  C   UNL     1     -37.720  25.490   3.348  0.00  0.00    +0.031 C 
ATOM     11  C   UNL     1     -39.757  23.586  -0.712  0.00  0.00    +0.149 C 
ATOM     12  C   UNL     1     -37.645  22.646   2.844  0.00  0.00    +0.135 C 
ATOM     13  C   UNL     1     -36.757  24.607   4.099  0.00  0.00    -0.016 C 
ATOM     14  C   UNL     1     -40.611  25.849  -1.152  0.00  0.00    +0.180 C 
ATOM     15  C   UNL     1     -39.760  24.672  -1.506  0.00  0.00    +0.120 C 
ATOM     16  C   UNL     1     -36.697  23.228   3.821  0.00  0.00    +0.063 C 
ATOM     17  C   UNL     1     -35.873  25.183   5.024  0.00  0.00    -0.004 C 
ATOM     18  C   UNL     1     -35.766  22.446   4.526  0.00  0.00    +0.136 C 
ATOM     19  C   UNL     1     -34.949  24.392   5.702  0.00  0.00    +0.003 C 
ATOM     20  C   UNL     1     -34.898  23.026   5.456  0.00  0.00    +0.037 C 
ENDROOT
BRANCH  15  23
ATOM     21  O   UNL     1     -39.187  23.871  -3.646  0.00  0.00    -0.270 OA
ATOM     22  N   UNL     1     -37.973  25.620  -2.752  0.00  0.00    -0.325 N 
ATOM     23  C   UNL     1     -38.961  24.666  -2.742  0.00  0.00    +0.248 C 
ATOM     24  H   UNL     1     -37.379  25.704  -3.531  0.00  0.00    +0.145 HD
ATOM     25  H   UNL     1     -37.861  26.220  -1.979  0.00  0.00    +0.145 HD
ENDBRANCH  15  23
BRANCH   5  26
ATOM     26  O   UNL     1     -41.734  22.796   0.296  0.00  0.00    -0.373 OA
ATOM     27  H   UNL     1     -41.650  22.360  -0.566  0.00  0.00    +0.211 HD
ENDBRANCH   5  26
BRANCH  11  28
ATOM     28  O   UNL     1     -39.050  22.449  -1.079  0.00  0.00    -0.507 OA
ATOM     29  H   UNL     1     -38.667  21.903  -0.421  0.00  0.00    +0.292 HD
ENDBRANCH  11  28
BRANCH  12  30
ATOM     30  O   UNL     1     -37.395  21.368   2.381  0.00  0.00    -0.506 OA
ATOM     31  H   UNL     1     -38.107  20.777   2.229  0.00  0.00    +0.292 HD
ENDBRANCH  12  30
BRANCH  18  32
ATOM     32  O   UNL     1     -35.667  21.094   4.358  0.00  0.00    -0.505 OA
ATOM     33  H   UNL     1     -34.827  20.699   4.233  0.00  0.00    +0.292 HD
ENDBRANCH  18  32
TORSDOF 5
ENDMDL
MODEL 9
REMARK VINA RESULT:      -6.3      3.932      5.941
REMARK  Name = 54678924
REMARK  5 active torsions:
REMARK  status: ('A' for Active; 'I' for Inactive)
REMARK    1  A    between atoms: C_5  and  O_26
REMARK    2  A    between atoms: C_11  and  O_28
REMARK    3  A    between atoms: C_12  and  O_30
REMARK    4  A    between atoms: C_15  and  C_23
REMARK    5  A    between atoms: C_18  and  O_32
REMARK                            x       y       z     vdW  Elec       q    Type
REMARK                         _______ _______ _______ _____ _____    ______ ____
ROOT
ATOM      1  O   UNL     1     -35.536  20.997   3.815  0.00  0.00    -0.289 OA
ATOM      2  O   UNL     1     -39.146  24.582  -0.276  0.00  0.00    -0.291 OA
ATOM      3  C   UNL     1     -36.253  23.853   1.780  0.00  0.00    +0.047 C 
ATOM      4  C   UNL     1     -34.184  22.641   0.885  0.00  0.00    +0.033 C 
ATOM      5  C   UNL     1     -36.768  22.581   2.474  0.00  0.00    +0.193 C 
ATOM      6  C   UNL     1     -35.385  23.537   0.550  0.00  0.00    +0.009 C 
ATOM      7  C   UNL     1     -34.579  21.427   1.685  0.00  0.00    +0.049 C 
ATOM      8  C   UNL     1     -37.434  24.744   1.383  0.00  0.00    +0.073 C 
ATOM      9  C   UNL     1     -35.612  21.615   2.752  0.00  0.00    +0.203 C 
ATOM     10  C   UNL     1     -33.470  22.274  -0.432  0.00  0.00    +0.031 C 
ATOM     11  C   UNL     1     -37.888  21.900   1.713  0.00  0.00    +0.149 C 
ATOM     12  C   UNL     1     -33.996  20.223   1.533  0.00  0.00    +0.135 C 
ATOM     13  C   UNL     1     -32.555  21.083  -0.310  0.00  0.00    -0.016 C 
ATOM     14  C   UNL     1     -38.452  23.992   0.550  0.00  0.00    +0.180 C 
ATOM     15  C   UNL     1     -38.648  22.531   0.799  0.00  0.00    +0.120 C 
ATOM     16  C   UNL     1     -32.839  20.066   0.622  0.00  0.00    +0.063 C 
ATOM     17  C   UNL     1     -31.462  20.961  -1.181  0.00  0.00    -0.004 C 
ATOM     18  C   UNL     1     -31.974  18.960   0.685  0.00  0.00    +0.136 C 
ATOM     19  C   UNL     1     -30.626  19.850  -1.111  0.00  0.00    +0.003 C 
ATOM     20  C   UNL     1     -30.879  18.854  -0.177  0.00  0.00    +0.037 C 
ENDROOT
BRANCH  15  23
ATOM     21  O   UNL     1     -39.429  20.821  -0.620  0.00  0.00    -0.270 OA
ATOM     22  N   UNL     1     -40.959  22.272   0.318  0.00  0.00    -0.325 N 
ATOM     23  C   UNL     1     -39.697  21.781   0.092  0.00  0.00    +0.248 C 
ATOM     24  H   UNL     1     -41.737  21.845  -0.107  0.00  0.00    +0.145 HD
ATOM     25  H   UNL     1     -41.086  23.052   0.907  0.00  0.00    +0.145 HD
ENDBRANCH  15  23
BRANCH   5  26
ATOM     26  O   UNL     1     -37.310  22.930   3.752  0.00  0.00    -0.373 OA
ATOM     27  H   UNL     1     -37.368  22.136   4.305  0.00  0.00    +0.211 HD
ENDBRANCH   5  26
BRANCH  11  28
ATOM     28  O   UNL     1     -38.124  20.569   2.026  0.00  0.00    -0.507 OA
ATOM     29  H   UNL     1     -38.986  20.213   1.942  0.00  0.00    +0.292 HD
ENDBRANCH  11  28
BRANCH  12  30
ATOM     30  O   UNL     1     -34.421  19.112   2.237  0.00  0.00    -0.506 OA
ATOM     31  H   UNL     1     -35.288  19.086   2.592  0.00  0.00    +0.292 HD
ENDBRANCH  12  30
BRANCH  18  32
ATOM     32  O   UNL     1     -32.142  17.949   1.588  0.00  0.00    -0.505 OA
ATOM     33  H   UNL     1     -31.396  17.577   2.017  0.00  0.00    +0.292 HD
ENDBRANCH  18  32
TORSDOF 5
ENDMDL
