MODEL 1
REMARK VINA RESULT:      -6.6      0.000      0.000
REMARK  Name = 194211
REMARK  10 active torsions:
REMARK  status: ('A' for Active; 'I' for Inactive)
REMARK    1  A    between atoms: N_2  and  C_7
REMARK    2  A    between atoms: C_3  and  C_23
REMARK    3  A    between atoms: C_6  and  C_13
REMARK    4  A    between atoms: N_12  and  C_15
REMARK    5  A    between atoms: C_15  and  C_16
REMARK    6  A    between atoms: C_16  and  C_17
REMARK    7  A    between atoms: C_17  and  N_18
REMARK    8  A    between atoms: C_24  and  N_29
REMARK    9  A    between atoms: C_30  and  C_33
REMARK   10  A    between atoms: C_35  and  N_39
REMARK                            x       y       z     vdW  Elec       q    Type
REMARK                         _______ _______ _______ _____ _____    ______ ____
ROOT
ATOM      1  O   UNL     1     -35.949  23.143   5.357  0.00  0.00    -0.268 OA
ATOM      2  N   UNL     1     -34.948  24.206   3.537  0.00  0.00    -0.278 N 
ATOM      3  C   UNL     1     -35.741  23.209   4.147  0.00  0.00    +0.263 C 
ATOM      4  H   UNL     1     -34.860  24.146   2.559  0.00  0.00    +0.155 HD
ENDROOT
BRANCH   2   7
ATOM      5  N   UNL     1     -33.364  26.538   5.696  0.00  0.00    -0.280 N 
ATOM      6  C   UNL     1     -33.151  27.163   4.495  0.00  0.00    +0.107 C 
ATOM      7  C   UNL     1     -34.283  25.248   4.138  0.00  0.00    +0.067 C 
ATOM      8  C   UNL     1     -33.713  26.383   3.508  0.00  0.00    +0.035 C 
ATOM      9  C   UNL     1     -34.052  25.370   5.491  0.00  0.00    +0.080 C 
ATOM     10  C   UNL     1     -32.937  27.022   6.990  0.00  0.00    +0.117 C 
BRANCH   6  13
ATOM     11  O   UNL     1     -33.026  29.524   4.357  0.00  0.00    -0.269 OA
ATOM     12  N   UNL     1     -31.064  28.353   4.120  0.00  0.00    -0.300 N 
ATOM     13  C   UNL     1     -32.442  28.440   4.334  0.00  0.00    +0.260 C 
ATOM     14  H   UNL     1     -30.640  27.464   4.109  0.00  0.00    +0.150 HD
BRANCH  12  15
ATOM     15  C   UNL     1     -30.242  29.513   3.914  0.00  0.00    +0.088 C 
BRANCH  15  16
ATOM     16  C   UNL     1     -29.285  29.768   5.078  0.00  0.00    -0.002 C 
BRANCH  16  17
ATOM     17  C   UNL     1     -29.925  29.634   6.463  0.00  0.00    -0.076 C 
BRANCH  17  18
ATOM     18  N   UNL     1     -29.121  28.809   7.357  0.00  0.00    +0.384 N 
ATOM     19  C   UNL     1     -28.437  27.752   6.610  0.00  0.00    -0.101 C 
ATOM     20  C   UNL     1     -28.148  29.631   8.080  0.00  0.00    -0.101 C 
ATOM     21  H   UNL     1     -29.745  28.374   8.036  0.00  0.00    -0.080 HD
ENDBRANCH  17  18
ENDBRANCH  16  17
ENDBRANCH  15  16
ENDBRANCH  12  15
ENDBRANCH   6  13
ENDBRANCH   2   7
BRANCH   3  23
ATOM     22  N   UNL     1     -37.547  22.449   2.564  0.00  0.00    -0.280 N 
ATOM     23  C   UNL     1     -36.361  22.246   3.220  0.00  0.00    +0.107 C 
ATOM     24  C   UNL     1     -36.814  20.446   1.946  0.00  0.00    +0.067 C 
ATOM     25  C   UNL     1     -35.882  21.007   2.853  0.00  0.00    +0.035 C 
ATOM     26  C   UNL     1     -37.833  21.359   1.785  0.00  0.00    +0.080 C 
ATOM     27  C   UNL     1     -38.379  23.628   2.665  0.00  0.00    +0.117 C 
BRANCH  24  29
ATOM     28  O   UNL     1     -35.862  19.777  -0.763  0.00  0.00    -0.268 OA
ATOM     29  N   UNL     1     -36.740  19.221   1.324  0.00  0.00    -0.278 N 
ATOM     30  C   UNL     1     -36.278  18.929   0.023  0.00  0.00    +0.263 C 
ATOM     31  H   UNL     1     -37.047  18.450   1.855  0.00  0.00    +0.155 HD
BRANCH  30  33
ATOM     32  N   UNL     1     -37.369  16.831  -0.843  0.00  0.00    -0.280 N 
ATOM     33  C   UNL     1     -36.285  17.501  -0.339  0.00  0.00    +0.107 C 
ATOM     34  C   UNL     1     -35.243  16.604  -0.241  0.00  0.00    +0.035 C 
ATOM     35  C   UNL     1     -35.719  15.352  -0.703  0.00  0.00    +0.067 C 
ATOM     36  C   UNL     1     -37.036  15.521  -1.068  0.00  0.00    +0.080 C 
ATOM     37  C   UNL     1     -38.671  17.404  -1.107  0.00  0.00    +0.117 C 
BRANCH  35  39
ATOM     38  O   UNL     1     -34.094  14.188  -2.964  0.00  0.00    -0.265 OA
ATOM     39  N   UNL     1     -35.019  14.170  -0.783  0.00  0.00    -0.276 N 
ATOM     40  C   UNL     1     -34.283  13.688  -1.866  0.00  0.00    +0.304 C 
ATOM     41  H   UNL     1     -35.039  13.599   0.018  0.00  0.00    +0.155 HD
ENDBRANCH  35  39
ENDBRANCH  30  33
ENDBRANCH  24  29
ENDBRANCH   3  23
TORSDOF 10
ENDMDL
MODEL 2
REMARK VINA RESULT:      -6.4      5.725      8.736
REMARK  Name = 194211
REMARK  10 active torsions:
REMARK  status: ('A' for Active; 'I' for Inactive)
REMARK    1  A    between atoms: N_2  and  C_7
REMARK    2  A    between atoms: C_3  and  C_23
REMARK    3  A    between atoms: C_6  and  C_13
REMARK    4  A    between atoms: N_12  and  C_15
REMARK    5  A    between atoms: C_15  and  C_16
REMARK    6  A    between atoms: C_16  and  C_17
REMARK    7  A    between atoms: C_17  and  N_18
REMARK    8  A    between atoms: C_24  and  N_29
REMARK    9  A    between atoms: C_30  and  C_33
REMARK   10  A    between atoms: C_35  and  N_39
REMARK                            x       y       z     vdW  Elec       q    Type
REMARK                         _______ _______ _______ _____ _____    ______ ____
ROOT
ATOM      1  O   UNL     1     -37.736  26.592   2.553  0.00  0.00    -0.268 OA
ATOM      2  N   UNL     1     -39.521  25.154   2.990  0.00  0.00    -0.278 N 
ATOM      3  C   UNL     1     -38.155  25.465   2.808  0.00  0.00    +0.263 C 
ATOM      4  H   UNL     1     -39.725  24.213   3.189  0.00  0.00    +0.155 HD
ENDROOT
BRANCH   2   7
ATOM      5  N   UNL     1     -42.220  27.285   2.103  0.00  0.00    -0.280 N 
ATOM      6  C   UNL     1     -42.325  27.346   3.468  0.00  0.00    +0.107 C 
ATOM      7  C   UNL     1     -40.602  26.002   2.921  0.00  0.00    +0.067 C 
ATOM      8  C   UNL     1     -41.329  26.558   4.003  0.00  0.00    +0.035 C 
ATOM      9  C   UNL     1     -41.174  26.469   1.758  0.00  0.00    +0.080 C 
ATOM     10  C   UNL     1     -43.073  27.970   1.157  0.00  0.00    +0.117 C 
BRANCH   6  13
ATOM     11  O   UNL     1     -43.117  29.269   4.602  0.00  0.00    -0.269 OA
ATOM     12  N   UNL     1     -44.557  27.488   4.421  0.00  0.00    -0.300 N 
ATOM     13  C   UNL     1     -43.336  28.127   4.194  0.00  0.00    +0.260 C 
ATOM     14  H   UNL     1     -44.687  26.575   4.075  0.00  0.00    +0.150 HD
BRANCH  12  15
ATOM     15  C   UNL     1     -45.631  28.113   5.142  0.00  0.00    +0.088 C 
BRANCH  15  16
ATOM     16  C   UNL     1     -45.757  27.593   6.573  0.00  0.00    -0.002 C 
BRANCH  16  17
ATOM     17  C   UNL     1     -45.623  28.672   7.651  0.00  0.00    -0.076 C 
BRANCH  17  18
ATOM     18  N   UNL     1     -45.021  29.892   7.129  0.00  0.00    +0.384 N 
ATOM     19  C   UNL     1     -45.990  30.989   7.131  0.00  0.00    -0.101 C 
ATOM     20  C   UNL     1     -43.838  30.259   7.911  0.00  0.00    -0.101 C 
ATOM     21  H   UNL     1     -44.731  29.718   6.166  0.00  0.00    -0.080 HD
ENDBRANCH  17  18
ENDBRANCH  16  17
ENDBRANCH  15  16
ENDBRANCH  12  15
ENDBRANCH   6  13
ENDBRANCH   2   7
BRANCH   3  23
ATOM     22  N   UNL     1     -36.415  24.162   4.080  0.00  0.00    -0.280 N 
ATOM     23  C   UNL     1     -37.227  24.336   2.989  0.00  0.00    +0.107 C 
ATOM     24  C   UNL     1     -36.028  22.449   2.721  0.00  0.00    +0.067 C 
ATOM     25  C   UNL     1     -37.006  23.284   2.127  0.00  0.00    +0.035 C 
ATOM     26  C   UNL     1     -35.681  23.015   3.927  0.00  0.00    +0.080 C 
ATOM     27  C   UNL     1     -36.337  25.041   5.226  0.00  0.00    +0.117 C 
BRANCH  24  29
ATOM     28  O   UNL     1     -34.176  22.060   0.460  0.00  0.00    -0.268 OA
ATOM     29  N   UNL     1     -35.505  21.283   2.211  0.00  0.00    -0.278 N 
ATOM     30  C   UNL     1     -34.617  21.126   1.125  0.00  0.00    +0.263 C 
ATOM     31  H   UNL     1     -35.785  20.453   2.662  0.00  0.00    +0.155 HD
BRANCH  30  33
ATOM     32  N   UNL     1     -35.002  18.793   0.260  0.00  0.00    -0.280 N 
ATOM     33  C   UNL     1     -34.204  19.739   0.848  0.00  0.00    +0.107 C 
ATOM     34  C   UNL     1     -32.987  19.154   1.120  0.00  0.00    +0.035 C 
ATOM     35  C   UNL     1     -33.055  17.810   0.679  0.00  0.00    +0.067 C 
ATOM     36  C   UNL     1     -34.312  17.613   0.152  0.00  0.00    +0.080 C 
ATOM     37  C   UNL     1     -36.363  18.991  -0.189  0.00  0.00    +0.117 C 
BRANCH  35  39
ATOM     38  O   UNL     1     -30.446  17.577  -0.821  0.00  0.00    -0.265 OA
ATOM     39  N   UNL     1     -32.066  16.856   0.751  0.00  0.00    -0.276 N 
ATOM     40  C   UNL     1     -30.876  16.807   0.025  0.00  0.00    +0.304 C 
ATOM     41  H   UNL     1     -32.216  16.123   1.390  0.00  0.00    +0.155 HD
ENDBRANCH  35  39
ENDBRANCH  30  33
ENDBRANCH  24  29
ENDBRANCH   3  23
TORSDOF 10
ENDMDL
MODEL 3
REMARK VINA RESULT:      -6.4      4.715     12.724
REMARK  Name = 194211
REMARK  10 active torsions:
REMARK  status: ('A' for Active; 'I' for Inactive)
REMARK    1  A    between atoms: N_2  and  C_7
REMARK    2  A    between atoms: C_3  and  C_23
REMARK    3  A    between atoms: C_6  and  C_13
REMARK    4  A    between atoms: N_12  and  C_15
REMARK    5  A    between atoms: C_15  and  C_16
REMARK    6  A    between atoms: C_16  and  C_17
REMARK    7  A    between atoms: C_17  and  N_18
REMARK    8  A    between atoms: C_24  and  N_29
REMARK    9  A    between atoms: C_30  and  C_33
REMARK   10  A    between atoms: C_35  and  N_39
REMARK                            x       y       z     vdW  Elec       q    Type
REMARK                         _______ _______ _______ _____ _____    ______ ____
ROOT
ATOM      1  O   UNL     1     -32.298  26.206   3.413  0.00  0.00    -0.268 OA
ATOM      2  N   UNL     1     -34.465  26.309   4.269  0.00  0.00    -0.278 N 
ATOM      3  C   UNL     1     -33.259  26.870   3.796  0.00  0.00    +0.263 C 
ATOM      4  H   UNL     1     -35.158  26.950   4.547  0.00  0.00    +0.155 HD
ENDROOT
BRANCH   2   7
ATOM      5  N   UNL     1     -35.265  23.003   5.289  0.00  0.00    -0.280 N 
ATOM      6  C   UNL     1     -35.335  22.841   3.930  0.00  0.00    +0.107 C 
ATOM      7  C   UNL     1     -34.794  24.979   4.391  0.00  0.00    +0.067 C 
ATOM      8  C   UNL     1     -35.046  24.055   3.346  0.00  0.00    +0.035 C 
ATOM      9  C   UNL     1     -34.937  24.301   5.582  0.00  0.00    +0.080 C 
ATOM     10  C   UNL     1     -35.497  21.972   6.277  0.00  0.00    +0.117 C 
BRANCH   6  13
ATOM     11  O   UNL     1     -35.191  20.498   3.612  0.00  0.00    -0.269 OA
ATOM     12  N   UNL     1     -36.528  21.674   2.162  0.00  0.00    -0.300 N 
ATOM     13  C   UNL     1     -35.665  21.578   3.256  0.00  0.00    +0.260 C 
ATOM     14  H   UNL     1     -36.883  22.560   1.913  0.00  0.00    +0.150 HD
BRANCH  12  15
ATOM     15  C   UNL     1     -36.917  20.531   1.384  0.00  0.00    +0.088 C 
BRANCH  15  16
ATOM     16  C   UNL     1     -35.985  20.282   0.200  0.00  0.00    -0.002 C 
BRANCH  16  17
ATOM     17  C   UNL     1     -35.004  19.124   0.400  0.00  0.00    -0.076 C 
BRANCH  17  18
ATOM     18  N   UNL     1     -33.803  19.543   1.112  0.00  0.00    +0.384 N 
ATOM     19  C   UNL     1     -32.955  18.390   1.418  0.00  0.00    -0.101 C 
ATOM     20  C   UNL     1     -33.056  20.528   0.327  0.00  0.00    -0.101 C 
ATOM     21  H   UNL     1     -34.089  19.977   1.990  0.00  0.00    -0.080 HD
ENDBRANCH  17  18
ENDBRANCH  16  17
ENDBRANCH  15  16
ENDBRANCH  12  15
ENDBRANCH   6  13
ENDBRANCH   2   7
BRANCH   3  23
ATOM     22  N   UNL     1     -32.356  29.127   4.451  0.00  0.00    -0.280 N 
ATOM     23  C   UNL     1     -33.229  28.341   3.746  0.00  0.00    +0.107 C 
ATOM     24  C   UNL     1     -33.648  30.505   3.283  0.00  0.00    +0.067 C 
ATOM     25  C   UNL     1     -34.045  29.173   3.010  0.00  0.00    +0.035 C 
ATOM     26  C   UNL     1     -32.602  30.447   4.177  0.00  0.00    +0.080 C 
ATOM     27  C   UNL     1     -31.326  28.653   5.349  0.00  0.00    +0.117 C 
BRANCH  24  29
ATOM     28  O   UNL     1     -33.172  31.782   0.669  0.00  0.00    -0.268 OA
ATOM     29  N   UNL     1     -34.186  31.660   2.765  0.00  0.00    -0.278 N 
ATOM     30  C   UNL     1     -33.941  32.250   1.506  0.00  0.00    +0.263 C 
ATOM     31  H   UNL     1     -34.825  32.134   3.345  0.00  0.00    +0.155 HD
BRANCH  30  33
ATOM     32  N   UNL     1     -34.301  34.741   1.550  0.00  0.00    -0.280 N 
ATOM     33  C   UNL     1     -34.711  33.474   1.227  0.00  0.00    +0.107 C 
ATOM     34  C   UNL     1     -35.940  33.572   0.612  0.00  0.00    +0.035 C 
ATOM     35  C   UNL     1     -36.281  34.946   0.565  0.00  0.00    +0.067 C 
ATOM     36  C   UNL     1     -35.251  35.646   1.153  0.00  0.00    +0.080 C 
ATOM     37  C   UNL     1     -33.060  35.089   2.208  0.00  0.00    +0.117 C 
BRANCH  35  39
ATOM     38  O   UNL     1     -38.676  36.171   1.935  0.00  0.00    -0.265 OA
ATOM     39  N   UNL     1     -37.422  35.506   0.038  0.00  0.00    -0.276 N 
ATOM     40  C   UNL     1     -38.499  36.058   0.731  0.00  0.00    +0.304 C 
ATOM     41  H   UNL     1     -37.485  35.518  -0.944  0.00  0.00    +0.155 HD
ENDBRANCH  35  39
ENDBRANCH  30  33
ENDBRANCH  24  29
ENDBRANCH   3  23
TORSDOF 10
ENDMDL
MODEL 4
REMARK VINA RESULT:      -6.4      4.284     11.644
REMARK  Name = 194211
REMARK  10 active torsions:
REMARK  status: ('A' for Active; 'I' for Inactive)
REMARK    1  A    between atoms: N_2  and  C_7
REMARK    2  A    between atoms: C_3  and  C_23
REMARK    3  A    between atoms: C_6  and  C_13
REMARK    4  A    between atoms: N_12  and  C_15
REMARK    5  A    between atoms: C_15  and  C_16
REMARK    6  A    between atoms: C_16  and  C_17
REMARK    7  A    between atoms: C_17  and  N_18
REMARK    8  A    between atoms: C_24  and  N_29
REMARK    9  A    between atoms: C_30  and  C_33
REMARK   10  A    between atoms: C_35  and  N_39
REMARK                            x       y       z     vdW  Elec       q    Type
REMARK                         _______ _______ _______ _____ _____    ______ ____
ROOT
ATOM      1  O   UNL     1     -35.216  20.807   3.731  0.00  0.00    -0.268 OA
ATOM      2  N   UNL     1     -35.000  21.684   1.581  0.00  0.00    -0.278 N 
ATOM      3  C   UNL     1     -35.491  21.674   2.905  0.00  0.00    +0.263 C 
ATOM      4  H   UNL     1     -35.296  22.435   1.018  0.00  0.00    +0.155 HD
ENDROOT
BRANCH   2   7
ATOM      5  N   UNL     1     -32.462  19.921  -0.169  0.00  0.00    -0.280 N 
ATOM      6  C   UNL     1     -33.229  18.862   0.241  0.00  0.00    +0.107 C 
ATOM      7  C   UNL     1     -34.161  20.776   0.979  0.00  0.00    +0.067 C 
ATOM      8  C   UNL     1     -34.294  19.365   0.957  0.00  0.00    +0.035 C 
ATOM      9  C   UNL     1     -33.019  21.092   0.275  0.00  0.00    +0.080 C 
ATOM     10  C   UNL     1     -31.248  19.835  -0.951  0.00  0.00    +0.117 C 
BRANCH   6  13
ATOM     11  O   UNL     1     -32.162  16.785   0.639  0.00  0.00    -0.269 OA
ATOM     12  N   UNL     1     -33.551  16.920  -1.186  0.00  0.00    -0.300 N 
ATOM     13  C   UNL     1     -32.932  17.453  -0.053  0.00  0.00    +0.260 C 
ATOM     14  H   UNL     1     -34.160  17.492  -1.708  0.00  0.00    +0.150 HD
BRANCH  12  15
ATOM     15  C   UNL     1     -33.334  15.567  -1.617  0.00  0.00    +0.088 C 
BRANCH  15  16
ATOM     16  C   UNL     1     -34.579  14.695  -1.462  0.00  0.00    -0.002 C 
BRANCH  16  17
ATOM     17  C   UNL     1     -35.481  15.085  -0.287  0.00  0.00    -0.076 C 
BRANCH  17  18
ATOM     18  N   UNL     1     -36.893  15.031  -0.643  0.00  0.00    +0.384 N 
ATOM     19  C   UNL     1     -37.581  16.250  -0.213  0.00  0.00    -0.101 C 
ATOM     20  C   UNL     1     -37.054  14.839  -2.086  0.00  0.00    -0.101 C 
ATOM     21  H   UNL     1     -37.313  14.235  -0.162  0.00  0.00    -0.080 HD
ENDBRANCH  17  18
ENDBRANCH  16  17
ENDBRANCH  15  16
ENDBRANCH  12  15
ENDBRANCH   6  13
ENDBRANCH   2   7
BRANCH   3  23
ATOM     22  N   UNL     1     -35.909  23.935   3.932  0.00  0.00    -0.280 N 
ATOM     23  C   UNL     1     -36.344  22.820   3.266  0.00  0.00    +0.107 C 
ATOM     24  C   UNL     1     -38.075  24.231   3.545  0.00  0.00    +0.067 C 
ATOM     25  C   UNL     1     -37.689  22.978   3.012  0.00  0.00    +0.035 C 
ATOM     26  C   UNL     1     -36.955  24.802   4.107  0.00  0.00    +0.080 C 
ATOM     27  C   UNL     1     -34.556  24.178   4.383  0.00  0.00    +0.117 C 
BRANCH  24  29
ATOM     28  O   UNL     1     -39.008  26.639   2.122  0.00  0.00    -0.268 OA
ATOM     29  N   UNL     1     -39.328  24.800   3.519  0.00  0.00    -0.278 N 
ATOM     30  C   UNL     1     -39.748  25.956   2.826  0.00  0.00    +0.263 C 
ATOM     31  H   UNL     1     -40.019  24.341   4.049  0.00  0.00    +0.155 HD
BRANCH  30  33
ATOM     32  N   UNL     1     -42.153  25.907   2.083  0.00  0.00    -0.280 N 
ATOM     33  C   UNL     1     -41.176  26.286   2.966  0.00  0.00    +0.107 C 
ATOM     34  C   UNL     1     -41.776  27.013   3.972  0.00  0.00    +0.035 C 
ATOM     35  C   UNL     1     -43.161  27.071   3.682  0.00  0.00    +0.067 C 
ATOM     36  C   UNL     1     -43.366  26.380   2.509  0.00  0.00    +0.080 C 
ATOM     37  C   UNL     1     -41.952  25.125   0.882  0.00  0.00    +0.117 C 
BRANCH  35  39
ATOM     38  O   UNL     1     -43.408  29.940   4.585  0.00  0.00    -0.265 OA
ATOM     39  N   UNL     1     -44.143  27.694   4.418  0.00  0.00    -0.276 N 
ATOM     40  C   UNL     1     -44.197  29.033   4.804  0.00  0.00    +0.304 C 
ATOM     41  H   UNL     1     -44.895  27.128   4.705  0.00  0.00    +0.155 HD
ENDBRANCH  35  39
ENDBRANCH  30  33
ENDBRANCH  24  29
ENDBRANCH   3  23
TORSDOF 10
ENDMDL
MODEL 5
REMARK VINA RESULT:      -6.3      4.646     13.213
REMARK  Name = 194211
REMARK  10 active torsions:
REMARK  status: ('A' for Active; 'I' for Inactive)
REMARK    1  A    between atoms: N_2  and  C_7
REMARK    2  A    between atoms: C_3  and  C_23
REMARK    3  A    between atoms: C_6  and  C_13
REMARK    4  A    between atoms: N_12  and  C_15
REMARK    5  A    between atoms: C_15  and  C_16
REMARK    6  A    between atoms: C_16  and  C_17
REMARK    7  A    between atoms: C_17  and  N_18
REMARK    8  A    between atoms: C_24  and  N_29
REMARK    9  A    between atoms: C_30  and  C_33
REMARK   10  A    between atoms: C_35  and  N_39
REMARK                            x       y       z     vdW  Elec       q    Type
REMARK                         _______ _______ _______ _____ _____    ______ ____
ROOT
ATOM      1  O   UNL     1     -32.142  26.528   3.383  0.00  0.00    -0.268 OA
ATOM      2  N   UNL     1     -34.223  26.890   4.373  0.00  0.00    -0.278 N 
ATOM      3  C   UNL     1     -32.976  27.299   3.852  0.00  0.00    +0.263 C 
ATOM      4  H   UNL     1     -34.800  27.607   4.720  0.00  0.00    +0.155 HD
ENDROOT
BRANCH   2   7
ATOM      5  N   UNL     1     -35.277  23.617   5.260  0.00  0.00    -0.280 N 
ATOM      6  C   UNL     1     -35.738  23.659   3.970  0.00  0.00    +0.107 C 
ATOM      7  C   UNL     1     -34.731  25.614   4.457  0.00  0.00    +0.067 C 
ATOM      8  C   UNL     1     -35.411  24.891   3.446  0.00  0.00    +0.035 C 
ATOM      9  C   UNL     1     -34.662  24.802   5.568  0.00  0.00    +0.080 C 
ATOM     10  C   UNL     1     -35.408  22.500   6.169  0.00  0.00    +0.117 C 
BRANCH   6  13
ATOM     11  O   UNL     1     -37.673  22.568   3.148  0.00  0.00    -0.269 OA
ATOM     12  N   UNL     1     -35.663  21.489   2.876  0.00  0.00    -0.300 N 
ATOM     13  C   UNL     1     -36.451  22.561   3.302  0.00  0.00    +0.260 C 
ATOM     14  H   UNL     1     -34.689  21.528   3.020  0.00  0.00    +0.150 HD
BRANCH  12  15
ATOM     15  C   UNL     1     -36.221  20.330   2.235  0.00  0.00    +0.088 C 
BRANCH  15  16
ATOM     16  C   UNL     1     -35.359  19.829   1.077  0.00  0.00    -0.002 C 
BRANCH  16  17
ATOM     17  C   UNL     1     -33.903  19.539   1.452  0.00  0.00    -0.076 C 
BRANCH  17  18
ATOM     18  N   UNL     1     -33.533  18.157   1.175  0.00  0.00    +0.384 N 
ATOM     19  C   UNL     1     -34.091  17.720  -0.106  0.00  0.00    -0.101 C 
ATOM     20  C   UNL     1     -32.077  18.003   1.174  0.00  0.00    -0.101 C 
ATOM     21  H   UNL     1     -33.920  17.570   1.914  0.00  0.00    -0.080 HD
ENDBRANCH  17  18
ENDBRANCH  16  17
ENDBRANCH  15  16
ENDBRANCH  12  15
ENDBRANCH   6  13
ENDBRANCH   2   7
BRANCH   3  23
ATOM     22  N   UNL     1     -32.234  29.451   4.930  0.00  0.00    -0.280 N 
ATOM     23  C   UNL     1     -32.739  28.753   3.864  0.00  0.00    +0.107 C 
ATOM     24  C   UNL     1     -32.596  30.932   3.315  0.00  0.00    +0.067 C 
ATOM     25  C   UNL     1     -32.973  29.651   2.845  0.00  0.00    +0.035 C 
ATOM     26  C   UNL     1     -32.142  30.779   4.607  0.00  0.00    +0.080 C 
ATOM     27  C   UNL     1     -31.847  28.887   6.204  0.00  0.00    +0.117 C 
BRANCH  24  29
ATOM     28  O   UNL     1     -34.914  32.242   2.048  0.00  0.00    -0.268 OA
ATOM     29  N   UNL     1     -32.659  32.124   2.632  0.00  0.00    -0.278 N 
ATOM     30  C   UNL     1     -33.786  32.730   2.034  0.00  0.00    +0.263 C 
ATOM     31  H   UNL     1     -31.811  32.618   2.550  0.00  0.00    +0.155 HD
BRANCH  30  33
ATOM     32  N   UNL     1     -33.251  34.223   0.079  0.00  0.00    -0.280 N 
ATOM     33  C   UNL     1     -33.535  34.039   1.407  0.00  0.00    +0.107 C 
ATOM     34  C   UNL     1     -33.538  35.276   2.014  0.00  0.00    +0.035 C 
ATOM     35  C   UNL     1     -33.245  36.237   1.016  0.00  0.00    +0.067 C 
ATOM     36  C   UNL     1     -33.072  35.559  -0.170  0.00  0.00    +0.080 C 
ATOM     37  C   UNL     1     -33.154  33.182  -0.920  0.00  0.00    +0.117 C 
BRANCH  35  39
ATOM     38  O   UNL     1     -35.223  38.429   0.387  0.00  0.00    -0.265 OA
ATOM     39  N   UNL     1     -33.146  37.600   1.172  0.00  0.00    -0.276 N 
ATOM     40  C   UNL     1     -34.104  38.565   0.859  0.00  0.00    +0.304 C 
ATOM     41  H   UNL     1     -32.301  37.934   1.549  0.00  0.00    +0.155 HD
ENDBRANCH  35  39
ENDBRANCH  30  33
ENDBRANCH  24  29
ENDBRANCH   3  23
TORSDOF 10
ENDMDL
MODEL 6
REMARK VINA RESULT:      -6.2      4.638     11.344
REMARK  Name = 194211
REMARK  10 active torsions:
REMARK  status: ('A' for Active; 'I' for Inactive)
REMARK    1  A    between atoms: N_2  and  C_7
REMARK    2  A    between atoms: C_3  and  C_23
REMARK    3  A    between atoms: C_6  and  C_13
REMARK    4  A    between atoms: N_12  and  C_15
REMARK    5  A    between atoms: C_15  and  C_16
REMARK    6  A    between atoms: C_16  and  C_17
REMARK    7  A    between atoms: C_17  and  N_18
REMARK    8  A    between atoms: C_24  and  N_29
REMARK    9  A    between atoms: C_30  and  C_33
REMARK   10  A    between atoms: C_35  and  N_39
REMARK                            x       y       z     vdW  Elec       q    Type
REMARK                         _______ _______ _______ _____ _____    ______ ____
ROOT
ATOM      1  O   UNL     1     -34.914  22.964   0.903  0.00  0.00    -0.268 OA
ATOM      2  N   UNL     1     -35.877  21.122   1.961  0.00  0.00    -0.278 N 
ATOM      3  C   UNL     1     -35.710  22.503   1.718  0.00  0.00    +0.263 C 
ATOM      4  H   UNL     1     -36.548  20.883   2.641  0.00  0.00    +0.155 HD
ENDROOT
BRANCH   2   7
ATOM      5  N   UNL     1     -34.770  18.360   0.023  0.00  0.00    -0.280 N 
ATOM      6  C   UNL     1     -33.683  18.508   0.844  0.00  0.00    +0.107 C 
ATOM      7  C   UNL     1     -35.220  20.069   1.368  0.00  0.00    +0.067 C 
ATOM      8  C   UNL     1     -33.936  19.564   1.692  0.00  0.00    +0.035 C 
ATOM      9  C   UNL     1     -35.713  19.305   0.333  0.00  0.00    +0.080 C 
ATOM     10  C   UNL     1     -34.918  17.363  -1.015  0.00  0.00    +0.117 C 
BRANCH   6  13
ATOM     11  O   UNL     1     -32.537  16.438   0.750  0.00  0.00    -0.269 OA
ATOM     12  N   UNL     1     -31.257  18.344   0.831  0.00  0.00    -0.300 N 
ATOM     13  C   UNL     1     -32.479  17.667   0.794  0.00  0.00    +0.260 C 
ATOM     14  H   UNL     1     -31.260  19.328   0.865  0.00  0.00    +0.150 HD
BRANCH  12  15
ATOM     15  C   UNL     1     -29.995  17.656   0.820  0.00  0.00    +0.088 C 
BRANCH  15  16
ATOM     16  C   UNL     1     -29.432  17.487  -0.590  0.00  0.00    -0.002 C 
BRANCH  16  17
ATOM     17  C   UNL     1     -29.140  16.036  -0.984  0.00  0.00    -0.076 C 
BRANCH  17  18
ATOM     18  N   UNL     1     -30.273  15.160  -0.713  0.00  0.00    +0.384 N 
ATOM     19  C   UNL     1     -30.927  14.761  -1.961  0.00  0.00    -0.101 C 
ATOM     20  C   UNL     1     -29.842  13.977   0.035  0.00  0.00    -0.101 C 
ATOM     21  H   UNL     1     -30.945  15.675  -0.145  0.00  0.00    -0.080 HD
ENDBRANCH  17  18
ENDBRANCH  16  17
ENDBRANCH  15  16
ENDBRANCH  12  15
ENDBRANCH   6  13
ENDBRANCH   2   7
BRANCH   3  23
ATOM     22  N   UNL     1     -36.238  24.053   3.631  0.00  0.00    -0.280 N 
ATOM     23  C   UNL     1     -36.600  23.387   2.490  0.00  0.00    +0.107 C 
ATOM     24  C   UNL     1     -38.358  24.580   3.235  0.00  0.00    +0.067 C 
ATOM     25  C   UNL     1     -37.915  23.698   2.221  0.00  0.00    +0.035 C 
ATOM     26  C   UNL     1     -37.300  24.783   4.094  0.00  0.00    +0.080 C 
ATOM     27  C   UNL     1     -34.936  24.007   4.262  0.00  0.00    +0.117 C 
BRANCH  24  29
ATOM     28  O   UNL     1     -39.577  26.786   1.706  0.00  0.00    -0.268 OA
ATOM     29  N   UNL     1     -39.605  25.146   3.364  0.00  0.00    -0.278 N 
ATOM     30  C   UNL     1     -40.165  26.205   2.616  0.00  0.00    +0.263 C 
ATOM     31  H   UNL     1     -40.181  24.765   4.066  0.00  0.00    +0.155 HD
BRANCH  30  33
ATOM     32  N   UNL     1     -42.662  26.100   2.310  0.00  0.00    -0.280 N 
ATOM     33  C   UNL     1     -41.550  26.558   2.969  0.00  0.00    +0.107 C 
ATOM     34  C   UNL     1     -41.974  27.384   3.988  0.00  0.00    +0.035 C 
ATOM     35  C   UNL     1     -43.389  27.423   3.939  0.00  0.00    +0.067 C 
ATOM     36  C   UNL     1     -43.788  26.621   2.893  0.00  0.00    +0.080 C 
ATOM     37  C   UNL     1     -42.665  25.203   1.176  0.00  0.00    +0.117 C 
BRANCH  35  39
ATOM     38  O   UNL     1     -42.893  29.883   5.616  0.00  0.00    -0.265 OA
ATOM     39  N   UNL     1     -44.234  28.123   4.770  0.00  0.00    -0.276 N 
ATOM     40  C   UNL     1     -43.940  29.260   5.522  0.00  0.00    +0.304 C 
ATOM     41  H   UNL     1     -45.154  27.781   4.841  0.00  0.00    +0.155 HD
ENDBRANCH  35  39
ENDBRANCH  30  33
ENDBRANCH  24  29
ENDBRANCH   3  23
TORSDOF 10
ENDMDL
MODEL 7
REMARK VINA RESULT:      -6.2      5.185     11.966
REMARK  Name = 194211
REMARK  10 active torsions:
REMARK  status: ('A' for Active; 'I' for Inactive)
REMARK    1  A    between atoms: N_2  and  C_7
REMARK    2  A    between atoms: C_3  and  C_23
REMARK    3  A    between atoms: C_6  and  C_13
REMARK    4  A    between atoms: N_12  and  C_15
REMARK    5  A    between atoms: C_15  and  C_16
REMARK    6  A    between atoms: C_16  and  C_17
REMARK    7  A    between atoms: C_17  and  N_18
REMARK    8  A    between atoms: C_24  and  N_29
REMARK    9  A    between atoms: C_30  and  C_33
REMARK   10  A    between atoms: C_35  and  N_39
REMARK                            x       y       z     vdW  Elec       q    Type
REMARK                         _______ _______ _______ _____ _____    ______ ____
ROOT
ATOM      1  O   UNL     1     -38.226  23.556   3.376  0.00  0.00    -0.268 OA
ATOM      2  N   UNL     1     -38.654  25.843   3.545  0.00  0.00    -0.278 N 
ATOM      3  C   UNL     1     -37.851  24.688   3.674  0.00  0.00    +0.263 C 
ATOM      4  H   UNL     1     -38.236  26.690   3.820  0.00  0.00    +0.155 HD
ENDROOT
BRANCH   2   7
ATOM      5  N   UNL     1     -41.770  25.610   1.858  0.00  0.00    -0.280 N 
ATOM      6  C   UNL     1     -42.116  26.493   2.847  0.00  0.00    +0.107 C 
ATOM      7  C   UNL     1     -39.947  25.932   3.086  0.00  0.00    +0.067 C 
ATOM      8  C   UNL     1     -41.000  26.712   3.626  0.00  0.00    +0.035 C 
ATOM      9  C   UNL     1     -40.452  25.261   1.994  0.00  0.00    +0.080 C 
ATOM     10  C   UNL     1     -42.648  25.114   0.821  0.00  0.00    +0.117 C 
BRANCH   6  13
ATOM     11  O   UNL     1     -44.135  27.443   2.053  0.00  0.00    -0.269 OA
ATOM     12  N   UNL     1     -43.898  27.231   4.328  0.00  0.00    -0.300 N 
ATOM     13  C   UNL     1     -43.453  27.080   3.012  0.00  0.00    +0.260 C 
ATOM     14  H   UNL     1     -43.317  26.925   5.063  0.00  0.00    +0.150 HD
BRANCH  12  15
ATOM     15  C   UNL     1     -45.170  27.816   4.649  0.00  0.00    +0.088 C 
BRANCH  15  16
ATOM     16  C   UNL     1     -45.034  29.126   5.422  0.00  0.00    -0.002 C 
BRANCH  16  17
ATOM     17  C   UNL     1     -43.592  29.613   5.592  0.00  0.00    -0.076 C 
BRANCH  17  18
ATOM     18  N   UNL     1     -43.496  30.706   6.552  0.00  0.00    +0.384 N 
ATOM     19  C   UNL     1     -44.254  31.870   6.088  0.00  0.00    -0.101 C 
ATOM     20  C   UNL     1     -43.975  30.280   7.869  0.00  0.00    -0.101 C 
ATOM     21  H   UNL     1     -42.514  30.971   6.635  0.00  0.00    -0.080 HD
ENDBRANCH  17  18
ENDBRANCH  16  17
ENDBRANCH  15  16
ENDBRANCH  12  15
ENDBRANCH   6  13
ENDBRANCH   2   7
BRANCH   3  23
ATOM     22  N   UNL     1     -35.547  23.948   4.370  0.00  0.00    -0.280 N 
ATOM     23  C   UNL     1     -36.482  24.928   4.161  0.00  0.00    +0.107 C 
ATOM     24  C   UNL     1     -34.580  25.873   4.907  0.00  0.00    +0.067 C 
ATOM     25  C   UNL     1     -35.906  26.136   4.488  0.00  0.00    +0.035 C 
ATOM     26  C   UNL     1     -34.385  24.513   4.824  0.00  0.00    +0.080 C 
ATOM     27  C   UNL     1     -35.740  22.532   4.146  0.00  0.00    +0.117 C 
BRANCH  24  29
ATOM     28  O   UNL     1     -32.345  27.074   3.406  0.00  0.00    -0.268 OA
ATOM     29  N   UNL     1     -33.639  26.787   5.324  0.00  0.00    -0.278 N 
ATOM     30  C   UNL     1     -32.577  27.347   4.582  0.00  0.00    +0.263 C 
ATOM     31  H   UNL     1     -33.717  27.089   6.258  0.00  0.00    +0.155 HD
BRANCH  30  33
ATOM     32  N   UNL     1     -31.808  29.690   5.088  0.00  0.00    -0.280 N 
ATOM     33  C   UNL     1     -31.761  28.337   5.304  0.00  0.00    +0.107 C 
ATOM     34  C   UNL     1     -30.831  28.100   6.293  0.00  0.00    +0.035 C 
ATOM     35  C   UNL     1     -30.302  29.354   6.685  0.00  0.00    +0.067 C 
ATOM     36  C   UNL     1     -30.923  30.319   5.924  0.00  0.00    +0.080 C 
ATOM     37  C   UNL     1     -32.657  30.367   4.133  0.00  0.00    +0.117 C 
BRANCH  35  39
ATOM     38  O   UNL     1     -27.538  28.192   7.028  0.00  0.00    -0.265 OA
ATOM     39  N   UNL     1     -29.346  29.594   7.645  0.00  0.00    -0.276 N 
ATOM     40  C   UNL     1     -28.079  29.018   7.747  0.00  0.00    +0.304 C 
ATOM     41  H   UNL     1     -29.583  30.247   8.341  0.00  0.00    +0.155 HD
ENDBRANCH  35  39
ENDBRANCH  30  33
ENDBRANCH  24  29
ENDBRANCH   3  23
TORSDOF 10
ENDMDL
MODEL 8
REMARK VINA RESULT:      -6.2      2.436     11.791
REMARK  Name = 194211
REMARK  10 active torsions:
REMARK  status: ('A' for Active; 'I' for Inactive)
REMARK    1  A    between atoms: N_2  and  C_7
REMARK    2  A    between atoms: C_3  and  C_23
REMARK    3  A    between atoms: C_6  and  C_13
REMARK    4  A    between atoms: N_12  and  C_15
REMARK    5  A    between atoms: C_15  and  C_16
REMARK    6  A    between atoms: C_16  and  C_17
REMARK    7  A    between atoms: C_17  and  N_18
REMARK    8  A    between atoms: C_24  and  N_29
REMARK    9  A    between atoms: C_30  and  C_33
REMARK   10  A    between atoms: C_35  and  N_39
REMARK                            x       y       z     vdW  Elec       q    Type
REMARK                         _______ _______ _______ _____ _____    ______ ____
ROOT
ATOM      1  O   UNL     1     -35.920  21.804   4.224  0.00  0.00    -0.268 OA
ATOM      2  N   UNL     1     -35.652  22.562   2.034  0.00  0.00    -0.278 N 
ATOM      3  C   UNL     1     -35.702  22.722   3.436  0.00  0.00    +0.263 C 
ATOM      4  H   UNL     1     -35.470  23.378   1.515  0.00  0.00    +0.155 HD
ENDROOT
BRANCH   2   7
ATOM      5  N   UNL     1     -36.802  19.719   0.244  0.00  0.00    -0.280 N 
ATOM      6  C   UNL     1     -35.451  19.540   0.106  0.00  0.00    +0.107 C 
ATOM      7  C   UNL     1     -35.827  21.410   1.303  0.00  0.00    +0.067 C 
ATOM      8  C   UNL     1     -34.819  20.577   0.756  0.00  0.00    +0.035 C 
ATOM      9  C   UNL     1     -37.043  20.856   0.971  0.00  0.00    +0.080 C 
ATOM     10  C   UNL     1     -37.830  18.851  -0.287  0.00  0.00    +0.117 C 
BRANCH   6  13
ATOM     11  O   UNL     1     -34.487  18.512  -1.798  0.00  0.00    -0.269 OA
ATOM     12  N   UNL     1     -34.668  17.237   0.105  0.00  0.00    -0.300 N 
ATOM     13  C   UNL     1     -34.827  18.423  -0.617  0.00  0.00    +0.260 C 
ATOM     14  H   UNL     1     -34.955  17.213   1.047  0.00  0.00    +0.150 HD
BRANCH  12  15
ATOM     15  C   UNL     1     -34.103  16.051  -0.476  0.00  0.00    +0.088 C 
BRANCH  15  16
ATOM     16  C   UNL     1     -32.722  15.723   0.090  0.00  0.00    -0.002 C 
BRANCH  16  17
ATOM     17  C   UNL     1     -31.607  16.661  -0.380  0.00  0.00    -0.076 C 
BRANCH  17  18
ATOM     18  N   UNL     1     -31.026  17.414   0.725  0.00  0.00    +0.384 N 
ATOM     19  C   UNL     1     -29.566  17.305   0.713  0.00  0.00    -0.101 C 
ATOM     20  C   UNL     1     -31.431  18.820   0.661  0.00  0.00    -0.101 C 
ATOM     21  H   UNL     1     -31.373  17.016   1.598  0.00  0.00    -0.080 HD
ENDBRANCH  17  18
ENDBRANCH  16  17
ENDBRANCH  15  16
ENDBRANCH  12  15
ENDBRANCH   6  13
ENDBRANCH   2   7
BRANCH   3  23
ATOM     22  N   UNL     1     -36.369  25.078   4.025  0.00  0.00    -0.280 N 
ATOM     23  C   UNL     1     -35.429  24.086   3.922  0.00  0.00    +0.107 C 
ATOM     24  C   UNL     1     -34.446  25.949   4.715  0.00  0.00    +0.067 C 
ATOM     25  C   UNL     1     -34.224  24.601   4.345  0.00  0.00    +0.035 C 
ATOM     26  C   UNL     1     -35.781  26.218   4.508  0.00  0.00    +0.080 C 
ATOM     27  C   UNL     1     -37.770  24.957   3.686  0.00  0.00    +0.117 C 
BRANCH  24  29
ATOM     28  O   UNL     1     -32.531  27.636   3.239  0.00  0.00    -0.268 OA
ATOM     29  N   UNL     1     -33.522  26.847   5.197  0.00  0.00    -0.278 N 
ATOM     30  C   UNL     1     -32.615  27.644   4.465  0.00  0.00    +0.263 C 
ATOM     31  H   UNL     1     -33.489  26.946   6.176  0.00  0.00    +0.155 HD
BRANCH  30  33
ATOM     32  N   UNL     1     -31.791  29.911   5.187  0.00  0.00    -0.280 N 
ATOM     33  C   UNL     1     -31.776  28.543   5.276  0.00  0.00    +0.107 C 
ATOM     34  C   UNL     1     -30.852  28.193   6.236  0.00  0.00    +0.035 C 
ATOM     35  C   UNL     1     -30.294  29.392   6.743  0.00  0.00    +0.067 C 
ATOM     36  C   UNL     1     -30.891  30.438   6.076  0.00  0.00    +0.080 C 
ATOM     37  C   UNL     1     -32.624  30.694   4.300  0.00  0.00    +0.117 C 
BRANCH  35  39
ATOM     38  O   UNL     1     -27.319  29.848   6.513  0.00  0.00    -0.265 OA
ATOM     39  N   UNL     1     -29.332  29.518   7.719  0.00  0.00    -0.276 N 
ATOM     40  C   UNL     1     -27.964  29.729   7.544  0.00  0.00    +0.304 C 
ATOM     41  H   UNL     1     -29.646  29.452   8.649  0.00  0.00    +0.155 HD
ENDBRANCH  35  39
ENDBRANCH  30  33
ENDBRANCH  24  29
ENDBRANCH   3  23
TORSDOF 10
ENDMDL
MODEL 9
REMARK VINA RESULT:      -6.2      5.153      8.781
REMARK  Name = 194211
REMARK  10 active torsions:
REMARK  status: ('A' for Active; 'I' for Inactive)
REMARK    1  A    between atoms: N_2  and  C_7
REMARK    2  A    between atoms: C_3  and  C_23
REMARK    3  A    between atoms: C_6  and  C_13
REMARK    4  A    between atoms: N_12  and  C_15
REMARK    5  A    between atoms: C_15  and  C_16
REMARK    6  A    between atoms: C_16  and  C_17
REMARK    7  A    between atoms: C_17  and  N_18
REMARK    8  A    between atoms: C_24  and  N_29
REMARK    9  A    between atoms: C_30  and  C_33
REMARK   10  A    between atoms: C_35  and  N_39
REMARK                            x       y       z     vdW  Elec       q    Type
REMARK                         _______ _______ _______ _____ _____    ______ ____
ROOT
ATOM      1  O   UNL     1     -36.796  25.306   2.531  0.00  0.00    -0.268 OA
ATOM      2  N   UNL     1     -38.775  24.089   2.736  0.00  0.00    -0.278 N 
ATOM      3  C   UNL     1     -37.371  24.229   2.666  0.00  0.00    +0.263 C 
ATOM      4  H   UNL     1     -39.110  23.170   2.844  0.00  0.00    +0.155 HD
ENDROOT
BRANCH   2   7
ATOM      5  N   UNL     1     -41.106  26.622   1.866  0.00  0.00    -0.280 N 
ATOM      6  C   UNL     1     -41.311  26.583   3.221  0.00  0.00    +0.107 C 
ATOM      7  C   UNL     1     -39.732  25.074   2.672  0.00  0.00    +0.067 C 
ATOM      8  C   UNL     1     -40.469  25.629   3.748  0.00  0.00    +0.035 C 
ATOM      9  C   UNL     1     -40.146  25.707   1.521  0.00  0.00    +0.080 C 
ATOM     10  C   UNL     1     -41.786  27.491   0.931  0.00  0.00    +0.117 C 
BRANCH   6  13
ATOM     11  O   UNL     1     -41.946  28.492   4.471  0.00  0.00    -0.269 OA
ATOM     12  N   UNL     1     -43.579  26.939   4.024  0.00  0.00    -0.300 N 
ATOM     13  C   UNL     1     -42.272  27.428   3.943  0.00  0.00    +0.260 C 
ATOM     14  H   UNL     1     -43.793  26.083   3.586  0.00  0.00    +0.150 HD
BRANCH  12  15
ATOM     15  C   UNL     1     -44.621  27.638   4.724  0.00  0.00    +0.088 C 
BRANCH  15  16
ATOM     16  C   UNL     1     -45.648  26.692   5.343  0.00  0.00    -0.002 C 
BRANCH  16  17
ATOM     17  C   UNL     1     -45.888  26.911   6.839  0.00  0.00    -0.076 C 
BRANCH  17  18
ATOM     18  N   UNL     1     -47.306  26.860   7.177  0.00  0.00    +0.384 N 
ATOM     19  C   UNL     1     -48.064  27.815   6.367  0.00  0.00    -0.101 C 
ATOM     20  C   UNL     1     -47.831  25.506   6.990  0.00  0.00    -0.101 C 
ATOM     21  H   UNL     1     -47.408  27.115   8.159  0.00  0.00    -0.080 HD
ENDBRANCH  17  18
ENDBRANCH  16  17
ENDBRANCH  15  16
ENDBRANCH  12  15
ENDBRANCH   6  13
ENDBRANCH   2   7
BRANCH   3  23
ATOM     22  N   UNL     1     -35.946  22.594   3.946  0.00  0.00    -0.280 N 
ATOM     23  C   UNL     1     -36.608  22.977   2.809  0.00  0.00    +0.107 C 
ATOM     24  C   UNL     1     -35.621  20.985   2.450  0.00  0.00    +0.067 C 
ATOM     25  C   UNL     1     -36.422  21.994   1.862  0.00  0.00    +0.035 C 
ATOM     26  C   UNL     1     -35.341  21.383   3.739  0.00  0.00    +0.080 C 
ATOM     27  C   UNL     1     -35.888  23.340   5.184  0.00  0.00    +0.117 C 
BRANCH  24  29
ATOM     28  O   UNL     1     -33.586  20.581   0.356  0.00  0.00    -0.268 OA
ATOM     29  N   UNL     1     -35.188  19.817   1.868  0.00  0.00    -0.278 N 
ATOM     30  C   UNL     1     -34.209  19.652   0.865  0.00  0.00    +0.263 C 
ATOM     31  H   UNL     1     -35.615  18.991   2.193  0.00  0.00    +0.155 HD
BRANCH  30  33
ATOM     32  N   UNL     1     -34.795  17.470  -0.247  0.00  0.00    -0.280 N 
ATOM     33  C   UNL     1     -33.937  18.257   0.477  0.00  0.00    +0.107 C 
ATOM     34  C   UNL     1     -32.815  17.508   0.760  0.00  0.00    +0.035 C 
ATOM     35  C   UNL     1     -33.005  16.228   0.185  0.00  0.00    +0.067 C 
ATOM     36  C   UNL     1     -34.237  16.232  -0.431  0.00  0.00    +0.080 C 
ATOM     37  C   UNL     1     -36.090  17.869  -0.752  0.00  0.00    +0.117 C 
BRANCH  35  39
ATOM     38  O   UNL     1     -30.400  15.773  -1.269  0.00  0.00    -0.265 OA
ATOM     39  N   UNL     1     -32.138  15.160   0.220  0.00  0.00    -0.276 N 
ATOM     40  C   UNL     1     -30.942  15.012  -0.483  0.00  0.00    +0.304 C 
ATOM     41  H   UNL     1     -32.392  14.414   0.809  0.00  0.00    +0.155 HD
ENDBRANCH  35  39
ENDBRANCH  30  33
ENDBRANCH  24  29
ENDBRANCH   3  23
TORSDOF 10
ENDMDL
