MODEL 1
REMARK VINA RESULT:      -6.5      0.000      0.000
REMARK  Name = 195456
REMARK  6 active torsions:
REMARK  status: ('A' for Active; 'I' for Inactive)
REMARK    1  A    between atoms: C_5  and  N_19
REMARK    2  A    between atoms: C_11  and  C_16
REMARK    3  A    between atoms: N_19  and  O_20
REMARK    4  A    between atoms: N_19  and  C_22
REMARK    5  A    between atoms: C_22  and  C_23
REMARK    6  A    between atoms: C_23  and  C_26
REMARK                            x       y       z     vdW  Elec       q    Type
REMARK                         _______ _______ _______ _____ _____    ______ ____
ROOT
ATOM      1  O   UNL     1     -36.528  25.321   2.923  0.00  0.00    -0.443 OA
ATOM      2  O   UNL     1     -35.975  21.870   4.893  0.00  0.00    -0.274 OA
ATOM      3  O   UNL     1     -38.457  24.338   3.726  0.00  0.00    -0.250 OA
ATOM      4  N   UNL     1     -34.715  23.471   3.781  0.00  0.00    -0.303 N 
ATOM      5  C   UNL     1     -35.808  21.749   2.480  0.00  0.00    +0.160 C 
ATOM      6  C   UNL     1     -37.243  22.087   2.034  0.00  0.00    +0.039 C 
ATOM      7  C   UNL     1     -37.457  23.561   1.667  0.00  0.00    +0.112 C 
ATOM      8  C   UNL     1     -35.508  22.334   3.855  0.00  0.00    +0.239 C 
ATOM      9  C   UNL     1     -35.741  25.188   5.267  0.00  0.00    +0.074 C 
ATOM     10  C   UNL     1     -34.497  24.359   4.907  0.00  0.00    +0.094 C 
ATOM     11  C   UNL     1     -36.325  26.054   4.138  0.00  0.00    +0.245 C 
ATOM     12  C   UNL     1     -37.574  24.445   2.886  0.00  0.00    +0.317 C 
ATOM     13  H   UNL     1     -34.281  23.684   2.923  0.00  0.00    +0.149 HD
ENDROOT
BRANCH  11  16
ATOM     14  O   UNL     1     -34.402  27.427   4.468  0.00  0.00    -0.271 OA
ATOM     15  N   UNL     1     -35.707  27.804   2.609  0.00  0.00    -0.326 N 
ATOM     16  C   UNL     1     -35.375  27.147   3.772  0.00  0.00    +0.260 C 
ATOM     17  H   UNL     1     -35.142  28.541   2.283  0.00  0.00    +0.145 HD
ATOM     18  H   UNL     1     -36.509  27.536   2.106  0.00  0.00    +0.145 HD
ENDBRANCH  11  16
BRANCH   5  19
ATOM     19  N   UNL     1     -35.653  20.299   2.604  0.00  0.00    -0.162 NA
BRANCH  19  20
ATOM     20  O   UNL     1     -37.012  19.798   2.700  0.00  0.00    -0.311 OA
ATOM     21  H   UNL     1     -37.524  20.365   3.298  0.00  0.00    +0.237 HD
ENDBRANCH  19  20
BRANCH  19  22
ATOM     22  C   UNL     1     -35.134  19.725   1.368  0.00  0.00    +0.111 C 
BRANCH  22  23
ATOM     23  C   UNL     1     -33.624  19.539   1.464  0.00  0.00    +0.105 C 
BRANCH  23  26
ATOM     24  O   UNL     1     -32.087  17.662   1.415  0.00  0.00    -0.275 OA
ATOM     25  N   UNL     1     -34.204  17.386   0.559  0.00  0.00    -0.329 N 
ATOM     26  C   UNL     1     -33.199  18.116   1.157  0.00  0.00    +0.221 C 
ATOM     27  H   UNL     1     -34.049  16.446   0.312  0.00  0.00    +0.145 HD
ATOM     28  H   UNL     1     -35.076  17.805   0.380  0.00  0.00    +0.145 HD
ENDBRANCH  23  26
ENDBRANCH  22  23
ENDBRANCH  19  22
ENDBRANCH   5  19
TORSDOF 6
ENDMDL
MODEL 2
REMARK VINA RESULT:      -6.4      3.701      7.537
REMARK  Name = 195456
REMARK  6 active torsions:
REMARK  status: ('A' for Active; 'I' for Inactive)
REMARK    1  A    between atoms: C_5  and  N_19
REMARK    2  A    between atoms: C_11  and  C_16
REMARK    3  A    between atoms: N_19  and  O_20
REMARK    4  A    between atoms: N_19  and  C_22
REMARK    5  A    between atoms: C_22  and  C_23
REMARK    6  A    between atoms: C_23  and  C_26
REMARK                            x       y       z     vdW  Elec       q    Type
REMARK                         _______ _______ _______ _____ _____    ______ ____
ROOT
ATOM      1  O   UNL     1     -37.239  23.142   3.671  0.00  0.00    -0.443 OA
ATOM      2  O   UNL     1     -37.933  26.702   1.956  0.00  0.00    -0.274 OA
ATOM      3  O   UNL     1     -37.105  23.156   1.366  0.00  0.00    -0.250 OA
ATOM      4  N   UNL     1     -37.871  25.765   4.079  0.00  0.00    -0.303 N 
ATOM      5  C   UNL     1     -39.886  25.519   2.764  0.00  0.00    +0.160 C 
ATOM      6  C   UNL     1     -39.917  24.276   1.854  0.00  0.00    +0.039 C 
ATOM      7  C   UNL     1     -39.255  23.034   2.463  0.00  0.00    +0.112 C 
ATOM      8  C   UNL     1     -38.475  26.085   2.871  0.00  0.00    +0.239 C 
ATOM      9  C   UNL     1     -35.567  24.965   3.565  0.00  0.00    +0.074 C 
ATOM     10  C   UNL     1     -36.455  25.960   4.332  0.00  0.00    +0.094 C 
ATOM     11  C   UNL     1     -35.852  23.475   3.814  0.00  0.00    +0.245 C 
ATOM     12  C   UNL     1     -37.747  23.100   2.406  0.00  0.00    +0.317 C 
ATOM     13  H   UNL     1     -38.429  25.388   4.797  0.00  0.00    +0.149 HD
ENDROOT
BRANCH  11  16
ATOM     14  O   UNL     1     -34.789  23.806   5.924  0.00  0.00    -0.271 OA
ATOM     15  N   UNL     1     -36.065  21.913   5.630  0.00  0.00    -0.326 N 
ATOM     16  C   UNL     1     -35.512  23.104   5.221  0.00  0.00    +0.260 C 
ATOM     17  H   UNL     1     -35.900  21.582   6.542  0.00  0.00    +0.145 HD
ATOM     18  H   UNL     1     -36.626  21.393   5.010  0.00  0.00    +0.145 HD
ENDBRANCH  11  16
BRANCH   5  19
ATOM     19  N   UNL     1     -40.716  26.578   2.190  0.00  0.00    -0.162 NA
BRANCH  19  20
ATOM     20  O   UNL     1     -40.599  26.391   0.755  0.00  0.00    -0.311 OA
ATOM     21  H   UNL     1     -40.701  25.450   0.542  0.00  0.00    +0.237 HD
ENDBRANCH  19  20
BRANCH  19  22
ATOM     22  C   UNL     1     -42.127  26.347   2.479  0.00  0.00    +0.111 C 
BRANCH  22  23
ATOM     23  C   UNL     1     -42.473  26.865   3.870  0.00  0.00    +0.105 C 
BRANCH  23  26
ATOM     24  O   UNL     1     -42.131  29.049   4.867  0.00  0.00    -0.275 OA
ATOM     25  N   UNL     1     -43.094  28.920   2.783  0.00  0.00    -0.329 N 
ATOM     26  C   UNL     1     -42.535  28.379   3.921  0.00  0.00    +0.221 C 
ATOM     27  H   UNL     1     -43.188  29.895   2.697  0.00  0.00    +0.145 HD
ATOM     28  H   UNL     1     -43.398  28.330   2.056  0.00  0.00    +0.145 HD
ENDBRANCH  23  26
ENDBRANCH  22  23
ENDBRANCH  19  22
ENDBRANCH   5  19
TORSDOF 6
ENDMDL
MODEL 3
REMARK VINA RESULT:      -6.4      3.471      4.683
REMARK  Name = 195456
REMARK  6 active torsions:
REMARK  status: ('A' for Active; 'I' for Inactive)
REMARK    1  A    between atoms: C_5  and  N_19
REMARK    2  A    between atoms: C_11  and  C_16
REMARK    3  A    between atoms: N_19  and  O_20
REMARK    4  A    between atoms: N_19  and  C_22
REMARK    5  A    between atoms: C_22  and  C_23
REMARK    6  A    between atoms: C_23  and  C_26
REMARK                            x       y       z     vdW  Elec       q    Type
REMARK                         _______ _______ _______ _____ _____    ______ ____
ROOT
ATOM      1  O   UNL     1     -34.365  27.477   4.376  0.00  0.00    -0.443 OA
ATOM      2  O   UNL     1     -34.519  24.030   2.330  0.00  0.00    -0.274 OA
ATOM      3  O   UNL     1     -33.497  25.648   5.484  0.00  0.00    -0.250 OA
ATOM      4  N   UNL     1     -35.130  26.253   2.061  0.00  0.00    -0.303 N 
ATOM      5  C   UNL     1     -36.612  24.786   3.287  0.00  0.00    +0.160 C 
ATOM      6  C   UNL     1     -36.331  24.700   4.799  0.00  0.00    +0.039 C 
ATOM      7  C   UNL     1     -35.884  26.023   5.432  0.00  0.00    +0.112 C 
ATOM      8  C   UNL     1     -35.318  24.949   2.497  0.00  0.00    +0.239 C 
ATOM      9  C   UNL     1     -32.773  26.875   2.578  0.00  0.00    +0.074 C 
ATOM     10  C   UNL     1     -33.874  26.731   1.514  0.00  0.00    +0.094 C 
ATOM     11  C   UNL     1     -33.102  27.786   3.772  0.00  0.00    +0.245 C 
ATOM     12  C   UNL     1     -34.439  26.344   5.132  0.00  0.00    +0.317 C 
ATOM     13  H   UNL     1     -35.884  26.883   2.125  0.00  0.00    +0.149 HD
ENDROOT
BRANCH  11  16
ATOM     14  O   UNL     1     -32.254  29.872   2.984  0.00  0.00    -0.271 OA
ATOM     15  N   UNL     1     -34.517  29.687   3.359  0.00  0.00    -0.326 N 
ATOM     16  C   UNL     1     -33.228  29.207   3.327  0.00  0.00    +0.260 C 
ATOM     17  H   UNL     1     -34.704  30.613   3.083  0.00  0.00    +0.145 HD
ATOM     18  H   UNL     1     -35.251  29.103   3.656  0.00  0.00    +0.145 HD
ENDBRANCH  11  16
BRANCH   5  19
ATOM     19  N   UNL     1     -37.227  23.542   2.822  0.00  0.00    -0.162 NA
BRANCH  19  20
ATOM     20  O   UNL     1     -36.950  22.586   3.879  0.00  0.00    -0.311 OA
ATOM     21  H   UNL     1     -36.866  23.054   4.724  0.00  0.00    +0.237 HD
ENDBRANCH  19  20
BRANCH  19  22
ATOM     22  C   UNL     1     -38.681  23.659   2.801  0.00  0.00    +0.111 C 
BRANCH  22  23
ATOM     23  C   UNL     1     -39.243  23.033   1.530  0.00  0.00    +0.105 C 
BRANCH  23  26
ATOM     24  O   UNL     1     -40.616  21.034   1.484  0.00  0.00    -0.275 OA
ATOM     25  N   UNL     1     -38.408  20.850   2.100  0.00  0.00    -0.329 N 
ATOM     26  C   UNL     1     -39.522  21.552   1.693  0.00  0.00    +0.221 C 
ATOM     27  H   UNL     1     -38.463  19.878   2.241  0.00  0.00    +0.145 HD
ATOM     28  H   UNL     1     -37.557  21.322   2.250  0.00  0.00    +0.145 HD
ENDBRANCH  23  26
ENDBRANCH  22  23
ENDBRANCH  19  22
ENDBRANCH   5  19
TORSDOF 6
ENDMDL
MODEL 4
REMARK VINA RESULT:      -6.2      4.438      7.328
REMARK  Name = 195456
REMARK  6 active torsions:
REMARK  status: ('A' for Active; 'I' for Inactive)
REMARK    1  A    between atoms: C_5  and  N_19
REMARK    2  A    between atoms: C_11  and  C_16
REMARK    3  A    between atoms: N_19  and  O_20
REMARK    4  A    between atoms: N_19  and  C_22
REMARK    5  A    between atoms: C_22  and  C_23
REMARK    6  A    between atoms: C_23  and  C_26
REMARK                            x       y       z     vdW  Elec       q    Type
REMARK                         _______ _______ _______ _____ _____    ______ ____
ROOT
ATOM      1  O   UNL     1     -36.242  26.008   2.315  0.00  0.00    -0.443 OA
ATOM      2  O   UNL     1     -33.365  25.641   5.085  0.00  0.00    -0.274 OA
ATOM      3  O   UNL     1     -34.570  24.504   1.790  0.00  0.00    -0.250 OA
ATOM      4  N   UNL     1     -35.318  26.846   4.741  0.00  0.00    -0.303 N 
ATOM      5  C   UNL     1     -33.273  27.642   3.724  0.00  0.00    +0.160 C 
ATOM      6  C   UNL     1     -32.983  27.073   2.323  0.00  0.00    +0.039 C 
ATOM      7  C   UNL     1     -34.231  26.874   1.454  0.00  0.00    +0.112 C 
ATOM      8  C   UNL     1     -33.958  26.605   4.607  0.00  0.00    +0.239 C 
ATOM      9  C   UNL     1     -36.492  24.677   4.387  0.00  0.00    +0.074 C 
ATOM     10  C   UNL     1     -36.240  25.881   5.310  0.00  0.00    +0.094 C 
ATOM     11  C   UNL     1     -37.019  25.003   2.980  0.00  0.00    +0.245 C 
ATOM     12  C   UNL     1     -35.014  25.643   1.846  0.00  0.00    +0.317 C 
ATOM     13  H   UNL     1     -35.673  27.712   4.436  0.00  0.00    +0.149 HD
ENDROOT
BRANCH  11  16
ATOM     14  O   UNL     1     -38.690  26.647   2.536  0.00  0.00    -0.271 OA
ATOM     15  N   UNL     1     -39.282  24.795   3.766  0.00  0.00    -0.326 N 
ATOM     16  C   UNL     1     -38.398  25.573   3.055  0.00  0.00    +0.260 C 
ATOM     17  H   UNL     1     -40.217  25.085   3.873  0.00  0.00    +0.145 HD
ATOM     18  H   UNL     1     -38.979  23.949   4.168  0.00  0.00    +0.145 HD
ENDBRANCH  11  16
BRANCH   5  19
ATOM     19  N   UNL     1     -32.017  27.990   4.391  0.00  0.00    -0.162 NA
BRANCH  19  20
ATOM     20  O   UNL     1     -30.997  27.302   3.620  0.00  0.00    -0.311 OA
ATOM     21  H   UNL     1     -31.343  26.449   3.315  0.00  0.00    +0.237 HD
ENDBRANCH  19  20
BRANCH  19  22
ATOM     22  C   UNL     1     -31.715  29.407   4.223  0.00  0.00    +0.111 C 
BRANCH  22  23
ATOM     23  C   UNL     1     -31.843  30.136   5.555  0.00  0.00    +0.105 C 
BRANCH  23  26
ATOM     24  O   UNL     1     -30.105  29.460   7.106  0.00  0.00    -0.275 OA
ATOM     25  N   UNL     1     -32.173  28.465   7.255  0.00  0.00    -0.329 N 
ATOM     26  C   UNL     1     -31.260  29.339   6.706  0.00  0.00    +0.221 C 
ATOM     27  H   UNL     1     -31.912  27.891   8.010  0.00  0.00    +0.145 HD
ATOM     28  H   UNL     1     -33.086  28.415   6.890  0.00  0.00    +0.145 HD
ENDBRANCH  23  26
ENDBRANCH  22  23
ENDBRANCH  19  22
ENDBRANCH   5  19
TORSDOF 6
ENDMDL
MODEL 5
REMARK VINA RESULT:      -6.2      2.471      6.959
REMARK  Name = 195456
REMARK  6 active torsions:
REMARK  status: ('A' for Active; 'I' for Inactive)
REMARK    1  A    between atoms: C_5  and  N_19
REMARK    2  A    between atoms: C_11  and  C_16
REMARK    3  A    between atoms: N_19  and  O_20
REMARK    4  A    between atoms: N_19  and  C_22
REMARK    5  A    between atoms: C_22  and  C_23
REMARK    6  A    between atoms: C_23  and  C_26
REMARK                            x       y       z     vdW  Elec       q    Type
REMARK                         _______ _______ _______ _____ _____    ______ ____
ROOT
ATOM      1  O   UNL     1     -36.011  22.977   4.006  0.00  0.00    -0.443 OA
ATOM      2  O   UNL     1     -35.419  26.106   1.566  0.00  0.00    -0.274 OA
ATOM      3  O   UNL     1     -37.633  24.618   4.115  0.00  0.00    -0.250 OA
ATOM      4  N   UNL     1     -34.381  24.109   2.134  0.00  0.00    -0.303 N 
ATOM      5  C   UNL     1     -34.035  26.037   3.553  0.00  0.00    +0.160 C 
ATOM      6  C   UNL     1     -35.071  26.205   4.680  0.00  0.00    +0.039 C 
ATOM      7  C   UNL     1     -35.544  24.885   5.301  0.00  0.00    +0.112 C 
ATOM      8  C   UNL     1     -34.678  25.455   2.299  0.00  0.00    +0.239 C 
ATOM      9  C   UNL     1     -36.513  22.943   1.582  0.00  0.00    +0.074 C 
ATOM     10  C   UNL     1     -35.064  23.260   1.176  0.00  0.00    +0.094 C 
ATOM     11  C   UNL     1     -36.700  22.283   2.958  0.00  0.00    +0.245 C 
ATOM     12  C   UNL     1     -36.541  24.163   4.426  0.00  0.00    +0.317 C 
ATOM     13  H   UNL     1     -33.674  23.713   2.693  0.00  0.00    +0.149 HD
ENDROOT
BRANCH  11  16
ATOM     14  O   UNL     1     -35.085  20.638   3.572  0.00  0.00    -0.271 OA
ATOM     15  N   UNL     1     -36.830  20.000   2.214  0.00  0.00    -0.326 N 
ATOM     16  C   UNL     1     -36.116  20.907   2.962  0.00  0.00    +0.260 C 
ATOM     17  H   UNL     1     -36.526  19.065   2.154  0.00  0.00    +0.145 HD
ATOM     18  H   UNL     1     -37.643  20.285   1.740  0.00  0.00    +0.145 HD
ENDBRANCH  11  16
BRANCH   5  19
ATOM     19  N   UNL     1     -33.495  27.344   3.173  0.00  0.00    -0.162 NA
BRANCH  19  20
ATOM     20  O   UNL     1     -34.411  28.300   3.769  0.00  0.00    -0.311 OA
ATOM     21  H   UNL     1     -35.245  28.301   3.273  0.00  0.00    +0.237 HD
ENDBRANCH  19  20
BRANCH  19  22
ATOM     22  C   UNL     1     -32.220  27.590   3.835  0.00  0.00    +0.111 C 
BRANCH  22  23
ATOM     23  C   UNL     1     -32.379  28.658   4.911  0.00  0.00    +0.105 C 
BRANCH  23  26
ATOM     24  O   UNL     1     -32.306  27.018   6.698  0.00  0.00    -0.275 OA
ATOM     25  N   UNL     1     -31.336  29.075   7.039  0.00  0.00    -0.329 N 
ATOM     26  C   UNL     1     -32.021  28.141   6.291  0.00  0.00    +0.221 C 
ATOM     27  H   UNL     1     -31.048  28.857   7.954  0.00  0.00    +0.145 HD
ATOM     28  H   UNL     1     -31.135  29.959   6.658  0.00  0.00    +0.145 HD
ENDBRANCH  23  26
ENDBRANCH  22  23
ENDBRANCH  19  22
ENDBRANCH   5  19
TORSDOF 6
ENDMDL
MODEL 6
REMARK VINA RESULT:      -6.2      2.713      5.192
REMARK  Name = 195456
REMARK  6 active torsions:
REMARK  status: ('A' for Active; 'I' for Inactive)
REMARK    1  A    between atoms: C_5  and  N_19
REMARK    2  A    between atoms: C_11  and  C_16
REMARK    3  A    between atoms: N_19  and  O_20
REMARK    4  A    between atoms: N_19  and  C_22
REMARK    5  A    between atoms: C_22  and  C_23
REMARK    6  A    between atoms: C_23  and  C_26
REMARK                            x       y       z     vdW  Elec       q    Type
REMARK                         _______ _______ _______ _____ _____    ______ ____
ROOT
ATOM      1  O   UNL     1     -33.306  28.895   4.405  0.00  0.00    -0.443 OA
ATOM      2  O   UNL     1     -34.815  25.418   3.091  0.00  0.00    -0.274 OA
ATOM      3  O   UNL     1     -31.749  27.225   4.062  0.00  0.00    -0.250 OA
ATOM      4  N   UNL     1     -35.561  27.531   3.700  0.00  0.00    -0.303 N 
ATOM      5  C   UNL     1     -35.157  25.899   5.440  0.00  0.00    +0.160 C 
ATOM      6  C   UNL     1     -33.719  25.884   5.991  0.00  0.00    +0.039 C 
ATOM      7  C   UNL     1     -33.067  27.269   6.088  0.00  0.00    +0.112 C 
ATOM      8  C   UNL     1     -35.171  26.222   3.950  0.00  0.00    +0.239 C 
ATOM      9  C   UNL     1     -33.952  28.480   2.051  0.00  0.00    +0.074 C 
ATOM     10  C   UNL     1     -35.415  28.165   2.404  0.00  0.00    +0.094 C 
ATOM     11  C   UNL     1     -33.190  29.362   3.054  0.00  0.00    +0.245 C 
ATOM     12  C   UNL     1     -32.600  27.779   4.745  0.00  0.00    +0.317 C 
ATOM     13  H   UNL     1     -35.955  28.051   4.437  0.00  0.00    +0.149 HD
ENDROOT
BRANCH  11  16
ATOM     14  O   UNL     1     -34.588  31.094   3.914  0.00  0.00    -0.271 OA
ATOM     15  N   UNL     1     -33.287  31.555   2.072  0.00  0.00    -0.326 N 
ATOM     16  C   UNL     1     -33.761  30.743   3.076  0.00  0.00    +0.260 C 
ATOM     17  H   UNL     1     -33.603  32.485   2.002  0.00  0.00    +0.145 HD
ATOM     18  H   UNL     1     -32.633  31.206   1.425  0.00  0.00    +0.145 HD
ENDBRANCH  11  16
BRANCH   5  19
ATOM     19  N   UNL     1     -35.760  24.574   5.583  0.00  0.00    -0.162 NA
BRANCH  19  20
ATOM     20  O   UNL     1     -36.824  24.552   4.595  0.00  0.00    -0.311 OA
ATOM     21  H   UNL     1     -37.610  24.990   4.957  0.00  0.00    +0.237 HD
ENDBRANCH  19  20
BRANCH  19  22
ATOM     22  C   UNL     1     -34.834  23.533   5.152  0.00  0.00    +0.111 C 
BRANCH  22  23
ATOM     23  C   UNL     1     -35.559  22.198   5.026  0.00  0.00    +0.105 C 
BRANCH  23  26
ATOM     24  O   UNL     1     -35.404  20.444   3.357  0.00  0.00    -0.275 OA
ATOM     25  N   UNL     1     -35.560  22.630   2.659  0.00  0.00    -0.329 N 
ATOM     26  C   UNL     1     -35.497  21.641   3.617  0.00  0.00    +0.221 C 
ATOM     27  H   UNL     1     -35.530  22.393   1.705  0.00  0.00    +0.145 HD
ATOM     28  H   UNL     1     -35.636  23.573   2.930  0.00  0.00    +0.145 HD
ENDBRANCH  23  26
ENDBRANCH  22  23
ENDBRANCH  19  22
ENDBRANCH   5  19
TORSDOF 6
ENDMDL
MODEL 7
REMARK VINA RESULT:      -5.9      3.550      7.698
REMARK  Name = 195456
REMARK  6 active torsions:
REMARK  status: ('A' for Active; 'I' for Inactive)
REMARK    1  A    between atoms: C_5  and  N_19
REMARK    2  A    between atoms: C_11  and  C_16
REMARK    3  A    between atoms: N_19  and  O_20
REMARK    4  A    between atoms: N_19  and  C_22
REMARK    5  A    between atoms: C_22  and  C_23
REMARK    6  A    between atoms: C_23  and  C_26
REMARK                            x       y       z     vdW  Elec       q    Type
REMARK                         _______ _______ _______ _____ _____    ______ ____
ROOT
ATOM      1  O   UNL     1     -37.184  22.209   1.410  0.00  0.00    -0.443 OA
ATOM      2  O   UNL     1     -37.059  25.891   2.997  0.00  0.00    -0.274 OA
ATOM      3  O   UNL     1     -36.566  23.881  -0.057  0.00  0.00    -0.250 OA
ATOM      4  N   UNL     1     -37.561  23.721   3.649  0.00  0.00    -0.303 N 
ATOM      5  C   UNL     1     -39.268  25.016   2.528  0.00  0.00    +0.160 C 
ATOM      6  C   UNL     1     -39.259  24.906   0.992  0.00  0.00    +0.039 C 
ATOM      7  C   UNL     1     -38.898  23.513   0.463  0.00  0.00    +0.112 C 
ATOM      8  C   UNL     1     -37.853  24.957   3.091  0.00  0.00    +0.239 C 
ATOM      9  C   UNL     1     -35.316  23.040   2.807  0.00  0.00    +0.074 C 
ATOM     10  C   UNL     1     -36.217  23.318   4.022  0.00  0.00    +0.094 C 
ATOM     11  C   UNL     1     -35.828  21.982   1.816  0.00  0.00    +0.245 C 
ATOM     12  C   UNL     1     -37.415  23.235   0.541  0.00  0.00    +0.317 C 
ATOM     13  H   UNL     1     -38.299  23.088   3.800  0.00  0.00    +0.149 HD
ENDROOT
BRANCH  11  16
ATOM     14  O   UNL     1     -34.857  20.171   3.029  0.00  0.00    -0.271 OA
ATOM     15  N   UNL     1     -37.034  19.962   2.313  0.00  0.00    -0.326 N 
ATOM     16  C   UNL     1     -35.840  20.630   2.452  0.00  0.00    +0.260 C 
ATOM     17  H   UNL     1     -37.142  19.062   2.699  0.00  0.00    +0.145 HD
ATOM     18  H   UNL     1     -37.779  20.383   1.828  0.00  0.00    +0.145 HD
ENDBRANCH  11  16
BRANCH   5  19
ATOM     19  N   UNL     1     -39.823  26.309   2.932  0.00  0.00    -0.162 NA
BRANCH  19  20
ATOM     20  O   UNL     1     -40.025  27.021   1.683  0.00  0.00    -0.311 OA
ATOM     21  H   UNL     1     -40.589  26.492   1.098  0.00  0.00    +0.237 HD
ENDBRANCH  19  20
BRANCH  19  22
ATOM     22  C   UNL     1     -41.161  26.149   3.489  0.00  0.00    +0.111 C 
BRANCH  22  23
ATOM     23  C   UNL     1     -42.093  27.223   2.942  0.00  0.00    +0.105 C 
BRANCH  23  26
ATOM     24  O   UNL     1     -42.000  28.902   4.691  0.00  0.00    -0.275 OA
ATOM     25  N   UNL     1     -44.016  27.901   4.221  0.00  0.00    -0.329 N 
ATOM     26  C   UNL     1     -42.664  28.101   4.039  0.00  0.00    +0.221 C 
ATOM     27  H   UNL     1     -44.501  28.414   4.905  0.00  0.00    +0.145 HD
ATOM     28  H   UNL     1     -44.495  27.245   3.665  0.00  0.00    +0.145 HD
ENDBRANCH  23  26
ENDBRANCH  22  23
ENDBRANCH  19  22
ENDBRANCH   5  19
TORSDOF 6
ENDMDL
MODEL 8
REMARK VINA RESULT:      -5.9      2.758      7.382
REMARK  Name = 195456
REMARK  6 active torsions:
REMARK  status: ('A' for Active; 'I' for Inactive)
REMARK    1  A    between atoms: C_5  and  N_19
REMARK    2  A    between atoms: C_11  and  C_16
REMARK    3  A    between atoms: N_19  and  O_20
REMARK    4  A    between atoms: N_19  and  C_22
REMARK    5  A    between atoms: C_22  and  C_23
REMARK    6  A    between atoms: C_23  and  C_26
REMARK                            x       y       z     vdW  Elec       q    Type
REMARK                         _______ _______ _______ _____ _____    ______ ____
ROOT
ATOM      1  O   UNL     1     -35.741  23.461   3.343  0.00  0.00    -0.443 OA
ATOM      2  O   UNL     1     -35.361  27.445   3.071  0.00  0.00    -0.274 OA
ATOM      3  O   UNL     1     -37.322  24.673   4.511  0.00  0.00    -0.250 OA
ATOM      4  N   UNL     1     -34.296  25.530   2.306  0.00  0.00    -0.303 N 
ATOM      5  C   UNL     1     -33.783  26.330   4.531  0.00  0.00    +0.160 C 
ATOM      6  C   UNL     1     -34.696  25.780   5.642  0.00  0.00    +0.039 C 
ATOM      7  C   UNL     1     -35.120  24.320   5.444  0.00  0.00    +0.112 C 
ATOM      8  C   UNL     1     -34.557  26.529   3.233  0.00  0.00    +0.239 C 
ATOM      9  C   UNL     1     -36.488  24.782   1.386  0.00  0.00    +0.074 C 
ATOM     10  C   UNL     1     -35.083  25.341   1.103  0.00  0.00    +0.094 C 
ATOM     11  C   UNL     1     -36.542  23.450   2.154  0.00  0.00    +0.245 C 
ATOM     12  C   UNL     1     -36.210  24.174   4.408  0.00  0.00    +0.317 C 
ATOM     13  H   UNL     1     -33.541  24.921   2.474  0.00  0.00    +0.149 HD
ENDROOT
BRANCH  11  16
ATOM     14  O   UNL     1     -36.360  22.130   0.175  0.00  0.00    -0.271 OA
ATOM     15  N   UNL     1     -35.022  21.596   1.970  0.00  0.00    -0.326 N 
ATOM     16  C   UNL     1     -35.978  22.343   1.323  0.00  0.00    +0.260 C 
ATOM     17  H   UNL     1     -34.590  20.843   1.506  0.00  0.00    +0.145 HD
ATOM     18  H   UNL     1     -34.771  21.814   2.896  0.00  0.00    +0.145 HD
ENDBRANCH  11  16
BRANCH   5  19
ATOM     19  N   UNL     1     -33.268  27.645   4.913  0.00  0.00    -0.162 NA
BRANCH  19  20
ATOM     20  O   UNL     1     -32.861  27.485   6.298  0.00  0.00    -0.311 OA
ATOM     21  H   UNL     1     -33.474  26.882   6.747  0.00  0.00    +0.237 HD
ENDBRANCH  19  20
BRANCH  19  22
ATOM     22  C   UNL     1     -32.034  27.948   4.198  0.00  0.00    +0.111 C 
BRANCH  22  23
ATOM     23  C   UNL     1     -32.144  29.298   3.500  0.00  0.00    +0.105 C 
BRANCH  23  26
ATOM     24  O   UNL     1     -33.924  30.900   3.891  0.00  0.00    -0.275 OA
ATOM     25  N   UNL     1     -32.429  30.468   5.584  0.00  0.00    -0.329 N 
ATOM     26  C   UNL     1     -32.938  30.303   4.314  0.00  0.00    +0.221 C 
ATOM     27  H   UNL     1     -32.859  31.094   6.209  0.00  0.00    +0.145 HD
ATOM     28  H   UNL     1     -31.635  29.958   5.866  0.00  0.00    +0.145 HD
ENDBRANCH  23  26
ENDBRANCH  22  23
ENDBRANCH  19  22
ENDBRANCH   5  19
TORSDOF 6
ENDMDL
MODEL 9
REMARK VINA RESULT:      -5.9      1.162      1.254
REMARK  Name = 195456
REMARK  6 active torsions:
REMARK  status: ('A' for Active; 'I' for Inactive)
REMARK    1  A    between atoms: C_5  and  N_19
REMARK    2  A    between atoms: C_11  and  C_16
REMARK    3  A    between atoms: N_19  and  O_20
REMARK    4  A    between atoms: N_19  and  C_22
REMARK    5  A    between atoms: C_22  and  C_23
REMARK    6  A    between atoms: C_23  and  C_26
REMARK                            x       y       z     vdW  Elec       q    Type
REMARK                         _______ _______ _______ _____ _____    ______ ____
ROOT
ATOM      1  O   UNL     1     -35.252  25.972   2.574  0.00  0.00    -0.443 OA
ATOM      2  O   UNL     1     -36.617  22.850   4.691  0.00  0.00    -0.274 OA
ATOM      3  O   UNL     1     -37.552  25.815   2.704  0.00  0.00    -0.250 OA
ATOM      4  N   UNL     1     -34.587  23.764   4.031  0.00  0.00    -0.303 N 
ATOM      5  C   UNL     1     -35.776  22.341   2.477  0.00  0.00    +0.160 C 
ATOM      6  C   UNL     1     -36.780  23.073   1.568  0.00  0.00    +0.039 C 
ATOM      7  C   UNL     1     -36.323  24.466   1.119  0.00  0.00    +0.112 C 
ATOM      8  C   UNL     1     -35.720  22.980   3.860  0.00  0.00    +0.239 C 
ATOM      9  C   UNL     1     -35.323  25.916   5.048  0.00  0.00    +0.074 C 
ATOM     10  C   UNL     1     -34.418  24.677   5.146  0.00  0.00    +0.094 C 
ATOM     11  C   UNL     1     -35.179  26.759   3.770  0.00  0.00    +0.245 C 
ATOM     12  C   UNL     1     -36.478  25.501   2.208  0.00  0.00    +0.317 C 
ATOM     13  H   UNL     1     -33.866  23.696   3.365  0.00  0.00    +0.149 HD
ENDROOT
BRANCH  11  16
ATOM     14  O   UNL     1     -33.405  28.095   4.644  0.00  0.00    -0.271 OA
ATOM     15  N   UNL     1     -33.149  27.176   2.550  0.00  0.00    -0.326 N 
ATOM     16  C   UNL     1     -33.833  27.408   3.720  0.00  0.00    +0.260 C 
ATOM     17  H   UNL     1     -32.252  27.562   2.420  0.00  0.00    +0.145 HD
ATOM     18  H   UNL     1     -33.556  26.626   1.843  0.00  0.00    +0.145 HD
ENDBRANCH  11  16
BRANCH   5  19
ATOM     19  N   UNL     1     -36.203  20.955   2.678  0.00  0.00    -0.162 NA
BRANCH  19  20
ATOM     20  O   UNL     1     -37.648  21.001   2.552  0.00  0.00    -0.311 OA
ATOM     21  H   UNL     1     -37.898  21.732   1.965  0.00  0.00    +0.237 HD
ENDBRANCH  19  20
BRANCH  19  22
ATOM     22  C   UNL     1     -35.761  20.111   1.574  0.00  0.00    +0.111 C 
BRANCH  22  23
ATOM     23  C   UNL     1     -34.239  20.101   1.491  0.00  0.00    +0.105 C 
BRANCH  23  26
ATOM     24  O   UNL     1     -32.584  18.331   1.596  0.00  0.00    -0.275 OA
ATOM     25  N   UNL     1     -34.565  17.934   0.497  0.00  0.00    -0.329 N 
ATOM     26  C   UNL     1     -33.687  18.716   1.217  0.00  0.00    +0.221 C 
ATOM     27  H   UNL     1     -34.319  17.012   0.257  0.00  0.00    +0.145 HD
ATOM     28  H   UNL     1     -35.437  18.299   0.223  0.00  0.00    +0.145 HD
ENDBRANCH  23  26
ENDBRANCH  22  23
ENDBRANCH  19  22
ENDBRANCH   5  19
TORSDOF 6
ENDMDL
