MODEL 1
REMARK VINA RESULT:      -6.7      0.000      0.000
REMARK  Name = 56944939
REMARK  7 active torsions:
REMARK  status: ('A' for Active; 'I' for Inactive)
REMARK    1  A    between atoms: N_1  and  C_25
REMARK    2  A    between atoms: C_3  and  C_6
REMARK    3  A    between atoms: C_5  and  C_18
REMARK    4  A    between atoms: C_9  and  O_12
REMARK    5  A    between atoms: C_10  and  O_14
REMARK    6  A    between atoms: C_11  and  O_16
REMARK    7  A    between atoms: C_25  and  N_26
REMARK                            x       y       z     vdW  Elec       q    Type
REMARK                         _______ _______ _______ _____ _____    ______ ____
ROOT
ATOM      1  N   UNL     1     -36.329  22.114   1.402  0.00  0.00    -0.190 N 
ATOM      2  N   UNL     1     -35.654  20.934   1.339  0.00  0.00    -0.181 NA
ATOM      3  C   UNL     1     -35.481  23.285   1.188  0.00  0.00    +0.126 C 
ATOM      4  C   UNL     1     -34.161  22.676   0.734  0.00  0.00    +0.074 C 
ATOM      5  C   UNL     1     -34.432  21.214   1.001  0.00  0.00    +0.079 C 
ENDROOT
BRANCH   3   6
ATOM      6  C   UNL     1     -35.316  24.066   2.451  0.00  0.00    +0.004 C 
ATOM      7  C   UNL     1     -35.238  23.403   3.675  0.00  0.00    +0.038 C 
ATOM      8  C   UNL     1     -35.243  25.458   2.406  0.00  0.00    +0.038 C 
ATOM      9  C   UNL     1     -35.089  26.187   3.585  0.00  0.00    +0.175 C 
ATOM     10  C   UNL     1     -35.084  24.131   4.855  0.00  0.00    +0.175 C 
ATOM     11  C   UNL     1     -35.011  25.524   4.810  0.00  0.00    +0.206 C 
BRANCH   9  12
ATOM     12  O   UNL     1     -35.018  27.546   3.527  0.00  0.00    -0.468 OA
ATOM     13  C   UNL     1     -33.898  28.107   2.846  0.00  0.00    +0.253 C 
ENDBRANCH   9  12
BRANCH  10  14
ATOM     14  O   UNL     1     -35.008  23.472   6.045  0.00  0.00    -0.468 OA
ATOM     15  C   UNL     1     -35.225  22.062   6.019  0.00  0.00    +0.253 C 
ENDBRANCH  10  14
BRANCH  11  16
ATOM     16  O   UNL     1     -34.862  26.235   5.963  0.00  0.00    -0.465 OA
ATOM     17  C   UNL     1     -33.528  26.537   6.368  0.00  0.00    +0.253 C 
ENDBRANCH  11  16
ENDBRANCH   3   6
BRANCH   5  18
ATOM     18  C   UNL     1     -33.382  20.224   0.844  0.00  0.00    +0.015 C 
ATOM     19  C   UNL     1     -32.252  20.520   0.082  0.00  0.00    +0.001 C 
ATOM     20  C   UNL     1     -33.501  18.977   1.459  0.00  0.00    +0.001 C 
ATOM     21  C   UNL     1     -31.242  19.568  -0.067  0.00  0.00    +0.000 C 
ATOM     22  C   UNL     1     -32.491  18.027   1.310  0.00  0.00    +0.000 C 
ATOM     23  C   UNL     1     -31.362  18.322   0.547  0.00  0.00    +0.000 C 
ENDBRANCH   5  18
BRANCH   1  25
ATOM     24  S   UNL     1     -38.657  23.314   1.005  0.00  0.00    -0.017 S 
ATOM     25  C   UNL     1     -37.662  22.112   1.595  0.00  0.00    +0.151 C 
BRANCH  25  26
ATOM     26  N   UNL     1     -38.136  21.047   2.313  0.00  0.00    -0.339 N 
ATOM     27  H   UNL     1     -37.717  20.161   2.213  0.00  0.00    +0.144 HD
ATOM     28  H   UNL     1     -38.896  21.165   2.926  0.00  0.00    +0.144 HD
ENDBRANCH  25  26
ENDBRANCH   1  25
TORSDOF 7
ENDMDL
MODEL 2
REMARK VINA RESULT:      -6.7      0.074      2.518
REMARK  Name = 56944939
REMARK  7 active torsions:
REMARK  status: ('A' for Active; 'I' for Inactive)
REMARK    1  A    between atoms: N_1  and  C_25
REMARK    2  A    between atoms: C_3  and  C_6
REMARK    3  A    between atoms: C_5  and  C_18
REMARK    4  A    between atoms: C_9  and  O_12
REMARK    5  A    between atoms: C_10  and  O_14
REMARK    6  A    between atoms: C_11  and  O_16
REMARK    7  A    between atoms: C_25  and  N_26
REMARK                            x       y       z     vdW  Elec       q    Type
REMARK                         _______ _______ _______ _____ _____    ______ ____
ROOT
ATOM      1  N   UNL     1     -36.315  22.083   1.353  0.00  0.00    -0.190 N 
ATOM      2  N   UNL     1     -35.636  20.905   1.302  0.00  0.00    -0.181 NA
ATOM      3  C   UNL     1     -35.469  23.256   1.144  0.00  0.00    +0.126 C 
ATOM      4  C   UNL     1     -34.142  22.649   0.706  0.00  0.00    +0.074 C 
ATOM      5  C   UNL     1     -34.411  21.187   0.976  0.00  0.00    +0.079 C 
ENDROOT
BRANCH   3   6
ATOM      6  C   UNL     1     -35.321  24.042   2.406  0.00  0.00    +0.004 C 
ATOM      7  C   UNL     1     -35.271  25.435   2.358  0.00  0.00    +0.038 C 
ATOM      8  C   UNL     1     -35.230  23.382   3.631  0.00  0.00    +0.038 C 
ATOM      9  C   UNL     1     -35.091  24.115   4.809  0.00  0.00    +0.175 C 
ATOM     10  C   UNL     1     -35.132  26.168   3.536  0.00  0.00    +0.175 C 
ATOM     11  C   UNL     1     -35.041  25.508   4.762  0.00  0.00    +0.206 C 
BRANCH   9  12
ATOM     12  O   UNL     1     -35.004  23.459   6.000  0.00  0.00    -0.468 OA
ATOM     13  C   UNL     1     -35.118  22.038   5.965  0.00  0.00    +0.253 C 
ENDBRANCH   9  12
BRANCH  10  14
ATOM     14  O   UNL     1     -35.085  27.529   3.477  0.00  0.00    -0.468 OA
ATOM     15  C   UNL     1     -33.873  28.116   3.007  0.00  0.00    +0.253 C 
ENDBRANCH  10  14
BRANCH  11  16
ATOM     16  O   UNL     1     -34.904  26.226   5.913  0.00  0.00    -0.465 OA
ATOM     17  C   UNL     1     -33.575  26.486   6.357  0.00  0.00    +0.253 C 
ENDBRANCH  11  16
ENDBRANCH   3   6
BRANCH   5  18
ATOM     18  C   UNL     1     -33.356  20.200   0.835  0.00  0.00    +0.015 C 
ATOM     19  C   UNL     1     -32.221  20.495   0.080  0.00  0.00    +0.001 C 
ATOM     20  C   UNL     1     -33.476  18.957   1.457  0.00  0.00    +0.001 C 
ATOM     21  C   UNL     1     -31.206  19.546  -0.054  0.00  0.00    +0.000 C 
ATOM     22  C   UNL     1     -32.462  18.010   1.323  0.00  0.00    +0.000 C 
ATOM     23  C   UNL     1     -31.327  18.304   0.568  0.00  0.00    +0.000 C 
ENDBRANCH   5  18
BRANCH   1  25
ATOM     24  S   UNL     1     -38.653  23.221   0.847  0.00  0.00    -0.017 S 
ATOM     25  C   UNL     1     -37.650  22.077   1.531  0.00  0.00    +0.151 C 
BRANCH  25  26
ATOM     26  N   UNL     1     -38.120  21.059   2.318  0.00  0.00    -0.339 N 
ATOM     27  H   UNL     1     -38.405  21.243   3.242  0.00  0.00    +0.144 HD
ATOM     28  H   UNL     1     -38.170  20.144   1.960  0.00  0.00    +0.144 HD
ENDBRANCH  25  26
ENDBRANCH   1  25
TORSDOF 7
ENDMDL
MODEL 3
REMARK VINA RESULT:      -5.9      3.271      6.708
REMARK  Name = 56944939
REMARK  7 active torsions:
REMARK  status: ('A' for Active; 'I' for Inactive)
REMARK    1  A    between atoms: N_1  and  C_25
REMARK    2  A    between atoms: C_3  and  C_6
REMARK    3  A    between atoms: C_5  and  C_18
REMARK    4  A    between atoms: C_9  and  O_12
REMARK    5  A    between atoms: C_10  and  O_14
REMARK    6  A    between atoms: C_11  and  O_16
REMARK    7  A    between atoms: C_25  and  N_26
REMARK                            x       y       z     vdW  Elec       q    Type
REMARK                         _______ _______ _______ _____ _____    ______ ____
ROOT
ATOM      1  N   UNL     1     -36.363  20.964   1.237  0.00  0.00    -0.190 N 
ATOM      2  N   UNL     1     -36.577  22.206   1.749  0.00  0.00    -0.181 NA
ATOM      3  C   UNL     1     -35.476  20.138   2.053  0.00  0.00    +0.126 C 
ATOM      4  C   UNL     1     -35.319  20.959   3.328  0.00  0.00    +0.074 C 
ATOM      5  C   UNL     1     -35.980  22.248   2.901  0.00  0.00    +0.079 C 
ENDROOT
BRANCH   3   6
ATOM      6  C   UNL     1     -34.162  19.929   1.374  0.00  0.00    +0.004 C 
ATOM      7  C   UNL     1     -33.522  18.693   1.458  0.00  0.00    +0.038 C 
ATOM      8  C   UNL     1     -33.575  20.971   0.656  0.00  0.00    +0.038 C 
ATOM      9  C   UNL     1     -32.348  20.776   0.022  0.00  0.00    +0.175 C 
ATOM     10  C   UNL     1     -32.294  18.498   0.825  0.00  0.00    +0.175 C 
ATOM     11  C   UNL     1     -31.707  19.540   0.107  0.00  0.00    +0.206 C 
BRANCH   9  12
ATOM     12  O   UNL     1     -31.785  21.802  -0.677  0.00  0.00    -0.468 OA
ATOM     13  C   UNL     1     -32.499  23.036  -0.703  0.00  0.00    +0.253 C 
ENDBRANCH   9  12
BRANCH  10  14
ATOM     14  O   UNL     1     -31.679  17.286   0.914  0.00  0.00    -0.468 OA
ATOM     15  C   UNL     1     -32.171  16.246   0.070  0.00  0.00    +0.253 C 
ENDBRANCH  10  14
BRANCH  11  16
ATOM     16  O   UNL     1     -30.507  19.349  -0.512  0.00  0.00    -0.465 OA
ATOM     17  C   UNL     1     -30.542  18.960  -1.883  0.00  0.00    +0.253 C 
ENDBRANCH  11  16
ENDBRANCH   3   6
BRANCH   5  18
ATOM     18  C   UNL     1     -35.955  23.416   3.765  0.00  0.00    +0.015 C 
ATOM     19  C   UNL     1     -34.973  23.535   4.748  0.00  0.00    +0.001 C 
ATOM     20  C   UNL     1     -36.911  24.419   3.609  0.00  0.00    +0.001 C 
ATOM     21  C   UNL     1     -34.948  24.658   5.576  0.00  0.00    +0.000 C 
ATOM     22  C   UNL     1     -36.886  25.541   4.437  0.00  0.00    +0.000 C 
ATOM     23  C   UNL     1     -35.905  25.661   5.420  0.00  0.00    +0.000 C 
ENDBRANCH   5  18
BRANCH   1  25
ATOM     24  S   UNL     1     -36.799  21.404  -1.338  0.00  0.00    -0.017 S 
ATOM     25  C   UNL     1     -36.991  20.591   0.104  0.00  0.00    +0.151 C 
BRANCH  25  26
ATOM     26  N   UNL     1     -37.797  19.491   0.231  0.00  0.00    -0.339 N 
ATOM     27  H   UNL     1     -38.191  19.268   1.106  0.00  0.00    +0.144 HD
ATOM     28  H   UNL     1     -37.980  18.923  -0.551  0.00  0.00    +0.144 HD
ENDBRANCH  25  26
ENDBRANCH   1  25
TORSDOF 7
ENDMDL
MODEL 4
REMARK VINA RESULT:      -5.9      3.270      7.159
REMARK  Name = 56944939
REMARK  7 active torsions:
REMARK  status: ('A' for Active; 'I' for Inactive)
REMARK    1  A    between atoms: N_1  and  C_25
REMARK    2  A    between atoms: C_3  and  C_6
REMARK    3  A    between atoms: C_5  and  C_18
REMARK    4  A    between atoms: C_9  and  O_12
REMARK    5  A    between atoms: C_10  and  O_14
REMARK    6  A    between atoms: C_11  and  O_16
REMARK    7  A    between atoms: C_25  and  N_26
REMARK                            x       y       z     vdW  Elec       q    Type
REMARK                         _______ _______ _______ _____ _____    ______ ____
ROOT
ATOM      1  N   UNL     1     -36.371  21.005   1.257  0.00  0.00    -0.190 N 
ATOM      2  N   UNL     1     -36.587  22.245   1.773  0.00  0.00    -0.181 NA
ATOM      3  C   UNL     1     -35.476  20.181   2.067  0.00  0.00    +0.126 C 
ATOM      4  C   UNL     1     -35.315  21.000   3.342  0.00  0.00    +0.074 C 
ATOM      5  C   UNL     1     -35.983  22.288   2.922  0.00  0.00    +0.079 C 
ENDROOT
BRANCH   3   6
ATOM      6  C   UNL     1     -34.165  19.979   1.379  0.00  0.00    +0.004 C 
ATOM      7  C   UNL     1     -33.605  21.011   0.628  0.00  0.00    +0.038 C 
ATOM      8  C   UNL     1     -33.503  18.756   1.488  0.00  0.00    +0.038 C 
ATOM      9  C   UNL     1     -32.279  18.566   0.846  0.00  0.00    +0.175 C 
ATOM     10  C   UNL     1     -32.381  20.822  -0.015  0.00  0.00    +0.175 C 
ATOM     11  C   UNL     1     -31.719  19.599   0.094  0.00  0.00    +0.206 C 
BRANCH   9  12
ATOM     12  O   UNL     1     -31.642  17.368   0.961  0.00  0.00    -0.468 OA
ATOM     13  C   UNL     1     -32.132  16.295   0.160  0.00  0.00    +0.253 C 
ENDBRANCH   9  12
BRANCH  10  14
ATOM     14  O   UNL     1     -31.843  21.838  -0.745  0.00  0.00    -0.468 OA
ATOM     15  C   UNL     1     -32.619  22.332  -1.837  0.00  0.00    +0.253 C 
ENDBRANCH  10  14
BRANCH  11  16
ATOM     16  O   UNL     1     -30.523  19.414  -0.534  0.00  0.00    -0.465 OA
ATOM     17  C   UNL     1     -30.567  18.973  -1.890  0.00  0.00    +0.253 C 
ENDBRANCH  11  16
ENDBRANCH   3   6
BRANCH   5  18
ATOM     18  C   UNL     1     -35.958  23.454   3.787  0.00  0.00    +0.015 C 
ATOM     19  C   UNL     1     -36.915  24.456   3.636  0.00  0.00    +0.001 C 
ATOM     20  C   UNL     1     -34.977  23.569   4.772  0.00  0.00    +0.001 C 
ATOM     21  C   UNL     1     -36.891  25.576   4.469  0.00  0.00    +0.000 C 
ATOM     22  C   UNL     1     -34.954  24.688   5.605  0.00  0.00    +0.000 C 
ATOM     23  C   UNL     1     -35.910  25.691   5.454  0.00  0.00    +0.000 C 
ENDBRANCH   5  18
BRANCH   1  25
ATOM     24  S   UNL     1     -36.801  21.430  -1.322  0.00  0.00    -0.017 S 
ATOM     25  C   UNL     1     -37.004  20.632   0.128  0.00  0.00    +0.151 C 
BRANCH  25  26
ATOM     26  N   UNL     1     -37.825  19.545   0.263  0.00  0.00    -0.339 N 
ATOM     27  H   UNL     1     -38.427  19.476   1.040  0.00  0.00    +0.144 HD
ATOM     28  H   UNL     1     -37.813  18.831  -0.414  0.00  0.00    +0.144 HD
ENDBRANCH  25  26
ENDBRANCH   1  25
TORSDOF 7
ENDMDL
MODEL 5
REMARK VINA RESULT:      -5.8      3.990      7.828
REMARK  Name = 56944939
REMARK  7 active torsions:
REMARK  status: ('A' for Active; 'I' for Inactive)
REMARK    1  A    between atoms: N_1  and  C_25
REMARK    2  A    between atoms: C_3  and  C_6
REMARK    3  A    between atoms: C_5  and  C_18
REMARK    4  A    between atoms: C_9  and  O_12
REMARK    5  A    between atoms: C_10  and  O_14
REMARK    6  A    between atoms: C_11  and  O_16
REMARK    7  A    between atoms: C_25  and  N_26
REMARK                            x       y       z     vdW  Elec       q    Type
REMARK                         _______ _______ _______ _____ _____    ______ ____
ROOT
ATOM      1  N   UNL     1     -34.962  21.161   0.178  0.00  0.00    -0.190 N 
ATOM      2  N   UNL     1     -34.762  21.986   1.241  0.00  0.00    -0.181 NA
ATOM      3  C   UNL     1     -35.676  19.932   0.517  0.00  0.00    +0.126 C 
ATOM      4  C   UNL     1     -36.132  20.183   1.949  0.00  0.00    +0.074 C 
ATOM      5  C   UNL     1     -35.374  21.453   2.255  0.00  0.00    +0.079 C 
ENDROOT
BRANCH   3   6
ATOM      6  C   UNL     1     -34.771  18.745   0.433  0.00  0.00    +0.004 C 
ATOM      7  C   UNL     1     -33.513  18.784   1.032  0.00  0.00    +0.038 C 
ATOM      8  C   UNL     1     -35.186  17.600  -0.247  0.00  0.00    +0.038 C 
ATOM      9  C   UNL     1     -34.341  16.493  -0.327  0.00  0.00    +0.175 C 
ATOM     10  C   UNL     1     -32.668  17.677   0.953  0.00  0.00    +0.175 C 
ATOM     11  C   UNL     1     -33.082  16.531   0.273  0.00  0.00    +0.206 C 
BRANCH   9  12
ATOM     12  O   UNL     1     -34.758  15.380  -0.993  0.00  0.00    -0.468 OA
ATOM     13  C   UNL     1     -36.165  15.184  -1.110  0.00  0.00    +0.253 C 
ENDBRANCH   9  12
BRANCH  10  14
ATOM     14  O   UNL     1     -31.441  17.726   1.543  0.00  0.00    -0.468 OA
ATOM     15  C   UNL     1     -30.373  18.278   0.773  0.00  0.00    +0.253 C 
ENDBRANCH  10  14
BRANCH  11  16
ATOM     16  O   UNL     1     -32.256  15.449   0.195  0.00  0.00    -0.465 OA
ATOM     17  C   UNL     1     -31.465  15.325  -0.985  0.00  0.00    +0.253 C 
ENDBRANCH  11  16
ENDBRANCH   3   6
BRANCH   5  18
ATOM     18  C   UNL     1     -35.386  22.021   3.591  0.00  0.00    +0.015 C 
ATOM     19  C   UNL     1     -35.647  23.380   3.770  0.00  0.00    +0.001 C 
ATOM     20  C   UNL     1     -35.140  21.207   4.697  0.00  0.00    +0.001 C 
ATOM     21  C   UNL     1     -35.660  23.925   5.054  0.00  0.00    +0.000 C 
ATOM     22  C   UNL     1     -35.154  21.753   5.980  0.00  0.00    +0.000 C 
ATOM     23  C   UNL     1     -35.414  23.111   6.160  0.00  0.00    +0.000 C 
ENDBRANCH   5  18
BRANCH   1  25
ATOM     24  S   UNL     1     -35.543  21.461  -2.388  0.00  0.00    -0.017 S 
ATOM     25  C   UNL     1     -34.554  21.540  -1.049  0.00  0.00    +0.151 C 
BRANCH  25  26
ATOM     26  N   UNL     1     -33.264  21.996  -1.109  0.00  0.00    -0.339 N 
ATOM     27  H   UNL     1     -32.701  21.987  -0.301  0.00  0.00    +0.144 HD
ATOM     28  H   UNL     1     -32.900  22.333  -1.958  0.00  0.00    +0.144 HD
ENDBRANCH  25  26
ENDBRANCH   1  25
TORSDOF 7
ENDMDL
MODEL 6
REMARK VINA RESULT:      -5.8      4.032      7.693
REMARK  Name = 56944939
REMARK  7 active torsions:
REMARK  status: ('A' for Active; 'I' for Inactive)
REMARK    1  A    between atoms: N_1  and  C_25
REMARK    2  A    between atoms: C_3  and  C_6
REMARK    3  A    between atoms: C_5  and  C_18
REMARK    4  A    between atoms: C_9  and  O_12
REMARK    5  A    between atoms: C_10  and  O_14
REMARK    6  A    between atoms: C_11  and  O_16
REMARK    7  A    between atoms: C_25  and  N_26
REMARK                            x       y       z     vdW  Elec       q    Type
REMARK                         _______ _______ _______ _____ _____    ______ ____
ROOT
ATOM      1  N   UNL     1     -35.047  21.170   0.185  0.00  0.00    -0.190 N 
ATOM      2  N   UNL     1     -34.831  22.002   1.239  0.00  0.00    -0.181 NA
ATOM      3  C   UNL     1     -35.744  19.936   0.545  0.00  0.00    +0.126 C 
ATOM      4  C   UNL     1     -36.170  20.191   1.986  0.00  0.00    +0.074 C 
ATOM      5  C   UNL     1     -35.417  21.469   2.268  0.00  0.00    +0.079 C 
ENDROOT
BRANCH   3   6
ATOM      6  C   UNL     1     -34.832  18.757   0.446  0.00  0.00    +0.004 C 
ATOM      7  C   UNL     1     -35.236  17.619  -0.252  0.00  0.00    +0.038 C 
ATOM      8  C   UNL     1     -33.577  18.794   1.054  0.00  0.00    +0.038 C 
ATOM      9  C   UNL     1     -32.725  17.692   0.962  0.00  0.00    +0.175 C 
ATOM     10  C   UNL     1     -34.384  16.518  -0.344  0.00  0.00    +0.175 C 
ATOM     11  C   UNL     1     -33.129  16.555   0.264  0.00  0.00    +0.206 C 
BRANCH   9  12
ATOM     12  O   UNL     1     -31.502  17.741   1.560  0.00  0.00    -0.468 OA
ATOM     13  C   UNL     1     -30.430  18.290   0.796  0.00  0.00    +0.253 C 
ENDBRANCH   9  12
BRANCH  10  14
ATOM     14  O   UNL     1     -34.790  15.413  -1.029  0.00  0.00    -0.468 OA
ATOM     15  C   UNL     1     -36.193  15.152  -1.067  0.00  0.00    +0.253 C 
ENDBRANCH  10  14
BRANCH  11  16
ATOM     16  O   UNL     1     -32.298  15.477   0.175  0.00  0.00    -0.465 OA
ATOM     17  C   UNL     1     -31.497  15.376  -1.000  0.00  0.00    +0.253 C 
ENDBRANCH  11  16
ENDBRANCH   3   6
BRANCH   5  18
ATOM     18  C   UNL     1     -35.404  22.043   3.602  0.00  0.00    +0.015 C 
ATOM     19  C   UNL     1     -35.606  23.412   3.774  0.00  0.00    +0.001 C 
ATOM     20  C   UNL     1     -35.194  21.225   4.712  0.00  0.00    +0.001 C 
ATOM     21  C   UNL     1     -35.595  23.964   5.056  0.00  0.00    +0.000 C 
ATOM     22  C   UNL     1     -35.184  21.776   5.993  0.00  0.00    +0.000 C 
ATOM     23  C   UNL     1     -35.385  23.145   6.166  0.00  0.00    +0.000 C 
ENDBRANCH   5  18
BRANCH   1  25
ATOM     24  S   UNL     1     -33.182  22.231  -1.368  0.00  0.00    -0.017 S 
ATOM     25  C   UNL     1     -34.669  21.546  -1.052  0.00  0.00    +0.151 C 
BRANCH  25  26
ATOM     26  N   UNL     1     -35.602  21.322  -2.030  0.00  0.00    -0.339 N 
ATOM     27  H   UNL     1     -36.537  21.595  -1.889  0.00  0.00    +0.144 HD
ATOM     28  H   UNL     1     -35.337  20.886  -2.872  0.00  0.00    +0.144 HD
ENDBRANCH  25  26
ENDBRANCH   1  25
TORSDOF 7
ENDMDL
MODEL 7
REMARK VINA RESULT:      -5.7      4.019      5.449
REMARK  Name = 56944939
REMARK  7 active torsions:
REMARK  status: ('A' for Active; 'I' for Inactive)
REMARK    1  A    between atoms: N_1  and  C_25
REMARK    2  A    between atoms: C_3  and  C_6
REMARK    3  A    between atoms: C_5  and  C_18
REMARK    4  A    between atoms: C_9  and  O_12
REMARK    5  A    between atoms: C_10  and  O_14
REMARK    6  A    between atoms: C_11  and  O_16
REMARK    7  A    between atoms: C_25  and  N_26
REMARK                            x       y       z     vdW  Elec       q    Type
REMARK                         _______ _______ _______ _____ _____    ______ ____
ROOT
ATOM      1  N   UNL     1     -36.140  24.918   3.093  0.00  0.00    -0.190 N 
ATOM      2  N   UNL     1     -35.232  24.233   2.348  0.00  0.00    -0.181 NA
ATOM      3  C   UNL     1     -37.194  24.074   3.653  0.00  0.00    +0.126 C 
ATOM      4  C   UNL     1     -36.701  22.664   3.352  0.00  0.00    +0.074 C 
ATOM      5  C   UNL     1     -35.535  22.974   2.444  0.00  0.00    +0.079 C 
ENDROOT
BRANCH   3   6
ATOM      6  C   UNL     1     -38.507  24.346   2.994  0.00  0.00    +0.004 C 
ATOM      7  C   UNL     1     -39.072  23.394   2.146  0.00  0.00    +0.038 C 
ATOM      8  C   UNL     1     -39.166  25.553   3.226  0.00  0.00    +0.038 C 
ATOM      9  C   UNL     1     -40.392  25.808   2.610  0.00  0.00    +0.175 C 
ATOM     10  C   UNL     1     -40.297  23.649   1.530  0.00  0.00    +0.175 C 
ATOM     11  C   UNL     1     -40.957  24.856   1.762  0.00  0.00    +0.206 C 
BRANCH   9  12
ATOM     12  O   UNL     1     -41.026  26.990   2.845  0.00  0.00    -0.468 OA
ATOM     13  C   UNL     1     -41.937  27.029   3.941  0.00  0.00    +0.253 C 
ENDBRANCH   9  12
BRANCH  10  14
ATOM     14  O   UNL     1     -40.840  22.710   0.704  0.00  0.00    -0.468 OA
ATOM     15  C   UNL     1     -40.063  21.540   0.455  0.00  0.00    +0.253 C 
ENDBRANCH  10  14
BRANCH  11  16
ATOM     16  O   UNL     1     -42.154  25.104   1.159  0.00  0.00    -0.465 OA
ATOM     17  C   UNL     1     -42.117  25.770  -0.102  0.00  0.00    +0.253 C 
ENDBRANCH  11  16
ENDBRANCH   3   6
BRANCH   5  18
ATOM     18  C   UNL     1     -34.813  21.907   1.774  0.00  0.00    +0.015 C 
ATOM     19  C   UNL     1     -34.902  20.599   2.250  0.00  0.00    +0.001 C 
ATOM     20  C   UNL     1     -34.031  22.190   0.654  0.00  0.00    +0.001 C 
ATOM     21  C   UNL     1     -34.208  19.573   1.605  0.00  0.00    +0.000 C 
ATOM     22  C   UNL     1     -33.339  21.164   0.010  0.00  0.00    +0.000 C 
ATOM     23  C   UNL     1     -33.427  19.856   0.485  0.00  0.00    +0.000 C 
ENDBRANCH   5  18
BRANCH   1  25
ATOM     24  S   UNL     1     -35.852  27.327   2.030  0.00  0.00    -0.017 S 
ATOM     25  C   UNL     1     -35.982  26.241   3.289  0.00  0.00    +0.151 C 
BRANCH  25  26
ATOM     26  N   UNL     1     -35.938  26.625   4.602  0.00  0.00    -0.339 N 
ATOM     27  H   UNL     1     -36.569  26.236   5.250  0.00  0.00    +0.144 HD
ATOM     28  H   UNL     1     -35.277  27.291   4.898  0.00  0.00    +0.144 HD
ENDBRANCH  25  26
ENDBRANCH   1  25
TORSDOF 7
ENDMDL
MODEL 8
REMARK VINA RESULT:      -5.6      4.064      5.757
REMARK  Name = 56944939
REMARK  7 active torsions:
REMARK  status: ('A' for Active; 'I' for Inactive)
REMARK    1  A    between atoms: N_1  and  C_25
REMARK    2  A    between atoms: C_3  and  C_6
REMARK    3  A    between atoms: C_5  and  C_18
REMARK    4  A    between atoms: C_9  and  O_12
REMARK    5  A    between atoms: C_10  and  O_14
REMARK    6  A    between atoms: C_11  and  O_16
REMARK    7  A    between atoms: C_25  and  N_26
REMARK                            x       y       z     vdW  Elec       q    Type
REMARK                         _______ _______ _______ _____ _____    ______ ____
ROOT
ATOM      1  N   UNL     1     -36.192  25.041   2.999  0.00  0.00    -0.190 N 
ATOM      2  N   UNL     1     -35.283  24.344   2.266  0.00  0.00    -0.181 NA
ATOM      3  C   UNL     1     -37.238  24.206   3.584  0.00  0.00    +0.126 C 
ATOM      4  C   UNL     1     -36.740  22.791   3.312  0.00  0.00    +0.074 C 
ATOM      5  C   UNL     1     -35.579  23.086   2.392  0.00  0.00    +0.079 C 
ENDROOT
BRANCH   3   6
ATOM      6  C   UNL     1     -38.555  24.456   2.925  0.00  0.00    +0.004 C 
ATOM      7  C   UNL     1     -39.226  25.659   3.141  0.00  0.00    +0.038 C 
ATOM      8  C   UNL     1     -39.114  23.485   2.094  0.00  0.00    +0.038 C 
ATOM      9  C   UNL     1     -40.345  23.718   1.479  0.00  0.00    +0.175 C 
ATOM     10  C   UNL     1     -40.457  25.892   2.526  0.00  0.00    +0.175 C 
ATOM     11  C   UNL     1     -41.016  24.921   1.695  0.00  0.00    +0.206 C 
BRANCH   9  12
ATOM     12  O   UNL     1     -40.880  22.762   0.669  0.00  0.00    -0.468 OA
ATOM     13  C   UNL     1     -39.966  21.909  -0.017  0.00  0.00    +0.253 C 
ENDBRANCH   9  12
BRANCH  10  14
ATOM     14  O   UNL     1     -41.102  27.072   2.745  0.00  0.00    -0.468 OA
ATOM     15  C   UNL     1     -41.961  27.139   3.882  0.00  0.00    +0.253 C 
ENDBRANCH  10  14
BRANCH  11  16
ATOM     16  O   UNL     1     -42.219  25.149   1.095  0.00  0.00    -0.465 OA
ATOM     17  C   UNL     1     -42.193  25.777  -0.185  0.00  0.00    +0.253 C 
ENDBRANCH  11  16
ENDBRANCH   3   6
BRANCH   5  18
ATOM     18  C   UNL     1     -34.854  22.008   1.743  0.00  0.00    +0.015 C 
ATOM     19  C   UNL     1     -34.979  20.701   2.214  0.00  0.00    +0.001 C 
ATOM     20  C   UNL     1     -34.033  22.279   0.648  0.00  0.00    +0.001 C 
ATOM     21  C   UNL     1     -34.284  19.665   1.590  0.00  0.00    +0.000 C 
ATOM     22  C   UNL     1     -33.339  21.243   0.025  0.00  0.00    +0.000 C 
ATOM     23  C   UNL     1     -33.463  19.936   0.495  0.00  0.00    +0.000 C 
ENDBRANCH   5  18
BRANCH   1  25
ATOM     24  S   UNL     1     -35.992  27.435   1.882  0.00  0.00    -0.017 S 
ATOM     25  C   UNL     1     -36.040  26.370   3.164  0.00  0.00    +0.151 C 
BRANCH  25  26
ATOM     26  N   UNL     1     -35.928  26.777   4.467  0.00  0.00    -0.339 N 
ATOM     27  H   UNL     1     -36.148  27.704   4.713  0.00  0.00    +0.144 HD
ATOM     28  H   UNL     1     -35.626  26.142   5.156  0.00  0.00    +0.144 HD
ENDBRANCH  25  26
ENDBRANCH   1  25
TORSDOF 7
ENDMDL
MODEL 9
REMARK VINA RESULT:      -5.6      2.998      6.875
REMARK  Name = 56944939
REMARK  7 active torsions:
REMARK  status: ('A' for Active; 'I' for Inactive)
REMARK    1  A    between atoms: N_1  and  C_25
REMARK    2  A    between atoms: C_3  and  C_6
REMARK    3  A    between atoms: C_5  and  C_18
REMARK    4  A    between atoms: C_9  and  O_12
REMARK    5  A    between atoms: C_10  and  O_14
REMARK    6  A    between atoms: C_11  and  O_16
REMARK    7  A    between atoms: C_25  and  N_26
REMARK                            x       y       z     vdW  Elec       q    Type
REMARK                         _______ _______ _______ _____ _____    ______ ____
ROOT
ATOM      1  N   UNL     1     -36.394  25.252   3.780  0.00  0.00    -0.190 N 
ATOM      2  N   UNL     1     -35.661  26.351   4.108  0.00  0.00    -0.181 NA
ATOM      3  C   UNL     1     -35.758  23.991   4.154  0.00  0.00    +0.126 C 
ATOM      4  C   UNL     1     -34.577  24.441   5.006  0.00  0.00    +0.074 C 
ATOM      5  C   UNL     1     -34.622  25.932   4.764  0.00  0.00    +0.079 C 
ENDROOT
BRANCH   3   6
ATOM      6  C   UNL     1     -35.303  23.240   2.945  0.00  0.00    +0.004 C 
ATOM      7  C   UNL     1     -34.580  23.895   1.948  0.00  0.00    +0.038 C 
ATOM      8  C   UNL     1     -35.605  21.885   2.812  0.00  0.00    +0.038 C 
ATOM      9  C   UNL     1     -35.181  21.184   1.683  0.00  0.00    +0.175 C 
ATOM     10  C   UNL     1     -34.157  23.194   0.819  0.00  0.00    +0.175 C 
ATOM     11  C   UNL     1     -34.458  21.838   0.686  0.00  0.00    +0.206 C 
BRANCH   9  12
ATOM     12  O   UNL     1     -35.481  19.860   1.566  0.00  0.00    -0.468 OA
ATOM     13  C   UNL     1     -36.671  19.526   0.854  0.00  0.00    +0.253 C 
ENDBRANCH   9  12
BRANCH  10  14
ATOM     14  O   UNL     1     -33.450  23.844  -0.148  0.00  0.00    -0.468 OA
ATOM     15  C   UNL     1     -32.855  25.090   0.212  0.00  0.00    +0.253 C 
ENDBRANCH  10  14
BRANCH  11  16
ATOM     16  O   UNL     1     -34.045  21.154  -0.418  0.00  0.00    -0.465 OA
ATOM     17  C   UNL     1     -32.755  20.548  -0.358  0.00  0.00    +0.253 C 
ENDBRANCH  11  16
ENDBRANCH   3   6
BRANCH   5  18
ATOM     18  C   UNL     1     -33.577  26.799   5.278  0.00  0.00    +0.015 C 
ATOM     19  C   UNL     1     -32.910  27.671   4.419  0.00  0.00    +0.001 C 
ATOM     20  C   UNL     1     -33.243  26.761   6.631  0.00  0.00    +0.001 C 
ATOM     21  C   UNL     1     -31.906  28.506   4.913  0.00  0.00    +0.000 C 
ATOM     22  C   UNL     1     -32.240  27.595   7.125  0.00  0.00    +0.000 C 
ATOM     23  C   UNL     1     -31.572  28.468   6.267  0.00  0.00    +0.000 C 
ENDBRANCH   5  18
BRANCH   1  25
ATOM     24  S   UNL     1     -37.840  26.272   1.809  0.00  0.00    -0.017 S 
ATOM     25  C   UNL     1     -37.607  25.402   3.213  0.00  0.00    +0.151 C 
BRANCH  25  26
ATOM     26  N   UNL     1     -38.631  24.785   3.878  0.00  0.00    -0.339 N 
ATOM     27  H   UNL     1     -39.510  25.224   3.945  0.00  0.00    +0.144 HD
ATOM     28  H   UNL     1     -38.489  23.903   4.292  0.00  0.00    +0.144 HD
ENDBRANCH  25  26
ENDBRANCH   1  25
TORSDOF 7
ENDMDL
