MODEL 1
REMARK VINA RESULT:      -6.4      0.000      0.000
REMARK  Name = 5282251
REMARK  6 active torsions:
REMARK  status: ('A' for Active; 'I' for Inactive)
REMARK    1  A    between atoms: C_1  and  C_3
REMARK    2  A    between atoms: C_2  and  C_16
REMARK    3  A    between atoms: C_4  and  S_9
REMARK    4  A    between atoms: C_7  and  N_15
REMARK    5  A    between atoms: C_17  and  S_22
REMARK    6  A    between atoms: C_20  and  N_28
REMARK                            x       y       z     vdW  Elec       q    Type
REMARK                         _______ _______ _______ _____ _____    ______ ____
ROOT
ATOM      1  C   UNL     1     -36.236  24.658   3.991  0.00  0.00    +0.001 C 
ATOM      2  C   UNL     1     -35.565  25.743   3.543  0.00  0.00    +0.001 C 
ENDROOT
BRANCH   1   3
ATOM      3  C   UNL     1     -37.315  23.986   3.277  0.00  0.00    +0.018 C 
ATOM      4  C   UNL     1     -37.179  22.684   2.795  0.00  0.00    +0.114 C 
ATOM      5  C   UNL     1     -38.237  22.078   2.117  0.00  0.00    +0.043 C 
ATOM      6  C   UNL     1     -38.507  24.682   3.081  0.00  0.00    +0.003 C 
ATOM      7  C   UNL     1     -39.430  22.776   1.921  0.00  0.00    +0.144 C 
ATOM      8  C   UNL     1     -39.565  24.077   2.403  0.00  0.00    +0.024 C 
BRANCH   4   9
ATOM      9  S   UNL     1     -35.702  21.767   3.016  0.00  0.00    +0.042 S 
ATOM     10  O   UNL     1     -36.094  20.233   2.615  0.00  0.00    -0.065 OA
ATOM     11  O   UNL     1     -34.740  22.234   2.031  0.00  0.00    -0.065 OA
ATOM     12  O   UNL     1     -35.395  21.803   4.434  0.00  0.00    -0.065 OA
ENDBRANCH   4   9
BRANCH   7  15
ATOM     13  O   UNL     1     -41.323  22.881   0.609  0.00  0.00    -0.126 OA
ATOM     14  O   UNL     1     -40.614  20.909   1.261  0.00  0.00    -0.126 OA
ATOM     15  N   UNL     1     -40.508  22.159   1.231  0.00  0.00    +0.058 N 
ENDBRANCH   7  15
ENDBRANCH   1   3
BRANCH   2  16
ATOM     16  C   UNL     1     -34.487  26.434   4.274  0.00  0.00    +0.018 C 
ATOM     17  C   UNL     1     -33.711  27.407   3.663  0.00  0.00    +0.114 C 
ATOM     18  C   UNL     1     -32.701  28.034   4.392  0.00  0.00    +0.043 C 
ATOM     19  C   UNL     1     -34.277  26.073   5.598  0.00  0.00    +0.003 C 
ATOM     20  C   UNL     1     -32.479  27.682   5.723  0.00  0.00    +0.144 C 
ATOM     21  C   UNL     1     -33.267  26.701   6.326  0.00  0.00    +0.024 C 
BRANCH  17  22
ATOM     22  S   UNL     1     -33.951  27.884   1.994  0.00  0.00    +0.042 S 
ATOM     23  O   UNL     1     -32.777  28.979   1.695  0.00  0.00    -0.065 OA
ATOM     24  O   UNL     1     -33.678  26.726   1.159  0.00  0.00    -0.065 OA
ATOM     25  O   UNL     1     -35.234  28.563   1.934  0.00  0.00    -0.065 OA
ENDBRANCH  17  22
BRANCH  20  28
ATOM     26  O   UNL     1     -31.726  29.358   7.117  0.00  0.00    -0.126 OA
ATOM     27  O   UNL     1     -30.295  27.832   6.450  0.00  0.00    -0.126 OA
ATOM     28  N   UNL     1     -31.451  28.321   6.465  0.00  0.00    +0.058 N 
ENDBRANCH  20  28
ENDBRANCH   2  16
TORSDOF 6
ENDMDL
MODEL 2
REMARK VINA RESULT:      -6.4      0.041      8.501
REMARK  Name = 5282251
REMARK  6 active torsions:
REMARK  status: ('A' for Active; 'I' for Inactive)
REMARK    1  A    between atoms: C_1  and  C_3
REMARK    2  A    between atoms: C_2  and  C_16
REMARK    3  A    between atoms: C_4  and  S_9
REMARK    4  A    between atoms: C_7  and  N_15
REMARK    5  A    between atoms: C_17  and  S_22
REMARK    6  A    between atoms: C_20  and  N_28
REMARK                            x       y       z     vdW  Elec       q    Type
REMARK                         _______ _______ _______ _____ _____    ______ ____
ROOT
ATOM      1  C   UNL     1     -35.582  25.740   3.525  0.00  0.00    +0.001 C 
ATOM      2  C   UNL     1     -36.227  24.632   3.954  0.00  0.00    +0.001 C 
ENDROOT
BRANCH   1   3
ATOM      3  C   UNL     1     -34.515  26.423   4.247  0.00  0.00    +0.018 C 
ATOM      4  C   UNL     1     -33.731  27.406   3.644  0.00  0.00    +0.114 C 
ATOM      5  C   UNL     1     -32.720  28.034   4.372  0.00  0.00    +0.043 C 
ATOM      6  C   UNL     1     -34.288  26.066   5.575  0.00  0.00    +0.003 C 
ATOM      7  C   UNL     1     -32.493  27.677   5.701  0.00  0.00    +0.144 C 
ATOM      8  C   UNL     1     -33.277  26.694   6.303  0.00  0.00    +0.024 C 
BRANCH   4   9
ATOM      9  S   UNL     1     -33.976  27.890   1.977  0.00  0.00    +0.042 S 
ATOM     10  O   UNL     1     -32.830  29.018   1.692  0.00  0.00    -0.065 OA
ATOM     11  O   UNL     1     -33.669  26.745   1.135  0.00  0.00    -0.065 OA
ATOM     12  O   UNL     1     -35.275  28.535   1.916  0.00  0.00    -0.065 OA
ENDBRANCH   4   9
BRANCH   7  15
ATOM     13  O   UNL     1     -30.306  27.833   6.416  0.00  0.00    -0.126 OA
ATOM     14  O   UNL     1     -31.739  29.347   7.103  0.00  0.00    -0.126 OA
ATOM     15  N   UNL     1     -31.463  28.316   6.442  0.00  0.00    +0.058 N 
ENDBRANCH   7  15
ENDBRANCH   1   3
BRANCH   2  16
ATOM     16  C   UNL     1     -37.319  23.955   3.232  0.00  0.00    +0.018 C 
ATOM     17  C   UNL     1     -37.176  22.657   2.764  0.00  0.00    +0.114 C 
ATOM     18  C   UNL     1     -38.235  22.053   2.085  0.00  0.00    +0.043 C 
ATOM     19  C   UNL     1     -38.496  24.663   3.037  0.00  0.00    +0.003 C 
ATOM     20  C   UNL     1     -39.423  22.754   1.883  0.00  0.00    +0.144 C 
ATOM     21  C   UNL     1     -39.554  24.059   2.358  0.00  0.00    +0.024 C 
BRANCH  17  22
ATOM     22  S   UNL     1     -35.703  21.735   2.994  0.00  0.00    +0.042 S 
ATOM     23  O   UNL     1     -36.094  20.204   2.586  0.00  0.00    -0.065 OA
ATOM     24  O   UNL     1     -34.732  22.204   2.019  0.00  0.00    -0.065 OA
ATOM     25  O   UNL     1     -35.409  21.767   4.416  0.00  0.00    -0.065 OA
ENDBRANCH  17  22
BRANCH  20  28
ATOM     26  O   UNL     1     -41.298  22.861   0.543  0.00  0.00    -0.126 OA
ATOM     27  O   UNL     1     -40.626  20.892   1.247  0.00  0.00    -0.126 OA
ATOM     28  N   UNL     1     -40.500  22.140   1.192  0.00  0.00    +0.058 N 
ENDBRANCH  20  28
ENDBRANCH   2  16
TORSDOF 6
ENDMDL
MODEL 3
REMARK VINA RESULT:      -6.3      4.421      7.505
REMARK  Name = 5282251
REMARK  6 active torsions:
REMARK  status: ('A' for Active; 'I' for Inactive)
REMARK    1  A    between atoms: C_1  and  C_3
REMARK    2  A    between atoms: C_2  and  C_16
REMARK    3  A    between atoms: C_4  and  S_9
REMARK    4  A    between atoms: C_7  and  N_15
REMARK    5  A    between atoms: C_17  and  S_22
REMARK    6  A    between atoms: C_20  and  N_28
REMARK                            x       y       z     vdW  Elec       q    Type
REMARK                         _______ _______ _______ _____ _____    ______ ____
ROOT
ATOM      1  C   UNL     1     -35.135  21.599   0.957  0.00  0.00    +0.001 C 
ATOM      2  C   UNL     1     -35.758  21.944   2.107  0.00  0.00    +0.001 C 
ENDROOT
BRANCH   1   3
ATOM      3  C   UNL     1     -33.998  20.692   0.859  0.00  0.00    +0.018 C 
ATOM      4  C   UNL     1     -32.860  21.017   0.122  0.00  0.00    +0.114 C 
ATOM      5  C   UNL     1     -31.794  20.119   0.054  0.00  0.00    +0.043 C 
ATOM      6  C   UNL     1     -34.072  19.470   1.527  0.00  0.00    +0.003 C 
ATOM      7  C   UNL     1     -31.869  18.896   0.722  0.00  0.00    +0.144 C 
ATOM      8  C   UNL     1     -33.007  18.572   1.459  0.00  0.00    +0.024 C 
BRANCH   4   9
ATOM      9  S   UNL     1     -32.718  22.539  -0.736  0.00  0.00    +0.042 S 
ATOM     10  O   UNL     1     -31.171  22.585  -1.260  0.00  0.00    -0.065 OA
ATOM     11  O   UNL     1     -33.567  22.465  -1.913  0.00  0.00    -0.065 OA
ATOM     12  O   UNL     1     -32.896  23.591   0.249  0.00  0.00    -0.065 OA
ENDBRANCH   4   9
BRANCH   7  15
ATOM     13  O   UNL     1     -31.014  16.756   0.781  0.00  0.00    -0.126 OA
ATOM     14  O   UNL     1     -29.625  18.426   0.465  0.00  0.00    -0.126 OA
ATOM     15  N   UNL     1     -30.784  17.982   0.653  0.00  0.00    +0.058 N 
ENDBRANCH   7  15
ENDBRANCH   1   3
BRANCH   2  16
ATOM     16  C   UNL     1     -36.895  22.877   2.207  0.00  0.00    +0.018 C 
ATOM     17  C   UNL     1     -37.014  23.756   3.273  0.00  0.00    +0.114 C 
ATOM     18  C   UNL     1     -38.107  24.621   3.329  0.00  0.00    +0.043 C 
ATOM     19  C   UNL     1     -37.844  22.842   1.196  0.00  0.00    +0.003 C 
ATOM     20  C   UNL     1     -39.068  24.597   2.318  0.00  0.00    +0.144 C 
ATOM     21  C   UNL     1     -38.936  23.707   1.252  0.00  0.00    +0.024 C 
BRANCH  17  22
ATOM     22  S   UNL     1     -35.833  23.824   4.567  0.00  0.00    +0.042 S 
ATOM     23  O   UNL     1     -36.212  25.167   5.414  0.00  0.00    -0.065 OA
ATOM     24  O   UNL     1     -36.068  22.686   5.440  0.00  0.00    -0.065 OA
ATOM     25  O   UNL     1     -34.539  24.031   3.940  0.00  0.00    -0.065 OA
ENDBRANCH  17  22
BRANCH  20  28
ATOM     26  O   UNL     1     -41.270  25.115   1.868  0.00  0.00    -0.126 OA
ATOM     27  O   UNL     1     -40.044  26.594   2.931  0.00  0.00    -0.126 OA
ATOM     28  N   UNL     1     -40.179  25.477   2.375  0.00  0.00    +0.058 N 
ENDBRANCH  20  28
ENDBRANCH   2  16
TORSDOF 6
ENDMDL
MODEL 4
REMARK VINA RESULT:      -6.3      4.417      6.585
REMARK  Name = 5282251
REMARK  6 active torsions:
REMARK  status: ('A' for Active; 'I' for Inactive)
REMARK    1  A    between atoms: C_1  and  C_3
REMARK    2  A    between atoms: C_2  and  C_16
REMARK    3  A    between atoms: C_4  and  S_9
REMARK    4  A    between atoms: C_7  and  N_15
REMARK    5  A    between atoms: C_17  and  S_22
REMARK    6  A    between atoms: C_20  and  N_28
REMARK                            x       y       z     vdW  Elec       q    Type
REMARK                         _______ _______ _______ _____ _____    ______ ____
ROOT
ATOM      1  C   UNL     1     -35.642  22.121   2.131  0.00  0.00    +0.001 C 
ATOM      2  C   UNL     1     -35.215  21.534   0.991  0.00  0.00    +0.001 C 
ENDROOT
BRANCH   1   3
ATOM      3  C   UNL     1     -36.796  23.006   2.239  0.00  0.00    +0.018 C 
ATOM      4  C   UNL     1     -36.967  23.863   3.326  0.00  0.00    +0.114 C 
ATOM      5  C   UNL     1     -38.087  24.692   3.388  0.00  0.00    +0.043 C 
ATOM      6  C   UNL     1     -37.743  22.978   1.216  0.00  0.00    +0.003 C 
ATOM      7  C   UNL     1     -39.035  24.664   2.364  0.00  0.00    +0.144 C 
ATOM      8  C   UNL     1     -38.863  23.807   1.278  0.00  0.00    +0.024 C 
BRANCH   4   9
ATOM      9  S   UNL     1     -35.807  23.935   4.636  0.00  0.00    +0.042 S 
ATOM     10  O   UNL     1     -36.208  25.274   5.482  0.00  0.00    -0.065 OA
ATOM     11  O   UNL     1     -36.047  22.793   5.504  0.00  0.00    -0.065 OA
ATOM     12  O   UNL     1     -34.505  24.152   4.031  0.00  0.00    -0.065 OA
ENDBRANCH   4   9
BRANCH   7  15
ATOM     13  O   UNL     1     -40.087  26.604   3.032  0.00  0.00    -0.126 OA
ATOM     14  O   UNL     1     -41.239  25.136   1.878  0.00  0.00    -0.126 OA
ATOM     15  N   UNL     1     -40.175  25.509   2.428  0.00  0.00    +0.058 N 
ENDBRANCH   7  15
ENDBRANCH   1   3
BRANCH   2  16
ATOM     16  C   UNL     1     -34.037  20.655   0.880  0.00  0.00    +0.018 C 
ATOM     17  C   UNL     1     -32.925  21.031   0.143  0.00  0.00    +0.114 C 
ATOM     18  C   UNL     1     -31.831  20.168   0.064  0.00  0.00    +0.043 C 
ATOM     19  C   UNL     1     -34.082  19.435   1.542  0.00  0.00    +0.003 C 
ATOM     20  C   UNL     1     -31.863  18.940   0.724  0.00  0.00    +0.144 C 
ATOM     21  C   UNL     1     -32.988  18.574   1.463  0.00  0.00    +0.024 C 
BRANCH  17  22
ATOM     22  S   UNL     1     -32.837  22.563  -0.705  0.00  0.00    +0.042 S 
ATOM     23  O   UNL     1     -31.322  22.625  -1.309  0.00  0.00    -0.065 OA
ATOM     24  O   UNL     1     -33.747  22.495  -1.836  0.00  0.00    -0.065 OA
ATOM     25  O   UNL     1     -32.971  23.603   0.300  0.00  0.00    -0.065 OA
ENDBRANCH  17  22
BRANCH  20  28
ATOM     26  O   UNL     1     -30.935  16.830   0.796  0.00  0.00    -0.126 OA
ATOM     27  O   UNL     1     -29.611  18.542   0.425  0.00  0.00    -0.126 OA
ATOM     28  N   UNL     1     -30.750  18.063   0.645  0.00  0.00    +0.058 N 
ENDBRANCH  20  28
ENDBRANCH   2  16
TORSDOF 6
ENDMDL
MODEL 5
REMARK VINA RESULT:      -6.2      4.768      6.819
REMARK  Name = 5282251
REMARK  6 active torsions:
REMARK  status: ('A' for Active; 'I' for Inactive)
REMARK    1  A    between atoms: C_1  and  C_3
REMARK    2  A    between atoms: C_2  and  C_16
REMARK    3  A    between atoms: C_4  and  S_9
REMARK    4  A    between atoms: C_7  and  N_15
REMARK    5  A    between atoms: C_17  and  S_22
REMARK    6  A    between atoms: C_20  and  N_28
REMARK                            x       y       z     vdW  Elec       q    Type
REMARK                         _______ _______ _______ _____ _____    ______ ____
ROOT
ATOM      1  C   UNL     1     -35.360  21.060   1.847  0.00  0.00    +0.001 C 
ATOM      2  C   UNL     1     -34.676  20.734   0.727  0.00  0.00    +0.001 C 
ENDROOT
BRANCH   1   3
ATOM      3  C   UNL     1     -36.605  21.819   1.878  0.00  0.00    +0.018 C 
ATOM      4  C   UNL     1     -36.858  22.778   2.859  0.00  0.00    +0.114 C 
ATOM      5  C   UNL     1     -38.062  23.481   2.852  0.00  0.00    +0.043 C 
ATOM      6  C   UNL     1     -37.556  21.563   0.891  0.00  0.00    +0.003 C 
ATOM      7  C   UNL     1     -39.014  23.224   1.864  0.00  0.00    +0.144 C 
ATOM      8  C   UNL     1     -38.761  22.266   0.884  0.00  0.00    +0.024 C 
BRANCH   4   9
ATOM      9  S   UNL     1     -35.696  23.136   4.121  0.00  0.00    +0.042 S 
ATOM     10  O   UNL     1     -36.477  24.145   5.141  0.00  0.00    -0.065 OA
ATOM     11  O   UNL     1     -35.440  21.904   4.850  0.00  0.00    -0.065 OA
ATOM     12  O   UNL     1     -34.612  23.872   3.495  0.00  0.00    -0.065 OA
ENDBRANCH   4   9
BRANCH   7  15
ATOM     13  O   UNL     1     -41.183  23.524   1.141  0.00  0.00    -0.126 OA
ATOM     14  O   UNL     1     -40.349  24.969   2.567  0.00  0.00    -0.126 OA
ATOM     15  N   UNL     1     -40.241  23.940   1.857  0.00  0.00    +0.058 N 
ENDBRANCH   7  15
ENDBRANCH   1   3
BRANCH   2  16
ATOM     16  C   UNL     1     -33.408  19.983   0.699  0.00  0.00    +0.018 C 
ATOM     17  C   UNL     1     -32.310  20.450  -0.008  0.00  0.00    +0.114 C 
ATOM     18  C   UNL     1     -31.129  19.707  -0.008  0.00  0.00    +0.043 C 
ATOM     19  C   UNL     1     -33.352  18.790   1.405  0.00  0.00    +0.003 C 
ATOM     20  C   UNL     1     -31.060  18.507   0.698  0.00  0.00    +0.144 C 
ATOM     21  C   UNL     1     -32.172  18.048   1.405  0.00  0.00    +0.024 C 
BRANCH  17  22
ATOM     22  S   UNL     1     -32.348  21.953  -0.911  0.00  0.00    +0.042 S 
ATOM     23  O   UNL     1     -30.799  22.218  -1.353  0.00  0.00    -0.065 OA
ATOM     24  O   UNL     1     -33.107  21.718  -2.127  0.00  0.00    -0.065 OA
ATOM     25  O   UNL     1     -32.739  22.992   0.026  0.00  0.00    -0.065 OA
ENDBRANCH  17  22
BRANCH  20  28
ATOM     26  O   UNL     1     -28.759  18.357   0.721  0.00  0.00    -0.126 OA
ATOM     27  O   UNL     1     -29.927  16.499   0.674  0.00  0.00    -0.126 OA
ATOM     28  N   UNL     1     -29.858  17.751   0.697  0.00  0.00    +0.058 N 
ENDBRANCH  20  28
ENDBRANCH   2  16
TORSDOF 6
ENDMDL
MODEL 6
REMARK VINA RESULT:      -6.1      4.438      7.245
REMARK  Name = 5282251
REMARK  6 active torsions:
REMARK  status: ('A' for Active; 'I' for Inactive)
REMARK    1  A    between atoms: C_1  and  C_3
REMARK    2  A    between atoms: C_2  and  C_16
REMARK    3  A    between atoms: C_4  and  S_9
REMARK    4  A    between atoms: C_7  and  N_15
REMARK    5  A    between atoms: C_17  and  S_22
REMARK    6  A    between atoms: C_20  and  N_28
REMARK                            x       y       z     vdW  Elec       q    Type
REMARK                         _______ _______ _______ _____ _____    ______ ____
ROOT
ATOM      1  C   UNL     1     -36.282  21.190   1.019  0.00  0.00    +0.001 C 
ATOM      2  C   UNL     1     -36.858  21.554   2.187  0.00  0.00    +0.001 C 
ENDROOT
BRANCH   1   3
ATOM      3  C   UNL     1     -35.394  20.048   0.843  0.00  0.00    +0.018 C 
ATOM      4  C   UNL     1     -35.644  19.062  -0.112  0.00  0.00    +0.114 C 
ATOM      5  C   UNL     1     -34.768  17.985  -0.248  0.00  0.00    +0.043 C 
ATOM      6  C   UNL     1     -34.269  19.956   1.662  0.00  0.00    +0.003 C 
ATOM      7  C   UNL     1     -33.643  17.894   0.572  0.00  0.00    +0.144 C 
ATOM      8  C   UNL     1     -33.393  18.879   1.527  0.00  0.00    +0.024 C 
BRANCH   4   9
ATOM      9  S   UNL     1     -37.043  19.131  -1.166  0.00  0.00    +0.042 S 
ATOM     10  O   UNL     1     -36.945  17.785  -2.086  0.00  0.00    -0.065 OA
ATOM     11  O   UNL     1     -38.229  18.997  -0.335  0.00  0.00    -0.065 OA
ATOM     12  O   UNL     1     -36.861  20.286  -2.027  0.00  0.00    -0.065 OA
ENDBRANCH   4   9
BRANCH   7  15
ATOM     13  O   UNL     1     -31.571  16.918   0.842  0.00  0.00    -0.126 OA
ATOM     14  O   UNL     1     -33.168  15.736  -0.091  0.00  0.00    -0.126 OA
ATOM     15  N   UNL     1     -32.751  16.797   0.435  0.00  0.00    +0.058 N 
ENDBRANCH   7  15
ENDBRANCH   1   3
BRANCH   2  16
ATOM     16  C   UNL     1     -37.740  22.721   2.368  0.00  0.00    +0.018 C 
ATOM     17  C   UNL     1     -37.423  23.732   3.263  0.00  0.00    +0.114 C 
ATOM     18  C   UNL     1     -38.287  24.819   3.403  0.00  0.00    +0.043 C 
ATOM     19  C   UNL     1     -38.903  22.771   1.611  0.00  0.00    +0.003 C 
ATOM     20  C   UNL     1     -39.457  24.881   2.648  0.00  0.00    +0.144 C 
ATOM     21  C   UNL     1     -39.765  23.857   1.752  0.00  0.00    +0.024 C 
BRANCH  17  22
ATOM     22  S   UNL     1     -35.963  23.700   4.234  0.00  0.00    +0.042 S 
ATOM     23  O   UNL     1     -35.976  25.106   5.063  0.00  0.00    -0.065 OA
ATOM     24  O   UNL     1     -36.104  22.628   5.206  0.00  0.00    -0.065 OA
ATOM     25  O   UNL     1     -34.845  23.726   3.307  0.00  0.00    -0.065 OA
ENDBRANCH  17  22
BRANCH  20  28
ATOM     26  O   UNL     1     -40.264  26.932   1.967  0.00  0.00    -0.126 OA
ATOM     27  O   UNL     1     -41.162  25.990   3.736  0.00  0.00    -0.126 OA
ATOM     28  N   UNL     1     -40.336  25.987   2.791  0.00  0.00    +0.058 N 
ENDBRANCH  20  28
ENDBRANCH   2  16
TORSDOF 6
ENDMDL
MODEL 7
REMARK VINA RESULT:      -6.1      4.432      7.810
REMARK  Name = 5282251
REMARK  6 active torsions:
REMARK  status: ('A' for Active; 'I' for Inactive)
REMARK    1  A    between atoms: C_1  and  C_3
REMARK    2  A    between atoms: C_2  and  C_16
REMARK    3  A    between atoms: C_4  and  S_9
REMARK    4  A    between atoms: C_7  and  N_15
REMARK    5  A    between atoms: C_17  and  S_22
REMARK    6  A    between atoms: C_20  and  N_28
REMARK                            x       y       z     vdW  Elec       q    Type
REMARK                         _______ _______ _______ _____ _____    ______ ____
ROOT
ATOM      1  C   UNL     1     -36.826  21.567   2.189  0.00  0.00    +0.001 C 
ATOM      2  C   UNL     1     -36.281  21.179   1.014  0.00  0.00    +0.001 C 
ENDROOT
BRANCH   1   3
ATOM      3  C   UNL     1     -37.701  22.720   2.368  0.00  0.00    +0.018 C 
ATOM      4  C   UNL     1     -37.402  23.737   3.273  0.00  0.00    +0.114 C 
ATOM      5  C   UNL     1     -38.267  24.822   3.412  0.00  0.00    +0.043 C 
ATOM      6  C   UNL     1     -38.865  22.786   1.603  0.00  0.00    +0.003 C 
ATOM      7  C   UNL     1     -39.432  24.889   2.647  0.00  0.00    +0.144 C 
ATOM      8  C   UNL     1     -39.730  23.871   1.742  0.00  0.00    +0.024 C 
BRANCH   4   9
ATOM      9  S   UNL     1     -35.953  23.701   4.258  0.00  0.00    +0.042 S 
ATOM     10  O   UNL     1     -35.974  25.104   5.094  0.00  0.00    -0.065 OA
ATOM     11  O   UNL     1     -36.101  22.624   5.224  0.00  0.00    -0.065 OA
ATOM     12  O   UNL     1     -34.825  23.733   3.344  0.00  0.00    -0.065 OA
ENDBRANCH   4   9
BRANCH   7  15
ATOM     13  O   UNL     1     -41.139  25.994   3.732  0.00  0.00    -0.126 OA
ATOM     14  O   UNL     1     -40.241  26.938   1.966  0.00  0.00    -0.126 OA
ATOM     15  N   UNL     1     -40.313  25.993   2.788  0.00  0.00    +0.058 N 
ENDBRANCH   7  15
ENDBRANCH   1   3
BRANCH   2  16
ATOM     16  C   UNL     1     -35.381  20.024   0.839  0.00  0.00    +0.018 C 
ATOM     17  C   UNL     1     -35.638  19.049  -0.112  0.00  0.00    +0.114 C 
ATOM     18  C   UNL     1     -34.760  17.972  -0.244  0.00  0.00    +0.043 C 
ATOM     19  C   UNL     1     -34.266  19.949   1.662  0.00  0.00    +0.003 C 
ATOM     20  C   UNL     1     -33.636  17.885   0.576  0.00  0.00    +0.144 C 
ATOM     21  C   UNL     1     -33.389  18.873   1.529  0.00  0.00    +0.024 C 
BRANCH  17  22
ATOM     22  S   UNL     1     -37.038  19.114  -1.166  0.00  0.00    +0.042 S 
ATOM     23  O   UNL     1     -36.970  17.739  -2.044  0.00  0.00    -0.065 OA
ATOM     24  O   UNL     1     -38.224  19.030  -0.330  0.00  0.00    -0.065 OA
ATOM     25  O   UNL     1     -36.833  20.239  -2.061  0.00  0.00    -0.065 OA
ENDBRANCH  17  22
BRANCH  20  28
ATOM     26  O   UNL     1     -31.564  16.912   0.856  0.00  0.00    -0.126 OA
ATOM     27  O   UNL     1     -33.155  15.729  -0.087  0.00  0.00    -0.126 OA
ATOM     28  N   UNL     1     -32.743  16.790   0.441  0.00  0.00    +0.058 N 
ENDBRANCH  20  28
ENDBRANCH   2  16
TORSDOF 6
ENDMDL
MODEL 8
REMARK VINA RESULT:      -5.8      1.106      8.530
REMARK  Name = 5282251
REMARK  6 active torsions:
REMARK  status: ('A' for Active; 'I' for Inactive)
REMARK    1  A    between atoms: C_1  and  C_3
REMARK    2  A    between atoms: C_2  and  C_16
REMARK    3  A    between atoms: C_4  and  S_9
REMARK    4  A    between atoms: C_7  and  N_15
REMARK    5  A    between atoms: C_17  and  S_22
REMARK    6  A    between atoms: C_20  and  N_28
REMARK                            x       y       z     vdW  Elec       q    Type
REMARK                         _______ _______ _______ _____ _____    ______ ____
ROOT
ATOM      1  C   UNL     1     -36.163  25.094   3.226  0.00  0.00    +0.001 C 
ATOM      2  C   UNL     1     -36.178  23.764   2.985  0.00  0.00    +0.001 C 
ENDROOT
BRANCH   1   3
ATOM      3  C   UNL     1     -35.115  25.804   3.949  0.00  0.00    +0.018 C 
ATOM      4  C   UNL     1     -34.336  26.787   3.338  0.00  0.00    +0.114 C 
ATOM      5  C   UNL     1     -33.343  27.441   4.067  0.00  0.00    +0.043 C 
ATOM      6  C   UNL     1     -34.901  25.476   5.287  0.00  0.00    +0.003 C 
ATOM      7  C   UNL     1     -33.129  27.113   5.407  0.00  0.00    +0.144 C 
ATOM      8  C   UNL     1     -33.909  26.131   6.016  0.00  0.00    +0.024 C 
BRANCH   4   9
ATOM      9  S   UNL     1     -34.564  27.235   1.659  0.00  0.00    +0.042 S 
ATOM     10  O   UNL     1     -33.393  28.332   1.352  0.00  0.00    -0.065 OA
ATOM     11  O   UNL     1     -34.278  26.064   0.846  0.00  0.00    -0.065 OA
ATOM     12  O   UNL     1     -35.849  27.906   1.577  0.00  0.00    -0.065 OA
ENDBRANCH   4   9
BRANCH   7  15
ATOM     13  O   UNL     1     -30.929  27.705   5.759  0.00  0.00    -0.126 OA
ATOM     14  O   UNL     1     -32.443  28.424   7.175  0.00  0.00    -0.126 OA
ATOM     15  N   UNL     1     -32.119  27.779   6.149  0.00  0.00    +0.058 N 
ENDBRANCH   7  15
ENDBRANCH   1   3
BRANCH   2  16
ATOM     16  C   UNL     1     -37.248  23.045   2.271  0.00  0.00    +0.018 C 
ATOM     17  C   UNL     1     -37.050  21.763   1.780  0.00  0.00    +0.114 C 
ATOM     18  C   UNL     1     -38.090  21.118   1.109  0.00  0.00    +0.043 C 
ATOM     19  C   UNL     1     -38.461  23.698   2.106  0.00  0.00    +0.003 C 
ATOM     20  C   UNL     1     -39.314  21.764   0.937  0.00  0.00    +0.144 C 
ATOM     21  C   UNL     1     -39.500  23.053   1.435  0.00  0.00    +0.024 C 
BRANCH  17  22
ATOM     22  S   UNL     1     -35.530  20.910   1.971  0.00  0.00    +0.042 S 
ATOM     23  O   UNL     1     -35.701  19.541   1.098  0.00  0.00    -0.065 OA
ATOM     24  O   UNL     1     -34.496  21.703   1.327  0.00  0.00    -0.065 OA
ATOM     25  O   UNL     1     -35.429  20.548   3.374  0.00  0.00    -0.065 OA
ENDBRANCH  17  22
BRANCH  20  28
ATOM     26  O   UNL     1     -41.497  21.664   0.197  0.00  0.00    -0.126 OA
ATOM     27  O   UNL     1     -40.156  19.990  -0.274  0.00  0.00    -0.126 OA
ATOM     28  N   UNL     1     -40.372  21.108   0.254  0.00  0.00    +0.058 N 
ENDBRANCH  20  28
ENDBRANCH   2  16
TORSDOF 6
ENDMDL
MODEL 9
REMARK VINA RESULT:      -5.8      3.466      5.768
REMARK  Name = 5282251
REMARK  6 active torsions:
REMARK  status: ('A' for Active; 'I' for Inactive)
REMARK    1  A    between atoms: C_1  and  C_3
REMARK    2  A    between atoms: C_2  and  C_16
REMARK    3  A    between atoms: C_4  and  S_9
REMARK    4  A    between atoms: C_7  and  N_15
REMARK    5  A    between atoms: C_17  and  S_22
REMARK    6  A    between atoms: C_20  and  N_28
REMARK                            x       y       z     vdW  Elec       q    Type
REMARK                         _______ _______ _______ _____ _____    ______ ____
ROOT
ATOM      1  C   UNL     1     -32.459  27.744   4.214  0.00  0.00    +0.001 C 
ATOM      2  C   UNL     1     -31.815  28.401   5.206  0.00  0.00    +0.001 C 
ENDROOT
BRANCH   1   3
ATOM      3  C   UNL     1     -33.334  26.594   4.400  0.00  0.00    +0.018 C 
ATOM      4  C   UNL     1     -33.516  25.638   3.401  0.00  0.00    +0.114 C 
ATOM      5  C   UNL     1     -34.363  24.552   3.621  0.00  0.00    +0.043 C 
ATOM      6  C   UNL     1     -34.001  26.465   5.618  0.00  0.00    +0.003 C 
ATOM      7  C   UNL     1     -35.030  24.424   4.841  0.00  0.00    +0.144 C 
ATOM      8  C   UNL     1     -34.849  25.380   5.839  0.00  0.00    +0.024 C 
BRANCH   4   9
ATOM      9  S   UNL     1     -32.702  25.754   1.853  0.00  0.00    +0.042 S 
ATOM     10  O   UNL     1     -33.158  27.199   1.244  0.00  0.00    -0.065 OA
ATOM     11  O   UNL     1     -31.273  25.829   2.109  0.00  0.00    -0.065 OA
ATOM     12  O   UNL     1     -33.256  24.709   1.010  0.00  0.00    -0.065 OA
ENDBRANCH   4   9
BRANCH   7  15
ATOM     13  O   UNL     1     -35.850  22.728   6.170  0.00  0.00    -0.126 OA
ATOM     14  O   UNL     1     -36.677  22.964   4.151  0.00  0.00    -0.126 OA
ATOM     15  N   UNL     1     -35.894  23.319   5.065  0.00  0.00    +0.058 N 
ENDBRANCH   7  15
ENDBRANCH   1   3
BRANCH   2  16
ATOM     16  C   UNL     1     -30.915  29.553   5.014  0.00  0.00    +0.018 C 
ATOM     17  C   UNL     1     -29.537  29.405   5.059  0.00  0.00    +0.114 C 
ATOM     18  C   UNL     1     -28.722  30.521   4.872  0.00  0.00    +0.043 C 
ATOM     19  C   UNL     1     -31.497  30.792   4.786  0.00  0.00    +0.003 C 
ATOM     20  C   UNL     1     -29.294  31.772   4.643  0.00  0.00    +0.144 C 
ATOM     21  C   UNL     1     -30.682  31.907   4.600  0.00  0.00    +0.024 C 
BRANCH  17  22
ATOM     22  S   UNL     1     -28.770  27.854   5.344  0.00  0.00    +0.042 S 
ATOM     23  O   UNL     1     -27.189  28.198   5.558  0.00  0.00    -0.065 OA
ATOM     24  O   UNL     1     -29.272  27.339   6.607  0.00  0.00    -0.065 OA
ATOM     25  O   UNL     1     -28.909  27.089   4.117  0.00  0.00    -0.065 OA
ENDBRANCH  17  22
BRANCH  20  28
ATOM     26  O   UNL     1     -28.808  33.779   3.616  0.00  0.00    -0.126 OA
ATOM     27  O   UNL     1     -27.411  33.012   5.126  0.00  0.00    -0.126 OA
ATOM     28  N   UNL     1     -28.464  32.908   4.453  0.00  0.00    +0.058 N 
ENDBRANCH  20  28
ENDBRANCH   2  16
TORSDOF 6
ENDMDL
