MODEL 1
REMARK VINA RESULT:      -5.0      0.000      0.000
REMARK  Name = 196383
REMARK  11 active torsions:
REMARK  status: ('A' for Active; 'I' for Inactive)
REMARK    1  A    between atoms: C_1  and  N_2
REMARK    2  A    between atoms: C_1  and  C_8
REMARK    3  A    between atoms: C_1  and  CA_18
REMARK    4  A    between atoms: N_2  and  C_4
REMARK    5  A    between atoms: C_8  and  O_9
REMARK    6  A    between atoms: C_8  and  C_11
REMARK    7  A    between atoms: C_11  and  O_12
REMARK    8  A    between atoms: C_11  and  C_15
REMARK    9  A    between atoms: C_15  and  O_16
REMARK   10  A    between atoms: CA_18  and  N_20
REMARK   11  A    between atoms: CA_18  and  C_25
REMARK                            x       y       z     vdW  Elec       q    Type
REMARK                         _______ _______ _______ _____ _____    ______ ____
ROOT
ATOM      1  C   UNL     1     -36.453  23.689   3.900  0.00  0.00    +0.149 C 
ENDROOT
BRANCH   1   2
ATOM      2  N   UNL     1     -35.659  24.929   3.809  0.00  0.00    -0.223 NA
BRANCH   2   4
ATOM      3  N   UNL     1     -36.574  26.478   5.408  0.00  0.00    -0.389 N 
ATOM      4  C   UNL     1     -35.615  25.650   4.871  0.00  0.00    +0.095 C 
ATOM      5  C   UNL     1     -34.314  25.593   5.643  0.00  0.00    +0.068 C 
ATOM      6  H   UNL     1     -37.450  26.569   4.964  0.00  0.00    +0.157 HD
ATOM      7  H   UNL     1     -36.387  26.978   6.234  0.00  0.00    +0.157 HD
ENDBRANCH   2   4
ENDBRANCH   1   2
BRANCH   1   8
ATOM      8  C   UNL     1     -37.425  23.656   2.699  0.00  0.00    +0.170 C 
BRANCH   8   9
ATOM      9  O   UNL     1     -36.749  24.075   1.513  0.00  0.00    -0.380 OA
ATOM     10  H   UNL     1     -36.080  24.738   1.740  0.00  0.00    +0.211 HD
ENDBRANCH   8   9
BRANCH   8  11
ATOM     11  C   UNL     1     -38.670  24.537   2.880  0.00  0.00    +0.238 C 
BRANCH  11  12
ATOM     12  O   UNL     1     -38.782  24.985   4.224  0.00  0.00    -0.373 OA
ATOM     13  H   UNL     1     -39.366  24.388   4.717  0.00  0.00    +0.211 HD
ENDBRANCH  11  12
BRANCH  11  15
ATOM     14  O   UNL     1     -39.125  25.915   0.919  0.00  0.00    -0.248 OA
ATOM     15  C   UNL     1     -38.610  25.785   2.020  0.00  0.00    +0.344 C 
BRANCH  15  16
ATOM     16  O   UNL     1     -37.878  26.757   2.621  0.00  0.00    -0.478 OA
ATOM     17  H   UNL     1     -37.039  26.992   2.277  0.00  0.00    +0.295 HD
ENDBRANCH  15  16
ENDBRANCH  11  15
ENDBRANCH   8  11
ENDBRANCH   1   8
BRANCH   1  18
ATOM     18  CA  UNL     1     -35.499  22.490   4.004  0.00  0.00    +0.159 C 
BRANCH  18  20
ATOM     19  O   UNL     1     -34.539  21.745   1.367  0.00  0.00    -0.275 OA
ATOM     20  N   UNL     1     -35.899  21.352   3.217  0.00  0.00    -0.298 N 
ATOM     21  C   UNL     1     -35.382  21.075   1.959  0.00  0.00    +0.223 C 
ATOM     22  C   UNL     1     -35.953  19.815   1.368  0.00  0.00    +0.095 C 
ATOM     23  H   UNL     1     -36.574  20.740   3.590  0.00  0.00    +0.150 HD
ENDBRANCH  18  20
BRANCH  18  25
ATOM     24  O   UNL     1     -36.020  22.432   6.367  0.00  0.00    -0.286 OA
ATOM     25  C   UNL     1     -35.368  21.984   5.428  0.00  0.00    +0.229 C 
ENDBRANCH  18  25
ENDBRANCH   1  18
TORSDOF 11
ENDMDL
MODEL 2
REMARK VINA RESULT:      -4.8      2.371      3.701
REMARK  Name = 196383
REMARK  11 active torsions:
REMARK  status: ('A' for Active; 'I' for Inactive)
REMARK    1  A    between atoms: C_1  and  N_2
REMARK    2  A    between atoms: C_1  and  C_8
REMARK    3  A    between atoms: C_1  and  CA_18
REMARK    4  A    between atoms: N_2  and  C_4
REMARK    5  A    between atoms: C_8  and  O_9
REMARK    6  A    between atoms: C_8  and  C_11
REMARK    7  A    between atoms: C_11  and  O_12
REMARK    8  A    between atoms: C_11  and  C_15
REMARK    9  A    between atoms: C_15  and  O_16
REMARK   10  A    between atoms: CA_18  and  N_20
REMARK   11  A    between atoms: CA_18  and  C_25
REMARK                            x       y       z     vdW  Elec       q    Type
REMARK                         _______ _______ _______ _____ _____    ______ ____
ROOT
ATOM      1  C   UNL     1     -35.881  24.465   4.133  0.00  0.00    +0.149 C 
ENDROOT
BRANCH   1   2
ATOM      2  N   UNL     1     -37.333  24.435   4.393  0.00  0.00    -0.223 NA
BRANCH   2   4
ATOM      3  N   UNL     1     -38.410  26.240   3.221  0.00  0.00    -0.389 N 
ATOM      4  C   UNL     1     -38.082  24.928   3.473  0.00  0.00    +0.095 C 
ATOM      5  C   UNL     1     -38.706  23.919   2.533  0.00  0.00    +0.068 C 
ATOM      6  H   UNL     1     -38.044  26.957   3.789  0.00  0.00    +0.157 HD
ATOM      7  H   UNL     1     -39.011  26.463   2.474  0.00  0.00    +0.157 HD
ENDBRANCH   2   4
ENDBRANCH   1   2
BRANCH   1   8
ATOM      8  C   UNL     1     -35.290  25.691   4.865  0.00  0.00    +0.170 C 
BRANCH   8   9
ATOM      9  O   UNL     1     -36.317  26.368   5.590  0.00  0.00    -0.380 OA
ATOM     10  H   UNL     1     -36.817  26.938   4.986  0.00  0.00    +0.211 HD
ENDBRANCH   8   9
BRANCH   8  11
ATOM     11  C   UNL     1     -34.611  26.706   3.934  0.00  0.00    +0.238 C 
BRANCH  11  12
ATOM     12  O   UNL     1     -35.475  27.801   3.662  0.00  0.00    -0.373 OA
ATOM     13  H   UNL     1     -36.349  27.626   4.045  0.00  0.00    +0.211 HD
ENDBRANCH  11  12
BRANCH  11  15
ATOM     14  O   UNL     1     -32.455  27.849   3.944  0.00  0.00    -0.248 OA
ATOM     15  C   UNL     1     -33.360  27.297   4.555  0.00  0.00    +0.344 C 
BRANCH  15  16
ATOM     16  O   UNL     1     -33.350  27.114   5.899  0.00  0.00    -0.478 OA
ATOM     17  H   UNL     1     -33.899  26.461   6.288  0.00  0.00    +0.295 HD
ENDBRANCH  15  16
ENDBRANCH  11  15
ENDBRANCH   8  11
ENDBRANCH   1   8
BRANCH   1  18
ATOM     18  CA  UNL     1     -35.274  23.111   4.527  0.00  0.00    +0.159 C 
BRANCH  18  20
ATOM     19  O   UNL     1     -34.852  22.125   1.830  0.00  0.00    -0.275 OA
ATOM     20  N   UNL     1     -35.906  21.979   3.902  0.00  0.00    -0.298 N 
ATOM     21  C   UNL     1     -35.640  21.580   2.599  0.00  0.00    +0.223 C 
ATOM     22  C   UNL     1     -36.419  20.355   2.203  0.00  0.00    +0.095 C 
ATOM     23  H   UNL     1     -36.561  21.462   4.424  0.00  0.00    +0.150 HD
ENDBRANCH  18  20
BRANCH  18  25
ATOM     24  O   UNL     1     -36.022  21.956   6.519  0.00  0.00    -0.286 OA
ATOM     25  C   UNL     1     -35.357  22.860   6.021  0.00  0.00    +0.229 C 
ENDBRANCH  18  25
ENDBRANCH   1  18
TORSDOF 11
ENDMDL
MODEL 3
REMARK VINA RESULT:      -4.8      2.881      5.055
REMARK  Name = 196383
REMARK  11 active torsions:
REMARK  status: ('A' for Active; 'I' for Inactive)
REMARK    1  A    between atoms: C_1  and  N_2
REMARK    2  A    between atoms: C_1  and  C_8
REMARK    3  A    between atoms: C_1  and  CA_18
REMARK    4  A    between atoms: N_2  and  C_4
REMARK    5  A    between atoms: C_8  and  O_9
REMARK    6  A    between atoms: C_8  and  C_11
REMARK    7  A    between atoms: C_11  and  O_12
REMARK    8  A    between atoms: C_11  and  C_15
REMARK    9  A    between atoms: C_15  and  O_16
REMARK   10  A    between atoms: CA_18  and  N_20
REMARK   11  A    between atoms: CA_18  and  C_25
REMARK                            x       y       z     vdW  Elec       q    Type
REMARK                         _______ _______ _______ _____ _____    ______ ____
ROOT
ATOM      1  C   UNL     1     -37.138  22.013   1.982  0.00  0.00    +0.149 C 
ENDROOT
BRANCH   1   2
ATOM      2  N   UNL     1     -36.840  20.655   2.474  0.00  0.00    -0.223 NA
BRANCH   2   4
ATOM      3  N   UNL     1     -36.639  18.933   0.804  0.00  0.00    -0.389 N 
ATOM      4  C   UNL     1     -36.181  19.896   1.673  0.00  0.00    +0.095 C 
ATOM      5  C   UNL     1     -34.678  20.078   1.695  0.00  0.00    +0.068 C 
ATOM      6  H   UNL     1     -37.605  18.755   0.731  0.00  0.00    +0.157 HD
ATOM      7  H   UNL     1     -36.001  18.422   0.255  0.00  0.00    +0.157 HD
ENDBRANCH   2   4
ENDBRANCH   1   2
BRANCH   1   8
ATOM      8  C   UNL     1     -38.650  22.085   1.669  0.00  0.00    +0.170 C 
BRANCH   8   9
ATOM      9  O   UNL     1     -39.352  21.099   2.424  0.00  0.00    -0.380 OA
ATOM     10  H   UNL     1     -39.474  21.413   3.333  0.00  0.00    +0.211 HD
ENDBRANCH   8   9
BRANCH   8  11
ATOM     11  C   UNL     1     -38.990  21.886   0.184  0.00  0.00    +0.238 C 
BRANCH  11  12
ATOM     12  O   UNL     1     -37.827  21.551  -0.561  0.00  0.00    -0.373 OA
ATOM     13  H   UNL     1     -37.152  21.194   0.037  0.00  0.00    +0.211 HD
ENDBRANCH  11  12
BRANCH  11  15
ATOM     14  O   UNL     1     -41.189  20.841   0.023  0.00  0.00    -0.248 OA
ATOM     15  C   UNL     1     -39.970  20.748  -0.025  0.00  0.00    +0.344 C 
BRANCH  15  16
ATOM     16  O   UNL     1     -39.319  19.579  -0.251  0.00  0.00    -0.478 OA
ATOM     17  H   UNL     1     -39.342  19.186  -1.101  0.00  0.00    +0.295 HD
ENDBRANCH  15  16
ENDBRANCH  11  15
ENDBRANCH   8  11
ENDBRANCH   1   8
BRANCH   1  18
ATOM     18  CA  UNL     1     -36.631  23.040   3.005  0.00  0.00    +0.159 C 
BRANCH  18  20
ATOM     19  O   UNL     1     -34.441  23.605   4.825  0.00  0.00    -0.275 OA
ATOM     20  N   UNL     1     -36.431  22.502   4.325  0.00  0.00    -0.298 N 
ATOM     21  C   UNL     1     -35.347  22.832   5.128  0.00  0.00    +0.223 C 
ATOM     22  C   UNL     1     -35.395  22.148   6.467  0.00  0.00    +0.095 C 
ATOM     23  H   UNL     1     -37.096  21.867   4.677  0.00  0.00    +0.150 HD
ENDBRANCH  18  20
BRANCH  18  25
ATOM     24  O   UNL     1     -37.815  24.745   4.250  0.00  0.00    -0.286 OA
ATOM     25  C   UNL     1     -37.590  24.203   3.172  0.00  0.00    +0.229 C 
ENDBRANCH  18  25
ENDBRANCH   1  18
TORSDOF 11
ENDMDL
MODEL 4
REMARK VINA RESULT:      -4.7      1.902      4.902
REMARK  Name = 196383
REMARK  11 active torsions:
REMARK  status: ('A' for Active; 'I' for Inactive)
REMARK    1  A    between atoms: C_1  and  N_2
REMARK    2  A    between atoms: C_1  and  C_8
REMARK    3  A    between atoms: C_1  and  CA_18
REMARK    4  A    between atoms: N_2  and  C_4
REMARK    5  A    between atoms: C_8  and  O_9
REMARK    6  A    between atoms: C_8  and  C_11
REMARK    7  A    between atoms: C_11  and  O_12
REMARK    8  A    between atoms: C_11  and  C_15
REMARK    9  A    between atoms: C_15  and  O_16
REMARK   10  A    between atoms: CA_18  and  N_20
REMARK   11  A    between atoms: CA_18  and  C_25
REMARK                            x       y       z     vdW  Elec       q    Type
REMARK                         _______ _______ _______ _____ _____    ______ ____
ROOT
ATOM      1  C   UNL     1     -36.412  24.179   2.971  0.00  0.00    +0.149 C 
ENDROOT
BRANCH   1   2
ATOM      2  N   UNL     1     -36.843  24.369   4.369  0.00  0.00    -0.223 NA
BRANCH   2   4
ATOM      3  N   UNL     1     -36.552  26.504   5.439  0.00  0.00    -0.389 N 
ATOM      4  C   UNL     1     -36.185  25.237   5.049  0.00  0.00    +0.095 C 
ATOM      5  C   UNL     1     -34.797  24.812   5.477  0.00  0.00    +0.068 C 
ATOM      6  H   UNL     1     -37.441  26.855   5.200  0.00  0.00    +0.157 HD
ATOM      7  H   UNL     1     -35.927  27.061   5.957  0.00  0.00    +0.157 HD
ENDBRANCH   2   4
ENDBRANCH   1   2
BRANCH   1   8
ATOM      8  C   UNL     1     -36.617  22.690   2.607  0.00  0.00    +0.170 C 
BRANCH   8   9
ATOM      9  O   UNL     1     -37.901  22.252   3.049  0.00  0.00    -0.380 OA
ATOM     10  H   UNL     1     -37.991  21.300   2.888  0.00  0.00    +0.211 HD
ENDBRANCH   8   9
BRANCH   8  11
ATOM     11  C   UNL     1     -35.557  21.751   3.202  0.00  0.00    +0.238 C 
BRANCH  11  12
ATOM     12  O   UNL     1     -35.836  21.474   4.568  0.00  0.00    -0.373 OA
ATOM     13  H   UNL     1     -36.757  21.180   4.657  0.00  0.00    +0.211 HD
ENDBRANCH  11  12
BRANCH  11  15
ATOM     14  O   UNL     1     -34.572  19.951   1.883  0.00  0.00    -0.248 OA
ATOM     15  C   UNL     1     -35.526  20.410   2.495  0.00  0.00    +0.344 C 
BRANCH  15  16
ATOM     16  O   UNL     1     -36.720  19.775   2.602  0.00  0.00    -0.478 OA
ATOM     17  H   UNL     1     -37.507  20.207   2.332  0.00  0.00    +0.295 HD
ENDBRANCH  15  16
ENDBRANCH  11  15
ENDBRANCH   8  11
ENDBRANCH   1   8
BRANCH   1  18
ATOM     18  CA  UNL     1     -37.157  25.180   2.076  0.00  0.00    +0.159 C 
BRANCH  18  20
ATOM     19  O   UNL     1     -39.621  26.496   2.865  0.00  0.00    -0.275 OA
ATOM     20  N   UNL     1     -38.502  24.786   1.748  0.00  0.00    -0.298 N 
ATOM     21  C   UNL     1     -39.626  25.481   2.172  0.00  0.00    +0.223 C 
ATOM     22  C   UNL     1     -40.904  24.868   1.669  0.00  0.00    +0.095 C 
ATOM     23  H   UNL     1     -38.631  23.981   1.195  0.00  0.00    +0.150 HD
ENDBRANCH  18  20
BRANCH  18  25
ATOM     24  O   UNL     1     -36.837  24.906  -0.308  0.00  0.00    -0.286 OA
ATOM     25  C   UNL     1     -36.453  25.396   0.750  0.00  0.00    +0.229 C 
ENDBRANCH  18  25
ENDBRANCH   1  18
TORSDOF 11
ENDMDL
MODEL 5
REMARK VINA RESULT:      -4.7      2.138      5.018
REMARK  Name = 196383
REMARK  11 active torsions:
REMARK  status: ('A' for Active; 'I' for Inactive)
REMARK    1  A    between atoms: C_1  and  N_2
REMARK    2  A    between atoms: C_1  and  C_8
REMARK    3  A    between atoms: C_1  and  CA_18
REMARK    4  A    between atoms: N_2  and  C_4
REMARK    5  A    between atoms: C_8  and  O_9
REMARK    6  A    between atoms: C_8  and  C_11
REMARK    7  A    between atoms: C_11  and  O_12
REMARK    8  A    between atoms: C_11  and  C_15
REMARK    9  A    between atoms: C_15  and  O_16
REMARK   10  A    between atoms: CA_18  and  N_20
REMARK   11  A    between atoms: CA_18  and  C_25
REMARK                            x       y       z     vdW  Elec       q    Type
REMARK                         _______ _______ _______ _____ _____    ______ ____
ROOT
ATOM      1  C   UNL     1     -36.519  22.469   3.367  0.00  0.00    +0.149 C 
ENDROOT
BRANCH   1   2
ATOM      2  N   UNL     1     -37.405  23.032   2.330  0.00  0.00    -0.223 NA
BRANCH   2   4
ATOM      3  N   UNL     1     -39.091  21.319   2.221  0.00  0.00    -0.389 N 
ATOM      4  C   UNL     1     -38.616  22.605   2.331  0.00  0.00    +0.095 C 
ATOM      5  C   UNL     1     -39.681  23.673   2.459  0.00  0.00    +0.068 C 
ATOM      6  H   UNL     1     -38.461  20.566   2.135  0.00  0.00    +0.157 HD
ATOM      7  H   UNL     1     -40.061  21.149   2.230  0.00  0.00    +0.157 HD
ENDBRANCH   2   4
ENDBRANCH   1   2
BRANCH   1   8
ATOM      8  C   UNL     1     -35.282  21.867   2.662  0.00  0.00    +0.170 C 
BRANCH   8   9
ATOM      9  O   UNL     1     -34.957  22.636   1.505  0.00  0.00    -0.380 OA
ATOM     10  H   UNL     1     -35.765  23.027   1.138  0.00  0.00    +0.211 HD
ENDBRANCH   8   9
BRANCH   8  11
ATOM     11  C   UNL     1     -35.462  20.403   2.230  0.00  0.00    +0.238 C 
BRANCH  11  12
ATOM     12  O   UNL     1     -36.667  19.864   2.758  0.00  0.00    -0.373 OA
ATOM     13  H   UNL     1     -37.149  20.557   3.236  0.00  0.00    +0.211 HD
ENDBRANCH  11  12
BRANCH  11  15
ATOM     14  O   UNL     1     -34.652  19.915  -0.019  0.00  0.00    -0.248 OA
ATOM     15  C   UNL     1     -35.560  20.264   0.723  0.00  0.00    +0.344 C 
BRANCH  15  16
ATOM     16  O   UNL     1     -36.796  20.607   0.281  0.00  0.00    -0.478 OA
ATOM     17  H   UNL     1     -36.946  21.460  -0.077  0.00  0.00    +0.295 HD
ENDBRANCH  15  16
ENDBRANCH  11  15
ENDBRANCH   8  11
ENDBRANCH   1   8
BRANCH   1  18
ATOM     18  CA  UNL     1     -36.214  23.556   4.409  0.00  0.00    +0.159 C 
BRANCH  18  20
ATOM     19  O   UNL     1     -36.103  26.276   5.415  0.00  0.00    -0.275 OA
ATOM     20  N   UNL     1     -35.412  24.641   3.907  0.00  0.00    -0.298 N 
ATOM     21  C   UNL     1     -35.425  25.916   4.455  0.00  0.00    +0.223 C 
ATOM     22  C   UNL     1     -34.477  26.852   3.756  0.00  0.00    +0.095 C 
ATOM     23  H   UNL     1     -34.826  24.471   3.134  0.00  0.00    +0.150 HD
ENDBRANCH  18  20
BRANCH  18  25
ATOM     24  O   UNL     1     -35.951  22.206   6.402  0.00  0.00    -0.286 OA
ATOM     25  C   UNL     1     -35.463  23.005   5.606  0.00  0.00    +0.229 C 
ENDBRANCH  18  25
ENDBRANCH   1  18
TORSDOF 11
ENDMDL
MODEL 6
REMARK VINA RESULT:      -4.6      2.534      4.995
REMARK  Name = 196383
REMARK  11 active torsions:
REMARK  status: ('A' for Active; 'I' for Inactive)
REMARK    1  A    between atoms: C_1  and  N_2
REMARK    2  A    between atoms: C_1  and  C_8
REMARK    3  A    between atoms: C_1  and  CA_18
REMARK    4  A    between atoms: N_2  and  C_4
REMARK    5  A    between atoms: C_8  and  O_9
REMARK    6  A    between atoms: C_8  and  C_11
REMARK    7  A    between atoms: C_11  and  O_12
REMARK    8  A    between atoms: C_11  and  C_15
REMARK    9  A    between atoms: C_15  and  O_16
REMARK   10  A    between atoms: CA_18  and  N_20
REMARK   11  A    between atoms: CA_18  and  C_25
REMARK                            x       y       z     vdW  Elec       q    Type
REMARK                         _______ _______ _______ _____ _____    ______ ____
ROOT
ATOM      1  C   UNL     1     -36.493  24.471   4.647  0.00  0.00    +0.149 C 
ENDROOT
BRANCH   1   2
ATOM      2  N   UNL     1     -35.461  23.462   4.342  0.00  0.00    -0.223 NA
BRANCH   2   4
ATOM      3  N   UNL     1     -35.979  22.104   6.260  0.00  0.00    -0.389 N 
ATOM      4  C   UNL     1     -35.557  22.347   4.973  0.00  0.00    +0.095 C 
ATOM      5  C   UNL     1     -35.134  21.121   4.195  0.00  0.00    +0.068 C 
ATOM      6  H   UNL     1     -36.271  22.851   6.832  0.00  0.00    +0.157 HD
ATOM      7  H   UNL     1     -35.989  21.183   6.609  0.00  0.00    +0.157 HD
ENDBRANCH   2   4
ENDBRANCH   1   2
BRANCH   1   8
ATOM      8  C   UNL     1     -35.780  25.737   5.176  0.00  0.00    +0.170 C 
BRANCH   8   9
ATOM      9  O   UNL     1     -36.746  26.700   5.599  0.00  0.00    -0.380 OA
ATOM     10  H   UNL     1     -36.292  27.496   5.915  0.00  0.00    +0.211 HD
ENDBRANCH   8   9
BRANCH   8  11
ATOM     11  C   UNL     1     -34.853  26.405   4.149  0.00  0.00    +0.238 C 
BRANCH  11  12
ATOM     12  O   UNL     1     -35.404  27.634   3.694  0.00  0.00    -0.373 OA
ATOM     13  H   UNL     1     -35.363  27.668   2.725  0.00  0.00    +0.211 HD
ENDBRANCH  11  12
BRANCH  11  15
ATOM     14  O   UNL     1     -32.464  26.897   4.110  0.00  0.00    -0.248 OA
ATOM     15  C   UNL     1     -33.499  26.743   4.743  0.00  0.00    +0.344 C 
BRANCH  15  16
ATOM     16  O   UNL     1     -33.568  26.830   6.095  0.00  0.00    -0.478 OA
ATOM     17  H   UNL     1     -33.322  26.097   6.625  0.00  0.00    +0.295 HD
ENDBRANCH  15  16
ENDBRANCH  11  15
ENDBRANCH   8  11
ENDBRANCH   1   8
BRANCH   1  18
ATOM     18  CA  UNL     1     -37.369  24.684   3.404  0.00  0.00    +0.159 C 
BRANCH  18  20
ATOM     19  O   UNL     1     -39.025  26.637   2.036  0.00  0.00    -0.275 OA
ATOM     20  N   UNL     1     -38.733  25.035   3.701  0.00  0.00    -0.298 N 
ATOM     21  C   UNL     1     -39.449  25.986   2.988  0.00  0.00    +0.223 C 
ATOM     22  C   UNL     1     -40.859  26.140   3.491  0.00  0.00    +0.095 C 
ATOM     23  H   UNL     1     -39.181  24.577   4.449  0.00  0.00    +0.150 HD
ENDBRANCH  18  20
BRANCH  18  25
ATOM     24  O   UNL     1     -38.405  22.686   2.513  0.00  0.00    -0.286 OA
ATOM     25  C   UNL     1     -37.439  23.443   2.534  0.00  0.00    +0.229 C 
ENDBRANCH  18  25
ENDBRANCH   1  18
TORSDOF 11
ENDMDL
MODEL 7
REMARK VINA RESULT:      -4.6      2.307      4.403
REMARK  Name = 196383
REMARK  11 active torsions:
REMARK  status: ('A' for Active; 'I' for Inactive)
REMARK    1  A    between atoms: C_1  and  N_2
REMARK    2  A    between atoms: C_1  and  C_8
REMARK    3  A    between atoms: C_1  and  CA_18
REMARK    4  A    between atoms: N_2  and  C_4
REMARK    5  A    between atoms: C_8  and  O_9
REMARK    6  A    between atoms: C_8  and  C_11
REMARK    7  A    between atoms: C_11  and  O_12
REMARK    8  A    between atoms: C_11  and  C_15
REMARK    9  A    between atoms: C_15  and  O_16
REMARK   10  A    between atoms: CA_18  and  N_20
REMARK   11  A    between atoms: CA_18  and  C_25
REMARK                            x       y       z     vdW  Elec       q    Type
REMARK                         _______ _______ _______ _____ _____    ______ ____
ROOT
ATOM      1  C   UNL     1     -36.114  24.618   3.793  0.00  0.00    +0.149 C 
ENDROOT
BRANCH   1   2
ATOM      2  N   UNL     1     -36.318  23.824   5.020  0.00  0.00    -0.223 NA
BRANCH   2   4
ATOM      3  N   UNL     1     -35.750  21.731   3.976  0.00  0.00    -0.389 N 
ATOM      4  C   UNL     1     -35.832  22.635   5.010  0.00  0.00    +0.095 C 
ATOM      5  C   UNL     1     -35.277  22.149   6.332  0.00  0.00    +0.068 C 
ATOM      6  H   UNL     1     -36.089  21.972   3.083  0.00  0.00    +0.157 HD
ATOM      7  H   UNL     1     -35.352  20.843   4.128  0.00  0.00    +0.157 HD
ENDBRANCH   2   4
ENDBRANCH   1   2
BRANCH   1   8
ATOM      8  C   UNL     1     -37.499  24.879   3.158  0.00  0.00    +0.170 C 
BRANCH   8   9
ATOM      9  O   UNL     1     -38.527  24.672   4.127  0.00  0.00    -0.380 OA
ATOM     10  H   UNL     1     -39.317  24.321   3.690  0.00  0.00    +0.211 HD
ENDBRANCH   8   9
BRANCH   8  11
ATOM     11  C   UNL     1     -37.803  23.995   1.939  0.00  0.00    +0.238 C 
BRANCH  11  12
ATOM     12  O   UNL     1     -36.650  23.263   1.545  0.00  0.00    -0.373 OA
ATOM     13  H   UNL     1     -35.998  23.868   1.158  0.00  0.00    +0.211 HD
ENDBRANCH  11  12
BRANCH  11  15
ATOM     14  O   UNL     1     -40.082  23.156   2.167  0.00  0.00    -0.248 OA
ATOM     15  C   UNL     1     -38.876  22.966   2.238  0.00  0.00    +0.344 C 
BRANCH  15  16
ATOM     16  O   UNL     1     -38.328  21.789   2.630  0.00  0.00    -0.478 OA
ATOM     17  H   UNL     1     -37.412  21.739   2.823  0.00  0.00    +0.295 HD
ENDBRANCH  15  16
ENDBRANCH  11  15
ENDBRANCH   8  11
ENDBRANCH   1   8
BRANCH   1  18
ATOM     18  CA  UNL     1     -35.304  25.876   4.140  0.00  0.00    +0.159 C 
BRANCH  18  20
ATOM     19  O   UNL     1     -34.787  28.649   3.452  0.00  0.00    -0.275 OA
ATOM     20  N   UNL     1     -34.498  26.372   3.055  0.00  0.00    -0.298 N 
ATOM     21  C   UNL     1     -34.307  27.723   2.802  0.00  0.00    +0.223 C 
ATOM     22  C   UNL     1     -33.402  27.964   1.624  0.00  0.00    +0.095 C 
ATOM     23  H   UNL     1     -34.061  25.719   2.462  0.00  0.00    +0.150 HD
ENDBRANCH  18  20
BRANCH  18  25
ATOM     24  O   UNL     1     -34.039  26.512   6.103  0.00  0.00    -0.286 OA
ATOM     25  C   UNL     1     -34.349  25.642   5.294  0.00  0.00    +0.229 C 
ENDBRANCH  18  25
ENDBRANCH   1  18
TORSDOF 11
ENDMDL
MODEL 8
REMARK VINA RESULT:      -4.6      2.099      3.809
REMARK  Name = 196383
REMARK  11 active torsions:
REMARK  status: ('A' for Active; 'I' for Inactive)
REMARK    1  A    between atoms: C_1  and  N_2
REMARK    2  A    between atoms: C_1  and  C_8
REMARK    3  A    between atoms: C_1  and  CA_18
REMARK    4  A    between atoms: N_2  and  C_4
REMARK    5  A    between atoms: C_8  and  O_9
REMARK    6  A    between atoms: C_8  and  C_11
REMARK    7  A    between atoms: C_11  and  O_12
REMARK    8  A    between atoms: C_11  and  C_15
REMARK    9  A    between atoms: C_15  and  O_16
REMARK   10  A    between atoms: CA_18  and  N_20
REMARK   11  A    between atoms: CA_18  and  C_25
REMARK                            x       y       z     vdW  Elec       q    Type
REMARK                         _______ _______ _______ _____ _____    ______ ____
ROOT
ATOM      1  C   UNL     1     -36.921  23.891   2.427  0.00  0.00    +0.149 C 
ENDROOT
BRANCH   1   2
ATOM      2  N   UNL     1     -37.891  22.795   2.619  0.00  0.00    -0.223 NA
BRANCH   2   4
ATOM      3  N   UNL     1     -37.380  20.468   2.280  0.00  0.00    -0.389 N 
ATOM      4  C   UNL     1     -37.709  21.748   1.897  0.00  0.00    +0.095 C 
ATOM      5  C   UNL     1     -37.866  21.951   0.406  0.00  0.00    +0.068 C 
ATOM      6  H   UNL     1     -37.260  20.254   3.234  0.00  0.00    +0.157 HD
ATOM      7  H   UNL     1     -37.265  19.765   1.600  0.00  0.00    +0.157 HD
ENDBRANCH   2   4
ENDBRANCH   1   2
BRANCH   1   8
ATOM      8  C   UNL     1     -37.508  25.165   3.078  0.00  0.00    +0.170 C 
BRANCH   8   9
ATOM      9  O   UNL     1     -38.163  24.831   4.301  0.00  0.00    -0.380 OA
ATOM     10  H   UNL     1     -37.895  25.455   4.993  0.00  0.00    +0.211 HD
ENDBRANCH   8   9
BRANCH   8  11
ATOM     11  C   UNL     1     -38.508  25.916   2.186  0.00  0.00    +0.238 C 
BRANCH  11  12
ATOM     12  O   UNL     1     -38.461  25.429   0.851  0.00  0.00    -0.373 OA
ATOM     13  H   UNL     1     -38.583  26.167   0.233  0.00  0.00    +0.211 HD
ENDBRANCH  11  12
BRANCH  11  15
ATOM     14  O   UNL     1     -40.692  24.835   2.298  0.00  0.00    -0.248 OA
ATOM     15  C   UNL     1     -39.938  25.729   2.655  0.00  0.00    +0.344 C 
BRANCH  15  16
ATOM     16  O   UNL     1     -40.300  26.711   3.519  0.00  0.00    -0.478 OA
ATOM     17  H   UNL     1     -39.851  26.805   4.337  0.00  0.00    +0.295 HD
ENDBRANCH  15  16
ENDBRANCH  11  15
ENDBRANCH   8  11
ENDBRANCH   1   8
BRANCH   1  18
ATOM     18  CA  UNL     1     -35.553  23.450   2.968  0.00  0.00    +0.159 C 
BRANCH  18  20
ATOM     19  O   UNL     1     -35.211  20.928   4.365  0.00  0.00    -0.275 OA
ATOM     20  N   UNL     1     -35.527  23.236   4.391  0.00  0.00    -0.298 N 
ATOM     21  C   UNL     1     -35.357  21.987   4.972  0.00  0.00    +0.223 C 
ATOM     22  C   UNL     1     -35.343  22.049   6.475  0.00  0.00    +0.095 C 
ATOM     23  H   UNL     1     -35.635  24.016   4.983  0.00  0.00    +0.150 HD
ENDBRANCH  18  20
BRANCH  18  25
ATOM     24  O   UNL     1     -33.903  25.121   3.556  0.00  0.00    -0.286 OA
ATOM     25  C   UNL     1     -34.469  24.471   2.681  0.00  0.00    +0.229 C 
ENDBRANCH  18  25
ENDBRANCH   1  18
TORSDOF 11
ENDMDL
MODEL 9
REMARK VINA RESULT:      -4.5      2.126      4.964
REMARK  Name = 196383
REMARK  11 active torsions:
REMARK  status: ('A' for Active; 'I' for Inactive)
REMARK    1  A    between atoms: C_1  and  N_2
REMARK    2  A    between atoms: C_1  and  C_8
REMARK    3  A    between atoms: C_1  and  CA_18
REMARK    4  A    between atoms: N_2  and  C_4
REMARK    5  A    between atoms: C_8  and  O_9
REMARK    6  A    between atoms: C_8  and  C_11
REMARK    7  A    between atoms: C_11  and  O_12
REMARK    8  A    between atoms: C_11  and  C_15
REMARK    9  A    between atoms: C_15  and  O_16
REMARK   10  A    between atoms: CA_18  and  N_20
REMARK   11  A    between atoms: CA_18  and  C_25
REMARK                            x       y       z     vdW  Elec       q    Type
REMARK                         _______ _______ _______ _____ _____    ______ ____
ROOT
ATOM      1  C   UNL     1     -36.585  24.108   2.982  0.00  0.00    +0.149 C 
ENDROOT
BRANCH   1   2
ATOM      2  N   UNL     1     -36.890  23.943   4.416  0.00  0.00    -0.223 NA
BRANCH   2   4
ATOM      3  N   UNL     1     -35.955  22.395   6.003  0.00  0.00    -0.389 N 
ATOM      4  C   UNL     1     -35.944  23.469   5.143  0.00  0.00    +0.095 C 
ATOM      5  C   UNL     1     -34.624  24.204   5.054  0.00  0.00    +0.068 C 
ATOM      6  H   UNL     1     -36.777  21.864   6.117  0.00  0.00    +0.157 HD
ATOM      7  H   UNL     1     -35.142  22.156   6.504  0.00  0.00    +0.157 HD
ENDBRANCH   2   4
ENDBRANCH   1   2
BRANCH   1   8
ATOM      8  C   UNL     1     -37.111  22.860   2.236  0.00  0.00    +0.170 C 
BRANCH   8   9
ATOM      9  O   UNL     1     -38.035  22.151   3.062  0.00  0.00    -0.380 OA
ATOM     10  H   UNL     1     -38.938  22.311   2.748  0.00  0.00    +0.211 HD
ENDBRANCH   8   9
BRANCH   8  11
ATOM     11  C   UNL     1     -36.009  21.883   1.801  0.00  0.00    +0.238 C 
BRANCH  11  12
ATOM     12  O   UNL     1     -34.733  22.507   1.845  0.00  0.00    -0.373 OA
ATOM     13  H   UNL     1     -34.055  21.882   1.543  0.00  0.00    +0.211 HD
ENDBRANCH  11  12
BRANCH  11  15
ATOM     14  O   UNL     1     -35.183  20.574   3.687  0.00  0.00    -0.248 OA
ATOM     15  C   UNL     1     -35.923  20.679   2.719  0.00  0.00    +0.344 C 
BRANCH  15  16
ATOM     16  O   UNL     1     -36.766  19.696   2.314  0.00  0.00    -0.478 OA
ATOM     17  H   UNL     1     -36.454  19.011   1.755  0.00  0.00    +0.295 HD
ENDBRANCH  15  16
ENDBRANCH  11  15
ENDBRANCH   8  11
ENDBRANCH   1   8
BRANCH   1  18
ATOM     18  CA  UNL     1     -37.157  25.449   2.498  0.00  0.00    +0.159 C 
BRANCH  18  20
ATOM     19  O   UNL     1     -34.808  26.638   1.277  0.00  0.00    -0.275 OA
ATOM     20  N   UNL     1     -36.422  26.599   2.955  0.00  0.00    -0.298 N 
ATOM     21  C   UNL     1     -35.304  27.099   2.302  0.00  0.00    +0.223 C 
ATOM     22  C   UNL     1     -34.743  28.320   2.977  0.00  0.00    +0.095 C 
ATOM     23  H   UNL     1     -36.728  27.053   3.773  0.00  0.00    +0.150 HD
ENDBRANCH  18  20
BRANCH  18  25
ATOM     24  O   UNL     1     -39.276  26.614   2.607  0.00  0.00    -0.286 OA
ATOM     25  C   UNL     1     -38.587  25.660   2.957  0.00  0.00    +0.229 C 
ENDBRANCH  18  25
ENDBRANCH   1  18
TORSDOF 11
ENDMDL
