MODEL 1
REMARK VINA RESULT:      -7.3      0.000      0.000
REMARK  Name = 193609
REMARK  7 active torsions:
REMARK  status: ('A' for Active; 'I' for Inactive)
REMARK    1  A    between atoms: C_19  and  O_20
REMARK    2  A    between atoms: O_20  and  C_22
REMARK    3  A    between atoms: C_23  and  O_27
REMARK    4  A    between atoms: C_24  and  O_29
REMARK    5  A    between atoms: C_25  and  O_31
REMARK    6  A    between atoms: C_26  and  C_33
REMARK    7  A    between atoms: C_33  and  O_34
REMARK                            x       y       z     vdW  Elec       q    Type
REMARK                         _______ _______ _______ _____ _____    ______ ____
ROOT
ATOM      1  O   UNL     1     -28.484  15.317  -1.318  0.00  0.00    -0.296 OA
ATOM      2  C   UNL     1     -29.779  18.525  -1.005  0.00  0.00    +0.007 C 
ATOM      3  C   UNL     1     -30.186  17.053  -1.219  0.00  0.00    +0.052 C 
ATOM      4  C   UNL     1     -31.007  19.423  -0.856  0.00  0.00    +0.005 C 
ATOM      5  C   UNL     1     -31.785  18.976   0.421  0.00  0.00    +0.022 C 
ATOM      6  C   UNL     1     -30.882  16.571   0.049  0.00  0.00    +0.007 C 
ATOM      7  C   UNL     1     -28.763  18.796  -2.109  0.00  0.00    +0.008 C 
ATOM      8  C   UNL     1     -32.099  17.454   0.389  0.00  0.00    +0.005 C 
ATOM      9  C   UNL     1     -30.648  20.904  -0.725  0.00  0.00    +0.005 C 
ATOM     10  C   UNL     1     -28.807  16.484  -1.498  0.00  0.00    +0.150 C 
ATOM     11  C   UNL     1     -27.876  17.542  -2.068  0.00  0.00    +0.064 C 
ATOM     12  C   UNL     1     -31.042  16.760  -2.466  0.00  0.00    +0.007 C 
ATOM     13  C   UNL     1     -32.986  19.881   0.682  0.00  0.00    -0.026 C 
ATOM     14  C   UNL     1     -31.921  21.745  -0.712  0.00  0.00    +0.026 C 
ATOM     15  C   UNL     1     -33.012  21.198   0.176  0.00  0.00    -0.023 C 
ATOM     16  C   UNL     1     -34.048  19.460   1.501  0.00  0.00    -0.001 C 
ATOM     17  C   UNL     1     -34.108  22.034   0.454  0.00  0.00    +0.032 C 
ATOM     18  C   UNL     1     -35.128  20.303   1.776  0.00  0.00    +0.037 C 
ATOM     19  C   UNL     1     -35.161  21.587   1.249  0.00  0.00    +0.141 C 
ENDROOT
BRANCH  19  20
ATOM     20  O   UNL     1     -36.213  22.407   1.513  0.00  0.00    -0.451 OA
BRANCH  20  22
ATOM     21  O   UNL     1     -35.862  23.055   3.727  0.00  0.00    -0.316 OA
ATOM     22  C   UNL     1     -35.973  23.515   2.381  0.00  0.00    +0.318 C 
ATOM     23  C   UNL     1     -37.145  24.486   2.241  0.00  0.00    +0.210 C 
ATOM     24  C   UNL     1     -37.044  25.630   3.250  0.00  0.00    +0.173 C 
ATOM     25  C   UNL     1     -36.765  25.104   4.658  0.00  0.00    +0.169 C 
ATOM     26  C   UNL     1     -35.596  24.116   4.647  0.00  0.00    +0.177 C 
BRANCH  23  27
ATOM     27  O   UNL     1     -37.129  25.018   0.917  0.00  0.00    -0.377 OA
ATOM     28  H   UNL     1     -36.347  24.691   0.447  0.00  0.00    +0.211 HD
ENDBRANCH  23  27
BRANCH  24  29
ATOM     29  O   UNL     1     -38.278  26.347   3.282  0.00  0.00    -0.379 OA
ATOM     30  H   UNL     1     -38.665  26.364   2.394  0.00  0.00    +0.211 HD
ENDBRANCH  24  29
BRANCH  25  31
ATOM     31  O   UNL     1     -36.449  26.197   5.516  0.00  0.00    -0.379 OA
ATOM     32  H   UNL     1     -36.487  27.025   5.012  0.00  0.00    +0.211 HD
ENDBRANCH  25  31
BRANCH  26  33
ATOM     33  C   UNL     1     -35.375  23.488   6.020  0.00  0.00    +0.169 C 
BRANCH  33  34
ATOM     34  O   UNL     1     -36.142  22.300   6.101  0.00  0.00    -0.379 OA
ATOM     35  H   UNL     1     -36.164  21.992   7.021  0.00  0.00    +0.211 HD
ENDBRANCH  33  34
ENDBRANCH  26  33
ENDBRANCH  20  22
ENDBRANCH  19  20
TORSDOF 7
ENDMDL
MODEL 2
REMARK VINA RESULT:      -7.3      1.421      2.526
REMARK  Name = 193609
REMARK  7 active torsions:
REMARK  status: ('A' for Active; 'I' for Inactive)
REMARK    1  A    between atoms: C_19  and  O_20
REMARK    2  A    between atoms: O_20  and  C_22
REMARK    3  A    between atoms: C_23  and  O_27
REMARK    4  A    between atoms: C_24  and  O_29
REMARK    5  A    between atoms: C_25  and  O_31
REMARK    6  A    between atoms: C_26  and  C_33
REMARK    7  A    between atoms: C_33  and  O_34
REMARK                            x       y       z     vdW  Elec       q    Type
REMARK                         _______ _______ _______ _____ _____    ______ ____
ROOT
ATOM      1  O   UNL     1     -26.938  18.901  -2.842  0.00  0.00    -0.296 OA
ATOM      2  C   UNL     1     -29.746  18.152  -0.940  0.00  0.00    +0.007 C 
ATOM      3  C   UNL     1     -28.715  19.264  -1.221  0.00  0.00    +0.052 C 
ATOM      4  C   UNL     1     -30.836  18.636   0.017  0.00  0.00    +0.005 C 
ATOM      5  C   UNL     1     -31.605  19.805  -0.674  0.00  0.00    +0.022 C 
ATOM      6  C   UNL     1     -29.431  20.387  -1.965  0.00  0.00    +0.007 C 
ATOM      7  C   UNL     1     -28.897  16.938  -0.580  0.00  0.00    +0.008 C 
ATOM      8  C   UNL     1     -30.632  20.916  -1.158  0.00  0.00    +0.005 C 
ATOM      9  C   UNL     1     -31.832  17.536   0.387  0.00  0.00    +0.005 C 
ATOM     10  C   UNL     1     -27.721  18.442  -2.020  0.00  0.00    +0.150 C 
ATOM     11  C   UNL     1     -27.791  16.971  -1.646  0.00  0.00    +0.064 C 
ATOM     12  C   UNL     1     -27.953  19.808   0.002  0.00  0.00    +0.007 C 
ATOM     13  C   UNL     1     -32.765  20.290   0.191  0.00  0.00    -0.026 C 
ATOM     14  C   UNL     1     -32.807  18.056   1.440  0.00  0.00    +0.026 C 
ATOM     15  C   UNL     1     -33.347  19.435   1.153  0.00  0.00    -0.023 C 
ATOM     16  C   UNL     1     -33.338  21.558  -0.006  0.00  0.00    -0.001 C 
ATOM     17  C   UNL     1     -34.439  19.883   1.918  0.00  0.00    +0.032 C 
ATOM     18  C   UNL     1     -34.427  21.987   0.756  0.00  0.00    +0.037 C 
ATOM     19  C   UNL     1     -34.975  21.153   1.721  0.00  0.00    +0.141 C 
ENDROOT
BRANCH  19  20
ATOM     20  O   UNL     1     -36.033  21.570   2.465  0.00  0.00    -0.451 OA
BRANCH  20  22
ATOM     21  O   UNL     1     -35.284  23.211   3.945  0.00  0.00    -0.316 OA
ATOM     22  C   UNL     1     -36.090  22.957   2.796  0.00  0.00    +0.318 C 
ATOM     23  C   UNL     1     -37.549  23.316   3.075  0.00  0.00    +0.210 C 
ATOM     24  C   UNL     1     -37.681  24.752   3.585  0.00  0.00    +0.173 C 
ATOM     25  C   UNL     1     -36.687  25.033   4.712  0.00  0.00    +0.169 C 
ATOM     26  C   UNL     1     -35.277  24.591   4.315  0.00  0.00    +0.177 C 
BRANCH  23  27
ATOM     27  O   UNL     1     -38.285  23.176   1.861  0.00  0.00    -0.377 OA
ATOM     28  H   UNL     1     -38.661  24.034   1.610  0.00  0.00    +0.211 HD
ENDBRANCH  23  27
BRANCH  24  29
ATOM     29  O   UNL     1     -38.999  24.956   4.097  0.00  0.00    -0.379 OA
ATOM     30  H   UNL     1     -39.527  24.155   3.957  0.00  0.00    +0.211 HD
ENDBRANCH  24  29
BRANCH  25  31
ATOM     31  O   UNL     1     -36.681  26.429   4.998  0.00  0.00    -0.379 OA
ATOM     32  H   UNL     1     -37.438  26.851   4.563  0.00  0.00    +0.211 HD
ENDBRANCH  25  31
BRANCH  26  33
ATOM     33  C   UNL     1     -34.289  24.753   5.467  0.00  0.00    +0.169 C 
BRANCH  33  34
ATOM     34  O   UNL     1     -33.579  25.965   5.284  0.00  0.00    -0.379 OA
ATOM     35  H   UNL     1     -33.865  26.611   5.949  0.00  0.00    +0.211 HD
ENDBRANCH  33  34
ENDBRANCH  26  33
ENDBRANCH  20  22
ENDBRANCH  19  20
TORSDOF 7
ENDMDL
MODEL 3
REMARK VINA RESULT:      -7.3      5.815      9.225
REMARK  Name = 193609
REMARK  7 active torsions:
REMARK  status: ('A' for Active; 'I' for Inactive)
REMARK    1  A    between atoms: C_19  and  O_20
REMARK    2  A    between atoms: O_20  and  C_22
REMARK    3  A    between atoms: C_23  and  O_27
REMARK    4  A    between atoms: C_24  and  O_29
REMARK    5  A    between atoms: C_25  and  O_31
REMARK    6  A    between atoms: C_26  and  C_33
REMARK    7  A    between atoms: C_33  and  O_34
REMARK                            x       y       z     vdW  Elec       q    Type
REMARK                         _______ _______ _______ _____ _____    ______ ____
ROOT
ATOM      1  O   UNL     1     -30.071  31.818   3.460  0.00  0.00    -0.296 OA
ATOM      2  C   UNL     1     -31.747  29.143   4.911  0.00  0.00    +0.007 C 
ATOM      3  C   UNL     1     -31.760  30.081   3.686  0.00  0.00    +0.052 C 
ATOM      4  C   UNL     1     -32.817  28.059   4.789  0.00  0.00    +0.005 C 
ATOM      5  C   UNL     1     -32.482  27.183   3.542  0.00  0.00    +0.022 C 
ATOM      6  C   UNL     1     -31.360  29.260   2.465  0.00  0.00    +0.007 C 
ATOM      7  C   UNL     1     -31.749  30.090   6.106  0.00  0.00    +0.008 C 
ATOM      8  C   UNL     1     -32.301  28.055   2.269  0.00  0.00    +0.005 C 
ATOM      9  C   UNL     1     -32.893  27.157   6.023  0.00  0.00    +0.005 C 
ATOM     10  C   UNL     1     -30.751  31.101   4.183  0.00  0.00    +0.150 C 
ATOM     11  C   UNL     1     -30.713  31.149   5.701  0.00  0.00    +0.064 C 
ATOM     12  C   UNL     1     -33.071  30.848   3.434  0.00  0.00    +0.007 C 
ATOM     13  C   UNL     1     -33.466  26.025   3.400  0.00  0.00    -0.026 C 
ATOM     14  C   UNL     1     -34.063  26.188   5.884  0.00  0.00    +0.026 C 
ATOM     15  C   UNL     1     -34.170  25.541   4.524  0.00  0.00    -0.023 C 
ATOM     16  C   UNL     1     -33.629  25.356   2.174  0.00  0.00    -0.001 C 
ATOM     17  C   UNL     1     -35.046  24.450   4.386  0.00  0.00    +0.032 C 
ATOM     18  C   UNL     1     -34.497  24.268   2.053  0.00  0.00    +0.037 C 
ATOM     19  C   UNL     1     -35.209  23.818   3.157  0.00  0.00    +0.141 C 
ENDROOT
BRANCH  19  20
ATOM     20  O   UNL     1     -36.057  22.761   3.039  0.00  0.00    -0.451 OA
BRANCH  20  22
ATOM     21  O   UNL     1     -37.853  24.176   2.575  0.00  0.00    -0.316 OA
ATOM     22  C   UNL     1     -37.219  22.946   2.231  0.00  0.00    +0.318 C 
ATOM     23  C   UNL     1     -38.160  21.768   2.483  0.00  0.00    +0.210 C 
ATOM     24  C   UNL     1     -39.498  21.963   1.770  0.00  0.00    +0.173 C 
ATOM     25  C   UNL     1     -40.070  23.355   2.036  0.00  0.00    +0.169 C 
ATOM     26  C   UNL     1     -39.014  24.433   1.782  0.00  0.00    +0.177 C 
BRANCH  23  27
ATOM     27  O   UNL     1     -37.532  20.582   1.998  0.00  0.00    -0.377 OA
ATOM     28  H   UNL     1     -36.578  20.630   2.164  0.00  0.00    +0.211 HD
ENDBRANCH  23  27
BRANCH  24  29
ATOM     29  O   UNL     1     -40.438  21.000   2.250  0.00  0.00    -0.379 OA
ATOM     30  H   UNL     1     -40.024  20.123   2.263  0.00  0.00    +0.211 HD
ENDBRANCH  24  29
BRANCH  25  31
ATOM     31  O   UNL     1     -41.186  23.578   1.178  0.00  0.00    -0.379 OA
ATOM     32  H   UNL     1     -41.196  24.506   0.896  0.00  0.00    +0.211 HD
ENDBRANCH  25  31
BRANCH  26  33
ATOM     33  C   UNL     1     -39.525  25.823   2.153  0.00  0.00    +0.169 C 
BRANCH  33  34
ATOM     34  O   UNL     1     -38.923  26.213   3.375  0.00  0.00    -0.379 OA
ATOM     35  H   UNL     1     -39.449  26.918   3.784  0.00  0.00    +0.211 HD
ENDBRANCH  33  34
ENDBRANCH  26  33
ENDBRANCH  20  22
ENDBRANCH  19  20
TORSDOF 7
ENDMDL
MODEL 4
REMARK VINA RESULT:      -7.1      4.741      7.330
REMARK  Name = 193609
REMARK  7 active torsions:
REMARK  status: ('A' for Active; 'I' for Inactive)
REMARK    1  A    between atoms: C_19  and  O_20
REMARK    2  A    between atoms: O_20  and  C_22
REMARK    3  A    between atoms: C_23  and  O_27
REMARK    4  A    between atoms: C_24  and  O_29
REMARK    5  A    between atoms: C_25  and  O_31
REMARK    6  A    between atoms: C_26  and  C_33
REMARK    7  A    between atoms: C_33  and  O_34
REMARK                            x       y       z     vdW  Elec       q    Type
REMARK                         _______ _______ _______ _____ _____    ______ ____
ROOT
ATOM      1  O   UNL     1     -35.558  19.589  -1.592  0.00  0.00    -0.296 OA
ATOM      2  C   UNL     1     -35.910  21.246   1.440  0.00  0.00    +0.007 C 
ATOM      3  C   UNL     1     -34.893  20.934   0.323  0.00  0.00    +0.052 C 
ATOM      4  C   UNL     1     -35.317  22.200   2.477  0.00  0.00    +0.005 C 
ATOM      5  C   UNL     1     -34.992  23.551   1.767  0.00  0.00    +0.022 C 
ATOM      6  C   UNL     1     -34.619  22.229  -0.434  0.00  0.00    +0.007 C 
ATOM      7  C   UNL     1     -36.428  19.878   1.867  0.00  0.00    +0.008 C 
ATOM      8  C   UNL     1     -34.104  23.332   0.511  0.00  0.00    +0.005 C 
ATOM      9  C   UNL     1     -36.265  22.469   3.647  0.00  0.00    +0.005 C 
ATOM     10  C   UNL     1     -35.694  19.873  -0.409  0.00  0.00    +0.150 C 
ATOM     11  C   UNL     1     -36.669  19.173   0.523  0.00  0.00    +0.064 C 
ATOM     12  C   UNL     1     -33.580  20.264   0.769  0.00  0.00    +0.007 C 
ATOM     13  C   UNL     1     -34.468  24.585   2.760  0.00  0.00    -0.026 C 
ATOM     14  C   UNL     1     -35.559  23.319   4.699  0.00  0.00    +0.026 C 
ATOM     15  C   UNL     1     -34.782  24.482   4.133  0.00  0.00    -0.023 C 
ATOM     16  C   UNL     1     -33.740  25.706   2.326  0.00  0.00    -0.001 C 
ATOM     17  C   UNL     1     -34.323  25.462   5.031  0.00  0.00    +0.032 C 
ATOM     18  C   UNL     1     -33.297  26.676   3.228  0.00  0.00    +0.037 C 
ATOM     19  C   UNL     1     -33.583  26.552   4.581  0.00  0.00    +0.141 C 
ENDROOT
BRANCH  19  20
ATOM     20  O   UNL     1     -33.150  27.493   5.460  0.00  0.00    -0.451 OA
BRANCH  20  22
ATOM     21  O   UNL     1     -30.926  27.781   6.106  0.00  0.00    -0.316 OA
ATOM     22  C   UNL     1     -31.922  28.153   5.155  0.00  0.00    +0.318 C 
ATOM     23  C   UNL     1     -32.172  29.660   5.202  0.00  0.00    +0.210 C 
ATOM     24  C   UNL     1     -30.870  30.446   5.035  0.00  0.00    +0.173 C 
ATOM     25  C   UNL     1     -29.778  29.911   5.961  0.00  0.00    +0.169 C 
ATOM     26  C   UNL     1     -29.661  28.390   5.841  0.00  0.00    +0.177 C 
BRANCH  23  27
ATOM     27  O   UNL     1     -33.069  29.999   4.146  0.00  0.00    -0.377 OA
ATOM     28  H   UNL     1     -32.786  29.559   3.329  0.00  0.00    +0.211 HD
ENDBRANCH  23  27
BRANCH  24  29
ATOM     29  O   UNL     1     -31.097  31.817   5.364  0.00  0.00    -0.379 OA
ATOM     30  H   UNL     1     -30.252  32.293   5.366  0.00  0.00    +0.211 HD
ENDBRANCH  24  29
BRANCH  25  31
ATOM     31  O   UNL     1     -28.532  30.508   5.613  0.00  0.00    -0.379 OA
ATOM     32  H   UNL     1     -27.809  29.898   5.831  0.00  0.00    +0.211 HD
ENDBRANCH  25  31
BRANCH  26  33
ATOM     33  C   UNL     1     -28.658  27.820   6.841  0.00  0.00    +0.169 C 
BRANCH  33  34
ATOM     34  O   UNL     1     -28.593  28.689   7.958  0.00  0.00    -0.379 OA
ATOM     35  H   UNL     1     -27.835  28.446   8.512  0.00  0.00    +0.211 HD
ENDBRANCH  33  34
ENDBRANCH  26  33
ENDBRANCH  20  22
ENDBRANCH  19  20
TORSDOF 7
ENDMDL
MODEL 5
REMARK VINA RESULT:      -6.9      4.763      7.684
REMARK  Name = 193609
REMARK  7 active torsions:
REMARK  status: ('A' for Active; 'I' for Inactive)
REMARK    1  A    between atoms: C_19  and  O_20
REMARK    2  A    between atoms: O_20  and  C_22
REMARK    3  A    between atoms: C_23  and  O_27
REMARK    4  A    between atoms: C_24  and  O_29
REMARK    5  A    between atoms: C_25  and  O_31
REMARK    6  A    between atoms: C_26  and  C_33
REMARK    7  A    between atoms: C_33  and  O_34
REMARK                            x       y       z     vdW  Elec       q    Type
REMARK                         _______ _______ _______ _____ _____    ______ ____
ROOT
ATOM      1  O   UNL     1     -35.922  20.119  -1.366  0.00  0.00    -0.296 OA
ATOM      2  C   UNL     1     -35.732  21.637   1.752  0.00  0.00    +0.007 C 
ATOM      3  C   UNL     1     -34.986  21.493   0.410  0.00  0.00    +0.052 C 
ATOM      4  C   UNL     1     -35.030  22.635   2.672  0.00  0.00    +0.005 C 
ATOM      5  C   UNL     1     -35.058  24.035   1.983  0.00  0.00    +0.022 C 
ATOM      6  C   UNL     1     -35.068  22.831  -0.316  0.00  0.00    +0.007 C 
ATOM      7  C   UNL     1     -35.956  20.201   2.211  0.00  0.00    +0.008 C 
ATOM      8  C   UNL     1     -34.480  23.970   0.542  0.00  0.00    +0.005 C 
ATOM      9  C   UNL     1     -35.691  22.744   4.047  0.00  0.00    +0.005 C 
ATOM     10  C   UNL     1     -35.801  20.352  -0.171  0.00  0.00    +0.150 C 
ATOM     11  C   UNL     1     -36.426  19.504   0.925  0.00  0.00    +0.064 C 
ATOM     12  C   UNL     1     -33.531  20.995   0.493  0.00  0.00    +0.007 C 
ATOM     13  C   UNL     1     -34.442  25.105   2.881  0.00  0.00    -0.026 C 
ATOM     14  C   UNL     1     -34.863  23.655   4.948  0.00  0.00    +0.026 C 
ATOM     15  C   UNL     1     -34.398  24.927   4.281  0.00  0.00    -0.023 C 
ATOM     16  C   UNL     1     -33.987  26.325   2.351  0.00  0.00    -0.001 C 
ATOM     17  C   UNL     1     -33.861  25.936   5.099  0.00  0.00    +0.032 C 
ATOM     18  C   UNL     1     -33.463  27.322   3.175  0.00  0.00    +0.037 C 
ATOM     19  C   UNL     1     -33.395  27.127   4.549  0.00  0.00    +0.141 C 
ENDROOT
BRANCH  19  20
ATOM     20  O   UNL     1     -32.882  28.096   5.352  0.00  0.00    -0.451 OA
BRANCH  20  22
ATOM     21  O   UNL     1     -30.930  27.602   4.174  0.00  0.00    -0.316 OA
ATOM     22  C   UNL     1     -31.528  28.484   5.122  0.00  0.00    +0.318 C 
ATOM     23  C   UNL     1     -30.785  28.421   6.456  0.00  0.00    +0.210 C 
ATOM     24  C   UNL     1     -29.288  28.676   6.273  0.00  0.00    +0.173 C 
ATOM     25  C   UNL     1     -28.717  27.825   5.138  0.00  0.00    +0.169 C 
ATOM     26  C   UNL     1     -29.577  27.952   3.878  0.00  0.00    +0.177 C 
BRANCH  23  27
ATOM     27  O   UNL     1     -31.333  29.415   7.321  0.00  0.00    -0.377 OA
ATOM     28  H   UNL     1     -30.662  29.685   7.968  0.00  0.00    +0.211 HD
ENDBRANCH  23  27
BRANCH  24  29
ATOM     29  O   UNL     1     -28.597  28.333   7.474  0.00  0.00    -0.379 OA
ATOM     30  H   UNL     1     -28.556  29.107   8.056  0.00  0.00    +0.211 HD
ENDBRANCH  24  29
BRANCH  25  31
ATOM     31  O   UNL     1     -27.390  28.257   4.848  0.00  0.00    -0.379 OA
ATOM     32  H   UNL     1     -27.237  29.126   5.251  0.00  0.00    +0.211 HD
ENDBRANCH  25  31
BRANCH  26  33
ATOM     33  C   UNL     1     -29.093  27.022   2.769  0.00  0.00    +0.169 C 
BRANCH  33  34
ATOM     34  O   UNL     1     -28.534  25.864   3.364  0.00  0.00    -0.379 OA
ATOM     35  H   UNL     1     -28.506  25.977   4.327  0.00  0.00    +0.211 HD
ENDBRANCH  33  34
ENDBRANCH  26  33
ENDBRANCH  20  22
ENDBRANCH  19  20
TORSDOF 7
ENDMDL
MODEL 6
REMARK VINA RESULT:      -6.9      5.495      9.111
REMARK  Name = 193609
REMARK  7 active torsions:
REMARK  status: ('A' for Active; 'I' for Inactive)
REMARK    1  A    between atoms: C_19  and  O_20
REMARK    2  A    between atoms: O_20  and  C_22
REMARK    3  A    between atoms: C_23  and  O_27
REMARK    4  A    between atoms: C_24  and  O_29
REMARK    5  A    between atoms: C_25  and  O_31
REMARK    6  A    between atoms: C_26  and  C_33
REMARK    7  A    between atoms: C_33  and  O_34
REMARK                            x       y       z     vdW  Elec       q    Type
REMARK                         _______ _______ _______ _____ _____    ______ ____
ROOT
ATOM      1  O   UNL     1     -29.171  31.541   5.468  0.00  0.00    -0.296 OA
ATOM      2  C   UNL     1     -30.932  29.210   3.588  0.00  0.00    +0.007 C 
ATOM      3  C   UNL     1     -30.215  29.408   4.940  0.00  0.00    +0.052 C 
ATOM      4  C   UNL     1     -31.614  27.844   3.518  0.00  0.00    +0.005 C 
ATOM      5  C   UNL     1     -32.711  27.790   4.627  0.00  0.00    +0.022 C 
ATOM      6  C   UNL     1     -31.278  29.435   6.033  0.00  0.00    +0.007 C 
ATOM      7  C   UNL     1     -29.885  29.596   2.550  0.00  0.00    +0.008 C 
ATOM      8  C   UNL     1     -32.125  28.147   6.022  0.00  0.00    +0.005 C 
ATOM      9  C   UNL     1     -32.267  27.575   2.161  0.00  0.00    +0.005 C 
ATOM     10  C   UNL     1     -29.523  30.722   4.629  0.00  0.00    +0.150 C 
ATOM     11  C   UNL     1     -29.286  30.884   3.136  0.00  0.00    +0.064 C 
ATOM     12  C   UNL     1     -29.104  28.395   5.272  0.00  0.00    +0.007 C 
ATOM     13  C   UNL     1     -33.493  26.481   4.568  0.00  0.00    -0.026 C 
ATOM     14  C   UNL     1     -32.811  26.150   2.123  0.00  0.00    +0.026 C 
ATOM     15  C   UNL     1     -33.564  25.743   3.366  0.00  0.00    -0.023 C 
ATOM     16  C   UNL     1     -34.230  26.024   5.674  0.00  0.00    -0.001 C 
ATOM     17  C   UNL     1     -34.318  24.558   3.316  0.00  0.00    +0.032 C 
ATOM     18  C   UNL     1     -34.981  24.848   5.608  0.00  0.00    +0.037 C 
ATOM     19  C   UNL     1     -35.022  24.112   4.431  0.00  0.00    +0.141 C 
ENDROOT
BRANCH  19  20
ATOM     20  O   UNL     1     -35.749  22.965   4.367  0.00  0.00    -0.451 OA
BRANCH  20  22
ATOM     21  O   UNL     1     -37.808  22.979   3.269  0.00  0.00    -0.316 OA
ATOM     22  C   UNL     1     -36.418  22.687   3.137  0.00  0.00    +0.318 C 
ATOM     23  C   UNL     1     -36.209  21.209   2.811  0.00  0.00    +0.210 C 
ATOM     24  C   UNL     1     -37.021  20.789   1.585  0.00  0.00    +0.173 C 
ATOM     25  C   UNL     1     -38.471  21.260   1.693  0.00  0.00    +0.169 C 
ATOM     26  C   UNL     1     -38.534  22.744   2.061  0.00  0.00    +0.177 C 
BRANCH  23  27
ATOM     27  O   UNL     1     -34.821  20.998   2.555  0.00  0.00    -0.377 OA
ATOM     28  H   UNL     1     -34.614  20.056   2.654  0.00  0.00    +0.211 HD
ENDBRANCH  23  27
BRANCH  24  29
ATOM     29  O   UNL     1     -37.025  19.365   1.481  0.00  0.00    -0.379 OA
ATOM     30  H   UNL     1     -36.991  18.976   2.369  0.00  0.00    +0.211 HD
ENDBRANCH  24  29
BRANCH  25  31
ATOM     31  O   UNL     1     -39.127  21.057   0.444  0.00  0.00    -0.379 OA
ATOM     32  H   UNL     1     -39.048  20.125   0.186  0.00  0.00    +0.211 HD
ENDBRANCH  25  31
BRANCH  26  33
ATOM     33  C   UNL     1     -39.969  23.209   2.289  0.00  0.00    +0.169 C 
BRANCH  33  34
ATOM     34  O   UNL     1     -40.624  23.283   1.035  0.00  0.00    -0.379 OA
ATOM     35  H   UNL     1     -41.575  23.137   1.157  0.00  0.00    +0.211 HD
ENDBRANCH  33  34
ENDBRANCH  26  33
ENDBRANCH  20  22
ENDBRANCH  19  20
TORSDOF 7
ENDMDL
MODEL 7
REMARK VINA RESULT:      -6.6      1.998      2.627
REMARK  Name = 193609
REMARK  7 active torsions:
REMARK  status: ('A' for Active; 'I' for Inactive)
REMARK    1  A    between atoms: C_19  and  O_20
REMARK    2  A    between atoms: O_20  and  C_22
REMARK    3  A    between atoms: C_23  and  O_27
REMARK    4  A    between atoms: C_24  and  O_29
REMARK    5  A    between atoms: C_25  and  O_31
REMARK    6  A    between atoms: C_26  and  C_33
REMARK    7  A    between atoms: C_33  and  O_34
REMARK                            x       y       z     vdW  Elec       q    Type
REMARK                         _______ _______ _______ _____ _____    ______ ____
ROOT
ATOM      1  O   UNL     1     -32.040  14.463  -3.681  0.00  0.00    -0.296 OA
ATOM      2  C   UNL     1     -32.481  16.555  -0.943  0.00  0.00    +0.007 C 
ATOM      3  C   UNL     1     -32.819  16.406  -2.441  0.00  0.00    +0.052 C 
ATOM      4  C   UNL     1     -33.167  17.780  -0.340  0.00  0.00    +0.005 C 
ATOM      5  C   UNL     1     -34.710  17.572  -0.439  0.00  0.00    +0.022 C 
ATOM      6  C   UNL     1     -34.313  16.125  -2.556  0.00  0.00    +0.007 C 
ATOM      7  C   UNL     1     -30.963  16.424  -0.889  0.00  0.00    +0.008 C 
ATOM      8  C   UNL     1     -35.145  17.240  -1.894  0.00  0.00    +0.005 C 
ATOM      9  C   UNL     1     -32.790  18.012   1.124  0.00  0.00    +0.005 C 
ATOM     10  C   UNL     1     -31.882  15.256  -2.762  0.00  0.00    +0.150 C 
ATOM     11  C   UNL     1     -30.692  15.230  -1.816  0.00  0.00    +0.064 C 
ATOM     12  C   UNL     1     -32.404  17.578  -3.350  0.00  0.00    +0.007 C 
ATOM     13  C   UNL     1     -35.467  18.723   0.218  0.00  0.00    -0.026 C 
ATOM     14  C   UNL     1     -33.407  19.317   1.617  0.00  0.00    +0.026 C 
ATOM     15  C   UNL     1     -34.850  19.508   1.216  0.00  0.00    -0.023 C 
ATOM     16  C   UNL     1     -36.816  18.974  -0.087  0.00  0.00    -0.001 C 
ATOM     17  C   UNL     1     -35.570  20.542   1.839  0.00  0.00    +0.032 C 
ATOM     18  C   UNL     1     -37.523  20.000   0.545  0.00  0.00    +0.037 C 
ATOM     19  C   UNL     1     -36.899  20.788   1.504  0.00  0.00    +0.141 C 
ENDROOT
BRANCH  19  20
ATOM     20  O   UNL     1     -37.585  21.789   2.117  0.00  0.00    -0.451 OA
BRANCH  20  22
ATOM     21  O   UNL     1     -36.494  22.475   4.061  0.00  0.00    -0.316 OA
ATOM     22  C   UNL     1     -36.817  22.831   2.718  0.00  0.00    +0.318 C 
ATOM     23  C   UNL     1     -37.653  24.110   2.688  0.00  0.00    +0.210 C 
ATOM     24  C   UNL     1     -36.964  25.243   3.450  0.00  0.00    +0.173 C 
ATOM     25  C   UNL     1     -36.489  24.776   4.826  0.00  0.00    +0.169 C 
ATOM     26  C   UNL     1     -35.701  23.469   4.714  0.00  0.00    +0.177 C 
BRANCH  23  27
ATOM     27  O   UNL     1     -37.832  24.495   1.326  0.00  0.00    -0.377 OA
ATOM     28  H   UNL     1     -36.974  24.735   0.943  0.00  0.00    +0.211 HD
ENDBRANCH  23  27
BRANCH  24  29
ATOM     29  O   UNL     1     -37.885  26.317   3.641  0.00  0.00    -0.379 OA
ATOM     30  H   UNL     1     -38.670  26.171   3.091  0.00  0.00    +0.211 HD
ENDBRANCH  24  29
BRANCH  25  31
ATOM     31  O   UNL     1     -35.658  25.779   5.404  0.00  0.00    -0.379 OA
ATOM     32  H   UNL     1     -35.317  25.465   6.256  0.00  0.00    +0.211 HD
ENDBRANCH  25  31
BRANCH  26  33
ATOM     33  C   UNL     1     -35.318  22.922   6.087  0.00  0.00    +0.169 C 
BRANCH  33  34
ATOM     34  O   UNL     1     -36.161  21.824   6.386  0.00  0.00    -0.379 OA
ATOM     35  H   UNL     1     -35.689  21.201   6.961  0.00  0.00    +0.211 HD
ENDBRANCH  33  34
ENDBRANCH  26  33
ENDBRANCH  20  22
ENDBRANCH  19  20
TORSDOF 7
ENDMDL
MODEL 8
REMARK VINA RESULT:      -6.6      1.568      2.142
REMARK  Name = 193609
REMARK  7 active torsions:
REMARK  status: ('A' for Active; 'I' for Inactive)
REMARK    1  A    between atoms: C_19  and  O_20
REMARK    2  A    between atoms: O_20  and  C_22
REMARK    3  A    between atoms: C_23  and  O_27
REMARK    4  A    between atoms: C_24  and  O_29
REMARK    5  A    between atoms: C_25  and  O_31
REMARK    6  A    between atoms: C_26  and  C_33
REMARK    7  A    between atoms: C_33  and  O_34
REMARK                            x       y       z     vdW  Elec       q    Type
REMARK                         _______ _______ _______ _____ _____    ______ ____
ROOT
ATOM      1  O   UNL     1     -27.717  17.605  -0.864  0.00  0.00    -0.296 OA
ATOM      2  C   UNL     1     -30.109  20.123  -0.834  0.00  0.00    +0.007 C 
ATOM      3  C   UNL     1     -29.941  18.591  -0.888  0.00  0.00    +0.052 C 
ATOM      4  C   UNL     1     -31.584  20.515  -0.740  0.00  0.00    +0.005 C 
ATOM      5  C   UNL     1     -32.153  19.948   0.598  0.00  0.00    +0.022 C 
ATOM      6  C   UNL     1     -30.422  18.021   0.441  0.00  0.00    +0.007 C 
ATOM      7  C   UNL     1     -29.255  20.634  -1.989  0.00  0.00    +0.008 C 
ATOM      8  C   UNL     1     -31.882  18.423   0.727  0.00  0.00    +0.005 C 
ATOM      9  C   UNL     1     -31.799  22.030  -0.768  0.00  0.00    +0.005 C 
ATOM     10  C   UNL     1     -28.447  18.545  -1.150  0.00  0.00    +0.150 C 
ATOM     11  C   UNL     1     -27.968  19.807  -1.849  0.00  0.00    +0.064 C 
ATOM     12  C   UNL     1     -30.616  17.876  -2.074  0.00  0.00    +0.007 C 
ATOM     13  C   UNL     1     -33.606  20.368   0.802  0.00  0.00    -0.026 C 
ATOM     14  C   UNL     1     -33.293  22.338  -0.801  0.00  0.00    +0.026 C 
ATOM     15  C   UNL     1     -34.113  21.523   0.168  0.00  0.00    -0.023 C 
ATOM     16  C   UNL     1     -34.446  19.673   1.690  0.00  0.00    -0.001 C 
ATOM     17  C   UNL     1     -35.443  21.919   0.394  0.00  0.00    +0.032 C 
ATOM     18  C   UNL     1     -35.763  20.081   1.911  0.00  0.00    +0.037 C 
ATOM     19  C   UNL     1     -36.264  21.201   1.260  0.00  0.00    +0.141 C 
ENDROOT
BRANCH  19  20
ATOM     20  O   UNL     1     -37.547  21.598   1.471  0.00  0.00    -0.451 OA
BRANCH  20  22
ATOM     21  O   UNL     1     -37.352  23.360   2.988  0.00  0.00    -0.316 OA
ATOM     22  C   UNL     1     -37.772  22.992   1.675  0.00  0.00    +0.318 C 
ATOM     23  C   UNL     1     -39.266  23.260   1.496  0.00  0.00    +0.210 C 
ATOM     24  C   UNL     1     -39.618  24.706   1.846  0.00  0.00    +0.173 C 
ATOM     25  C   UNL     1     -39.014  25.113   3.190  0.00  0.00    +0.169 C 
ATOM     26  C   UNL     1     -37.527  24.754   3.248  0.00  0.00    +0.177 C 
BRANCH  23  27
ATOM     27  O   UNL     1     -39.606  23.007   0.133  0.00  0.00    -0.377 OA
ATOM     28  H   UNL     1     -40.541  23.221  -0.011  0.00  0.00    +0.211 HD
ENDBRANCH  23  27
BRANCH  24  29
ATOM     29  O   UNL     1     -41.037  24.841   1.940  0.00  0.00    -0.379 OA
ATOM     30  H   UNL     1     -41.426  24.787   1.054  0.00  0.00    +0.211 HD
ENDBRANCH  24  29
BRANCH  25  31
ATOM     31  O   UNL     1     -39.166  26.519   3.369  0.00  0.00    -0.379 OA
ATOM     32  H   UNL     1     -39.219  26.951   2.502  0.00  0.00    +0.211 HD
ENDBRANCH  25  31
BRANCH  26  33
ATOM     33  C   UNL     1     -36.930  25.043   4.623  0.00  0.00    +0.169 C 
BRANCH  33  34
ATOM     34  O   UNL     1     -36.637  26.427   4.704  0.00  0.00    -0.379 OA
ATOM     35  H   UNL     1     -37.263  26.922   4.152  0.00  0.00    +0.211 HD
ENDBRANCH  33  34
ENDBRANCH  26  33
ENDBRANCH  20  22
ENDBRANCH  19  20
TORSDOF 7
ENDMDL
MODEL 9
REMARK VINA RESULT:      -6.6      2.230      2.885
REMARK  Name = 193609
REMARK  7 active torsions:
REMARK  status: ('A' for Active; 'I' for Inactive)
REMARK    1  A    between atoms: C_19  and  O_20
REMARK    2  A    between atoms: O_20  and  C_22
REMARK    3  A    between atoms: C_23  and  O_27
REMARK    4  A    between atoms: C_24  and  O_29
REMARK    5  A    between atoms: C_25  and  O_31
REMARK    6  A    between atoms: C_26  and  C_33
REMARK    7  A    between atoms: C_33  and  O_34
REMARK                            x       y       z     vdW  Elec       q    Type
REMARK                         _______ _______ _______ _____ _____    ______ ____
ROOT
ATOM      1  O   UNL     1     -33.041  12.643  -2.089  0.00  0.00    -0.296 OA
ATOM      2  C   UNL     1     -32.563  15.619  -0.362  0.00  0.00    +0.007 C 
ATOM      3  C   UNL     1     -33.286  15.010  -1.581  0.00  0.00    +0.052 C 
ATOM      4  C   UNL     1     -32.951  17.084  -0.163  0.00  0.00    +0.005 C 
ATOM      5  C   UNL     1     -34.481  17.146   0.138  0.00  0.00    +0.022 C 
ATOM      6  C   UNL     1     -34.779  14.991  -1.276  0.00  0.00    +0.007 C 
ATOM      7  C   UNL     1     -31.102  15.236  -0.565  0.00  0.00    +0.008 C 
ATOM      8  C   UNL     1     -35.303  16.404  -0.952  0.00  0.00    +0.005 C 
ATOM      9  C   UNL     1     -32.191  17.750   0.986  0.00  0.00    +0.005 C 
ATOM     10  C   UNL     1     -32.577  13.668  -1.606  0.00  0.00    +0.150 C 
ATOM     11  C   UNL     1     -31.194  13.760  -0.984  0.00  0.00    +0.064 C 
ATOM     12  C   UNL     1     -33.006  15.679  -2.939  0.00  0.00    +0.007 C 
ATOM     13  C   UNL     1     -34.930  18.576   0.427  0.00  0.00    -0.026 C 
ATOM     14  C   UNL     1     -32.533  19.236   1.039  0.00  0.00    +0.026 C 
ATOM     15  C   UNL     1     -34.005  19.536   0.893  0.00  0.00    -0.023 C 
ATOM     16  C   UNL     1     -36.281  18.948   0.324  0.00  0.00    -0.001 C 
ATOM     17  C   UNL     1     -34.439  20.840   1.191  0.00  0.00    +0.032 C 
ATOM     18  C   UNL     1     -36.700  20.245   0.630  0.00  0.00    +0.037 C 
ATOM     19  C   UNL     1     -35.780  21.192   1.059  0.00  0.00    +0.141 C 
ENDROOT
BRANCH  19  20
ATOM     20  O   UNL     1     -36.186  22.456   1.354  0.00  0.00    -0.451 OA
BRANCH  20  22
ATOM     21  O   UNL     1     -35.867  22.475   3.665  0.00  0.00    -0.316 OA
ATOM     22  C   UNL     1     -35.529  23.115   2.436  0.00  0.00    +0.318 C 
ATOM     23  C   UNL     1     -35.987  24.573   2.447  0.00  0.00    +0.210 C 
ATOM     24  C   UNL     1     -35.446  25.317   3.669  0.00  0.00    +0.173 C 
ATOM     25  C   UNL     1     -35.687  24.521   4.952  0.00  0.00    +0.169 C 
ATOM     26  C   UNL     1     -35.220  23.073   4.789  0.00  0.00    +0.177 C 
BRANCH  23  27
ATOM     27  O   UNL     1     -35.507  25.202   1.259  0.00  0.00    -0.377 OA
ATOM     28  H   UNL     1     -35.085  24.539   0.691  0.00  0.00    +0.211 HD
ENDBRANCH  23  27
BRANCH  24  29
ATOM     29  O   UNL     1     -36.114  26.573   3.795  0.00  0.00    -0.379 OA
ATOM     30  H   UNL     1     -37.061  26.454   3.627  0.00  0.00    +0.211 HD
ENDBRANCH  24  29
BRANCH  25  31
ATOM     31  O   UNL     1     -34.972  25.129   6.025  0.00  0.00    -0.379 OA
ATOM     32  H   UNL     1     -34.126  25.470   5.696  0.00  0.00    +0.211 HD
ENDBRANCH  25  31
BRANCH  26  33
ATOM     33  C   UNL     1     -35.557  22.230   6.016  0.00  0.00    +0.169 C 
BRANCH  33  34
ATOM     34  O   UNL     1     -35.275  20.873   5.721  0.00  0.00    -0.379 OA
ATOM     35  H   UNL     1     -35.710  20.303   6.374  0.00  0.00    +0.211 HD
ENDBRANCH  33  34
ENDBRANCH  26  33
ENDBRANCH  20  22
ENDBRANCH  19  20
TORSDOF 7
ENDMDL
