MODEL 1
REMARK VINA RESULT:      -5.9      0.000      0.000
REMARK  Name = 196016
REMARK  9 active torsions:
REMARK  status: ('A' for Active; 'I' for Inactive)
REMARK    1  A    between atoms: C_2  and  O_7
REMARK    2  A    between atoms: C_3  and  O_9
REMARK    3  A    between atoms: C_4  and  O_11
REMARK    4  A    between atoms: C_5  and  C_23
REMARK    5  A    between atoms: C_6  and  O_13
REMARK    6  A    between atoms: O_13  and  C_14
REMARK    7  A    between atoms: C_14  and  C_15
REMARK    8  A    between atoms: C_15  and  N_18
REMARK    9  A    between atoms: C_23  and  O_24
REMARK                            x       y       z     vdW  Elec       q    Type
REMARK                         _______ _______ _______ _____ _____    ______ ____
ROOT
ATOM      1  O   UNL     1     -35.086  24.358   5.543  0.00  0.00    -0.326 OA
ATOM      2  C   UNL     1     -37.215  24.004   3.657  0.00  0.00    +0.172 C 
ATOM      3  C   UNL     1     -36.299  22.853   4.075  0.00  0.00    +0.169 C 
ATOM      4  C   UNL     1     -36.523  25.354   3.844  0.00  0.00    +0.196 C 
ATOM      5  C   UNL     1     -35.770  23.100   5.492  0.00  0.00    +0.176 C 
ATOM      6  C   UNL     1     -35.933  25.469   5.251  0.00  0.00    +0.266 C 
ENDROOT
BRANCH   2   7
ATOM      7  O   UNL     1     -37.596  23.857   2.292  0.00  0.00    -0.379 OA
ATOM      8  H   UNL     1     -38.514  24.148   2.179  0.00  0.00    +0.211 HD
ENDBRANCH   2   7
BRANCH   3   9
ATOM      9  O   UNL     1     -35.194  22.769   3.173  0.00  0.00    -0.379 OA
ATOM     10  H   UNL     1     -34.726  23.619   3.154  0.00  0.00    +0.211 HD
ENDBRANCH   3   9
BRANCH   4  11
ATOM     11  O   UNL     1     -37.477  26.400   3.665  0.00  0.00    -0.378 OA
ATOM     12  H   UNL     1     -38.372  26.042   3.763  0.00  0.00    +0.211 HD
ENDBRANCH   4  11
BRANCH   6  13
ATOM     13  O   UNL     1     -35.179  26.680   5.312  0.00  0.00    -0.327 OA
BRANCH  13  14
ATOM     14  C   UNL     1     -33.802  26.418   5.537  0.00  0.00    +0.167 C 
BRANCH  14  15
ATOM     15  C   UNL     1     -32.996  27.055   4.416  0.00  0.00    +0.134 C 
BRANCH  15  18
ATOM     16  O   UNL     1     -30.775  27.567   6.277  0.00  0.00    -0.269 OA
ATOM     17  O   UNL     1     -33.835  29.728   3.573  0.00  0.00    -0.269 OA
ATOM     18  N   UNL     1     -32.450  28.336   4.839  0.00  0.00    -0.220 N 
ATOM     19  C   UNL     1     -31.123  29.921   5.903  0.00  0.00    +0.063 C 
ATOM     20  C   UNL     1     -32.132  30.632   5.017  0.00  0.00    +0.063 C 
ATOM     21  C   UNL     1     -31.402  28.456   5.720  0.00  0.00    +0.255 C 
ATOM     22  C   UNL     1     -32.929  29.536   4.372  0.00  0.00    +0.255 C 
ENDBRANCH  15  18
ENDBRANCH  14  15
ENDBRANCH  13  14
ENDBRANCH   6  13
BRANCH   5  23
ATOM     23  C   UNL     1     -34.784  22.027   5.938  0.00  0.00    +0.169 C 
BRANCH  23  24
ATOM     24  O   UNL     1     -35.277  20.763   5.529  0.00  0.00    -0.379 OA
ATOM     25  H   UNL     1     -34.928  20.075   6.117  0.00  0.00    +0.211 HD
ENDBRANCH  23  24
ENDBRANCH   5  23
TORSDOF 9
ENDMDL
MODEL 2
REMARK VINA RESULT:      -5.9      0.072      1.662
REMARK  Name = 196016
REMARK  9 active torsions:
REMARK  status: ('A' for Active; 'I' for Inactive)
REMARK    1  A    between atoms: C_2  and  O_7
REMARK    2  A    between atoms: C_3  and  O_9
REMARK    3  A    between atoms: C_4  and  O_11
REMARK    4  A    between atoms: C_5  and  C_23
REMARK    5  A    between atoms: C_6  and  O_13
REMARK    6  A    between atoms: O_13  and  C_14
REMARK    7  A    between atoms: C_14  and  C_15
REMARK    8  A    between atoms: C_15  and  N_18
REMARK    9  A    between atoms: C_23  and  O_24
REMARK                            x       y       z     vdW  Elec       q    Type
REMARK                         _______ _______ _______ _____ _____    ______ ____
ROOT
ATOM      1  O   UNL     1     -35.100  24.348   5.576  0.00  0.00    -0.326 OA
ATOM      2  C   UNL     1     -37.191  24.003   3.645  0.00  0.00    +0.172 C 
ATOM      3  C   UNL     1     -36.274  22.854   4.065  0.00  0.00    +0.169 C 
ATOM      4  C   UNL     1     -36.513  25.356   3.863  0.00  0.00    +0.196 C 
ATOM      5  C   UNL     1     -35.773  23.086   5.495  0.00  0.00    +0.176 C 
ATOM      6  C   UNL     1     -35.951  25.456   5.283  0.00  0.00    +0.266 C 
ENDROOT
BRANCH   2   7
ATOM      7  O   UNL     1     -37.545  23.872   2.271  0.00  0.00    -0.379 OA
ATOM      8  H   UNL     1     -38.471  23.594   2.200  0.00  0.00    +0.211 HD
ENDBRANCH   2   7
BRANCH   3   9
ATOM      9  O   UNL     1     -35.151  22.790   3.183  0.00  0.00    -0.379 OA
ATOM     10  H   UNL     1     -34.493  23.451   3.449  0.00  0.00    +0.211 HD
ENDBRANCH   3   9
BRANCH   4  11
ATOM     11  O   UNL     1     -37.472  26.397   3.680  0.00  0.00    -0.378 OA
ATOM     12  H   UNL     1     -38.366  26.030   3.756  0.00  0.00    +0.211 HD
ENDBRANCH   4  11
BRANCH   6  13
ATOM     13  O   UNL     1     -35.208  26.672   5.374  0.00  0.00    -0.327 OA
BRANCH  13  14
ATOM     14  C   UNL     1     -33.829  26.418   5.597  0.00  0.00    +0.167 C 
BRANCH  14  15
ATOM     15  C   UNL     1     -33.032  26.998   4.440  0.00  0.00    +0.134 C 
BRANCH  15  18
ATOM     16  O   UNL     1     -33.932  29.646   3.524  0.00  0.00    -0.269 OA
ATOM     17  O   UNL     1     -30.821  27.598   6.260  0.00  0.00    -0.269 OA
ATOM     18  N   UNL     1     -32.494  28.304   4.790  0.00  0.00    -0.220 N 
ATOM     19  C   UNL     1     -32.193  30.607   4.887  0.00  0.00    +0.063 C 
ATOM     20  C   UNL     1     -31.167  29.934   5.784  0.00  0.00    +0.063 C 
ATOM     21  C   UNL     1     -32.998  29.485   4.298  0.00  0.00    +0.255 C 
ATOM     22  C   UNL     1     -31.445  28.465   5.662  0.00  0.00    +0.255 C 
ENDBRANCH  15  18
ENDBRANCH  14  15
ENDBRANCH  13  14
ENDBRANCH   6  13
BRANCH   5  23
ATOM     23  C   UNL     1     -34.787  22.015   5.944  0.00  0.00    +0.169 C 
BRANCH  23  24
ATOM     24  O   UNL     1     -35.263  20.752   5.512  0.00  0.00    -0.379 OA
ATOM     25  H   UNL     1     -34.523  20.126   5.465  0.00  0.00    +0.211 HD
ENDBRANCH  23  24
ENDBRANCH   5  23
TORSDOF 9
ENDMDL
MODEL 3
REMARK VINA RESULT:      -5.8      3.941      7.200
REMARK  Name = 196016
REMARK  9 active torsions:
REMARK  status: ('A' for Active; 'I' for Inactive)
REMARK    1  A    between atoms: C_2  and  O_7
REMARK    2  A    between atoms: C_3  and  O_9
REMARK    3  A    between atoms: C_4  and  O_11
REMARK    4  A    between atoms: C_5  and  C_23
REMARK    5  A    between atoms: C_6  and  O_13
REMARK    6  A    between atoms: O_13  and  C_14
REMARK    7  A    between atoms: C_14  and  C_15
REMARK    8  A    between atoms: C_15  and  N_18
REMARK    9  A    between atoms: C_23  and  O_24
REMARK                            x       y       z     vdW  Elec       q    Type
REMARK                         _______ _______ _______ _____ _____    ______ ____
ROOT
ATOM      1  O   UNL     1     -36.054  24.141   3.106  0.00  0.00    -0.326 OA
ATOM      2  C   UNL     1     -35.565  22.295   5.244  0.00  0.00    +0.172 C 
ATOM      3  C   UNL     1     -35.307  23.795   5.390  0.00  0.00    +0.169 C 
ATOM      4  C   UNL     1     -35.496  21.865   3.779  0.00  0.00    +0.196 C 
ATOM      5  C   UNL     1     -36.242  24.574   4.459  0.00  0.00    +0.176 C 
ATOM      6  C   UNL     1     -36.377  22.764   2.909  0.00  0.00    +0.266 C 
ENDROOT
BRANCH   2   7
ATOM      7  O   UNL     1     -34.604  21.556   5.995  0.00  0.00    -0.379 OA
ATOM      8  H   UNL     1     -34.947  21.393   6.887  0.00  0.00    +0.211 HD
ENDBRANCH   2   7
BRANCH   3   9
ATOM      9  O   UNL     1     -33.952  24.084   5.038  0.00  0.00    -0.379 OA
ATOM     10  H   UNL     1     -33.564  23.318   4.587  0.00  0.00    +0.211 HD
ENDBRANCH   3   9
BRANCH   4  11
ATOM     11  O   UNL     1     -35.964  20.521   3.661  0.00  0.00    -0.378 OA
ATOM     12  H   UNL     1     -35.589  20.117   2.864  0.00  0.00    +0.211 HD
ENDBRANCH   4  11
BRANCH   6  13
ATOM     13  O   UNL     1     -36.155  22.407   1.545  0.00  0.00    -0.327 OA
BRANCH  13  14
ATOM     14  C   UNL     1     -34.807  22.639   1.164  0.00  0.00    +0.167 C 
BRANCH  14  15
ATOM     15  C   UNL     1     -34.495  21.795  -0.061  0.00  0.00    +0.134 C 
BRANCH  15  18
ATOM     16  O   UNL     1     -35.256  19.254   1.213  0.00  0.00    -0.269 OA
ATOM     17  O   UNL     1     -31.613  21.527  -0.493  0.00  0.00    -0.269 OA
ATOM     18  N   UNL     1     -33.640  20.671   0.294  0.00  0.00    -0.220 N 
ATOM     19  C   UNL     1     -32.940  18.603   1.092  0.00  0.00    +0.063 C 
ATOM     20  C   UNL     1     -31.741  19.351   0.534  0.00  0.00    +0.063 C 
ATOM     21  C   UNL     1     -34.108  19.525   0.890  0.00  0.00    +0.255 C 
ATOM     22  C   UNL     1     -32.290  20.658   0.040  0.00  0.00    +0.255 C 
ENDBRANCH  15  18
ENDBRANCH  14  15
ENDBRANCH  13  14
ENDBRANCH   6  13
BRANCH   5  23
ATOM     23  C   UNL     1     -35.978  26.075   4.496  0.00  0.00    +0.169 C 
BRANCH  23  24
ATOM     24  O   UNL     1     -36.631  26.620   5.629  0.00  0.00    -0.379 OA
ATOM     25  H   UNL     1     -37.498  26.199   5.736  0.00  0.00    +0.211 HD
ENDBRANCH  23  24
ENDBRANCH   5  23
TORSDOF 9
ENDMDL
MODEL 4
REMARK VINA RESULT:      -5.7      4.133      7.450
REMARK  Name = 196016
REMARK  9 active torsions:
REMARK  status: ('A' for Active; 'I' for Inactive)
REMARK    1  A    between atoms: C_2  and  O_7
REMARK    2  A    between atoms: C_3  and  O_9
REMARK    3  A    between atoms: C_4  and  O_11
REMARK    4  A    between atoms: C_5  and  C_23
REMARK    5  A    between atoms: C_6  and  O_13
REMARK    6  A    between atoms: O_13  and  C_14
REMARK    7  A    between atoms: C_14  and  C_15
REMARK    8  A    between atoms: C_15  and  N_18
REMARK    9  A    between atoms: C_23  and  O_24
REMARK                            x       y       z     vdW  Elec       q    Type
REMARK                         _______ _______ _______ _____ _____    ______ ____
ROOT
ATOM      1  O   UNL     1     -37.286  23.364   4.020  0.00  0.00    -0.326 OA
ATOM      2  C   UNL     1     -35.950  25.871   3.634  0.00  0.00    +0.172 C 
ATOM      3  C   UNL     1     -35.324  24.731   4.440  0.00  0.00    +0.169 C 
ATOM      4  C   UNL     1     -37.474  25.762   3.620  0.00  0.00    +0.196 C 
ATOM      5  C   UNL     1     -35.856  23.386   3.933  0.00  0.00    +0.176 C 
ATOM      6  C   UNL     1     -37.912  24.355   3.206  0.00  0.00    +0.266 C 
ENDROOT
BRANCH   2   7
ATOM      7  O   UNL     1     -35.575  27.128   4.191  0.00  0.00    -0.379 OA
ATOM      8  H   UNL     1     -35.821  27.839   3.579  0.00  0.00    +0.211 HD
ENDBRANCH   2   7
BRANCH   3   9
ATOM      9  O   UNL     1     -35.665  24.877   5.820  0.00  0.00    -0.379 OA
ATOM     10  H   UNL     1     -36.172  25.695   5.944  0.00  0.00    +0.211 HD
ENDBRANCH   3   9
BRANCH   4  11
ATOM     11  O   UNL     1     -38.003  26.697   2.680  0.00  0.00    -0.378 OA
ATOM     12  H   UNL     1     -37.306  26.962   2.061  0.00  0.00    +0.211 HD
ENDBRANCH   4  11
BRANCH   6  13
ATOM     13  O   UNL     1     -39.329  24.276   3.354  0.00  0.00    -0.327 OA
BRANCH  13  14
ATOM     14  C   UNL     1     -39.932  23.653   2.230  0.00  0.00    +0.167 C 
BRANCH  14  15
ATOM     15  C   UNL     1     -40.313  24.725   1.224  0.00  0.00    +0.134 C 
BRANCH  15  18
ATOM     16  O   UNL     1     -40.924  27.043   2.931  0.00  0.00    -0.269 OA
ATOM     17  O   UNL     1     -42.937  23.839   0.279  0.00  0.00    -0.269 OA
ATOM     18  N   UNL     1     -41.615  25.292   1.544  0.00  0.00    -0.220 N 
ATOM     19  C   UNL     1     -43.254  26.672   2.446  0.00  0.00    +0.063 C 
ATOM     20  C   UNL     1     -43.917  25.616   1.577  0.00  0.00    +0.063 C 
ATOM     21  C   UNL     1     -41.782  26.385   2.360  0.00  0.00    +0.255 C 
ATOM     22  C   UNL     1     -42.788  24.787   1.038  0.00  0.00    +0.255 C 
ENDBRANCH  15  18
ENDBRANCH  14  15
ENDBRANCH  13  14
ENDBRANCH   6  13
BRANCH   5  23
ATOM     23  C   UNL     1     -35.332  22.211   4.751  0.00  0.00    +0.169 C 
BRANCH  23  24
ATOM     24  O   UNL     1     -36.136  22.073   5.909  0.00  0.00    -0.379 OA
ATOM     25  H   UNL     1     -36.652  22.885   6.044  0.00  0.00    +0.211 HD
ENDBRANCH  23  24
ENDBRANCH   5  23
TORSDOF 9
ENDMDL
MODEL 5
REMARK VINA RESULT:      -5.7      1.797      2.485
REMARK  Name = 196016
REMARK  9 active torsions:
REMARK  status: ('A' for Active; 'I' for Inactive)
REMARK    1  A    between atoms: C_2  and  O_7
REMARK    2  A    between atoms: C_3  and  O_9
REMARK    3  A    between atoms: C_4  and  O_11
REMARK    4  A    between atoms: C_5  and  C_23
REMARK    5  A    between atoms: C_6  and  O_13
REMARK    6  A    between atoms: O_13  and  C_14
REMARK    7  A    between atoms: C_14  and  C_15
REMARK    8  A    between atoms: C_15  and  N_18
REMARK    9  A    between atoms: C_23  and  O_24
REMARK                            x       y       z     vdW  Elec       q    Type
REMARK                         _______ _______ _______ _____ _____    ______ ____
ROOT
ATOM      1  O   UNL     1     -35.047  24.268   5.606  0.00  0.00    -0.326 OA
ATOM      2  C   UNL     1     -37.168  23.994   3.697  0.00  0.00    +0.172 C 
ATOM      3  C   UNL     1     -36.283  22.815   4.105  0.00  0.00    +0.169 C 
ATOM      4  C   UNL     1     -36.444  25.324   3.911  0.00  0.00    +0.196 C 
ATOM      5  C   UNL     1     -35.761  23.028   5.530  0.00  0.00    +0.176 C 
ATOM      6  C   UNL     1     -35.865  25.403   5.324  0.00  0.00    +0.266 C 
ENDROOT
BRANCH   2   7
ATOM      7  O   UNL     1     -37.539  23.877   2.326  0.00  0.00    -0.379 OA
ATOM      8  H   UNL     1     -38.260  23.235   2.240  0.00  0.00    +0.211 HD
ENDBRANCH   2   7
BRANCH   3   9
ATOM      9  O   UNL     1     -35.172  22.718   3.211  0.00  0.00    -0.379 OA
ATOM     10  H   UNL     1     -35.458  22.949   2.314  0.00  0.00    +0.211 HD
ENDBRANCH   3   9
BRANCH   4  11
ATOM     11  O   UNL     1     -37.371  26.395   3.739  0.00  0.00    -0.378 OA
ATOM     12  H   UNL     1     -37.964  26.195   2.999  0.00  0.00    +0.211 HD
ENDBRANCH   4  11
BRANCH   6  13
ATOM     13  O   UNL     1     -35.082  26.594   5.410  0.00  0.00    -0.327 OA
BRANCH  13  14
ATOM     14  C   UNL     1     -33.708  26.327   5.175  0.00  0.00    +0.167 C 
BRANCH  14  15
ATOM     15  C   UNL     1     -33.122  27.466   4.358  0.00  0.00    +0.134 C 
BRANCH  15  18
ATOM     16  O   UNL     1     -31.269  25.919   2.675  0.00  0.00    -0.269 OA
ATOM     17  O   UNL     1     -35.243  28.271   2.510  0.00  0.00    -0.269 OA
ATOM     18  N   UNL     1     -33.220  27.181   2.934  0.00  0.00    -0.220 N 
ATOM     19  C   UNL     1     -32.734  26.359   0.814  0.00  0.00    +0.063 C 
ATOM     20  C   UNL     1     -34.039  27.136   0.758  0.00  0.00    +0.063 C 
ATOM     21  C   UNL     1     -32.289  26.441   2.246  0.00  0.00    +0.255 C 
ATOM     22  C   UNL     1     -34.270  27.614   2.162  0.00  0.00    +0.255 C 
ENDBRANCH  15  18
ENDBRANCH  14  15
ENDBRANCH  13  14
ENDBRANCH   6  13
BRANCH   5  23
ATOM     23  C   UNL     1     -34.805  21.925   5.968  0.00  0.00    +0.169 C 
BRANCH  23  24
ATOM     24  O   UNL     1     -35.314  20.682   5.519  0.00  0.00    -0.379 OA
ATOM     25  H   UNL     1     -36.090  20.440   6.049  0.00  0.00    +0.211 HD
ENDBRANCH  23  24
ENDBRANCH   5  23
TORSDOF 9
ENDMDL
MODEL 6
REMARK VINA RESULT:      -5.6      1.661      3.216
REMARK  Name = 196016
REMARK  9 active torsions:
REMARK  status: ('A' for Active; 'I' for Inactive)
REMARK    1  A    between atoms: C_2  and  O_7
REMARK    2  A    between atoms: C_3  and  O_9
REMARK    3  A    between atoms: C_4  and  O_11
REMARK    4  A    between atoms: C_5  and  C_23
REMARK    5  A    between atoms: C_6  and  O_13
REMARK    6  A    between atoms: O_13  and  C_14
REMARK    7  A    between atoms: C_14  and  C_15
REMARK    8  A    between atoms: C_15  and  N_18
REMARK    9  A    between atoms: C_23  and  O_24
REMARK                            x       y       z     vdW  Elec       q    Type
REMARK                         _______ _______ _______ _____ _____    ______ ____
ROOT
ATOM      1  O   UNL     1     -36.529  26.532   2.784  0.00  0.00    -0.326 OA
ATOM      2  C   UNL     1     -36.052  24.079   4.190  0.00  0.00    +0.172 C 
ATOM      3  C   UNL     1     -37.320  24.311   3.367  0.00  0.00    +0.169 C 
ATOM      4  C   UNL     1     -35.449  25.404   4.656  0.00  0.00    +0.196 C 
ATOM      5  C   UNL     1     -37.029  25.305   2.237  0.00  0.00    +0.176 C 
ATOM      6  C   UNL     1     -35.294  26.371   3.480  0.00  0.00    +0.266 C 
ENDROOT
BRANCH   2   7
ATOM      7  O   UNL     1     -36.346  23.272   5.327  0.00  0.00    -0.379 OA
ATOM      8  H   UNL     1     -36.350  23.825   6.124  0.00  0.00    +0.211 HD
ENDBRANCH   2   7
BRANCH   3   9
ATOM      9  O   UNL     1     -38.345  24.848   4.207  0.00  0.00    -0.379 OA
ATOM     10  H   UNL     1     -38.369  25.813   4.111  0.00  0.00    +0.211 HD
ENDBRANCH   3   9
BRANCH   4  11
ATOM     11  O   UNL     1     -34.159  25.161   5.216  0.00  0.00    -0.378 OA
ATOM     12  H   UNL     1     -34.181  25.339   6.169  0.00  0.00    +0.211 HD
ENDBRANCH   4  11
BRANCH   6  13
ATOM     13  O   UNL     1     -34.868  27.630   4.002  0.00  0.00    -0.327 OA
BRANCH  13  14
ATOM     14  C   UNL     1     -33.968  28.278   3.116  0.00  0.00    +0.167 C 
BRANCH  14  15
ATOM     15  C   UNL     1     -32.546  27.972   3.556  0.00  0.00    +0.134 C 
BRANCH  15  18
ATOM     16  O   UNL     1     -32.281  27.061   6.341  0.00  0.00    -0.269 OA
ATOM     17  O   UNL     1     -31.889  30.820   3.683  0.00  0.00    -0.269 OA
ATOM     18  N   UNL     1     -32.191  28.754   4.731  0.00  0.00    -0.220 N 
ATOM     19  C   UNL     1     -31.706  29.324   6.932  0.00  0.00    +0.063 C 
ATOM     20  C   UNL     1     -31.581  30.562   6.059  0.00  0.00    +0.063 C 
ATOM     21  C   UNL     1     -32.096  28.219   5.993  0.00  0.00    +0.255 C 
ATOM     22  C   UNL     1     -31.901  30.095   4.669  0.00  0.00    +0.255 C 
ENDBRANCH  15  18
ENDBRANCH  14  15
ENDBRANCH  13  14
ENDBRANCH   6  13
BRANCH   5  23
ATOM     23  C   UNL     1     -38.276  25.643   1.428  0.00  0.00    +0.169 C 
BRANCH  23  24
ATOM     24  O   UNL     1     -38.982  26.674   2.095  0.00  0.00    -0.379 OA
ATOM     25  H   UNL     1     -39.466  27.208   1.445  0.00  0.00    +0.211 HD
ENDBRANCH  23  24
ENDBRANCH   5  23
TORSDOF 9
ENDMDL
MODEL 7
REMARK VINA RESULT:      -5.5      3.638      6.912
REMARK  Name = 196016
REMARK  9 active torsions:
REMARK  status: ('A' for Active; 'I' for Inactive)
REMARK    1  A    between atoms: C_2  and  O_7
REMARK    2  A    between atoms: C_3  and  O_9
REMARK    3  A    between atoms: C_4  and  O_11
REMARK    4  A    between atoms: C_5  and  C_23
REMARK    5  A    between atoms: C_6  and  O_13
REMARK    6  A    between atoms: O_13  and  C_14
REMARK    7  A    between atoms: C_14  and  C_15
REMARK    8  A    between atoms: C_15  and  N_18
REMARK    9  A    between atoms: C_23  and  O_24
REMARK                            x       y       z     vdW  Elec       q    Type
REMARK                         _______ _______ _______ _____ _____    ______ ____
ROOT
ATOM      1  O   UNL     1     -36.514  23.373   4.235  0.00  0.00    -0.326 OA
ATOM      2  C   UNL     1     -35.437  25.986   3.759  0.00  0.00    +0.172 C 
ATOM      3  C   UNL     1     -35.323  25.295   5.118  0.00  0.00    +0.169 C 
ATOM      4  C   UNL     1     -36.632  25.453   2.969  0.00  0.00    +0.196 C 
ATOM      5  C   UNL     1     -35.326  23.774   4.928  0.00  0.00    +0.176 C 
ATOM      6  C   UNL     1     -36.610  23.924   2.922  0.00  0.00    +0.266 C 
ENDROOT
BRANCH   2   7
ATOM      7  O   UNL     1     -35.581  27.393   3.935  0.00  0.00    -0.379 OA
ATOM      8  H   UNL     1     -36.219  27.567   4.644  0.00  0.00    +0.211 HD
ENDBRANCH   2   7
BRANCH   3   9
ATOM      9  O   UNL     1     -36.434  25.664   5.938  0.00  0.00    -0.379 OA
ATOM     10  H   UNL     1     -37.034  26.233   5.432  0.00  0.00    +0.211 HD
ENDBRANCH   3   9
BRANCH   4  11
ATOM     11  O   UNL     1     -36.570  25.950   1.633  0.00  0.00    -0.378 OA
ATOM     12  H   UNL     1     -37.051  25.350   1.043  0.00  0.00    +0.211 HD
ENDBRANCH   4  11
BRANCH   6  13
ATOM     13  O   UNL     1     -37.820  23.488   2.303  0.00  0.00    -0.327 OA
BRANCH  13  14
ATOM     14  C   UNL     1     -37.557  22.628   1.205  0.00  0.00    +0.167 C 
BRANCH  14  15
ATOM     15  C   UNL     1     -37.573  21.190   1.697  0.00  0.00    +0.134 C 
BRANCH  15  18
ATOM     16  O   UNL     1     -35.291  20.580   3.452  0.00  0.00    -0.269 OA
ATOM     17  O   UNL     1     -36.780  20.088  -0.895  0.00  0.00    -0.269 OA
ATOM     18  N   UNL     1     -36.329  20.516   1.357  0.00  0.00    -0.220 N 
ATOM     19  C   UNL     1     -34.216  19.567   1.549  0.00  0.00    +0.063 C 
ATOM     20  C   UNL     1     -34.703  19.408   0.119  0.00  0.00    +0.063 C 
ATOM     21  C   UNL     1     -35.324  20.283   2.266  0.00  0.00    +0.255 C 
ATOM     22  C   UNL     1     -36.065  20.038   0.097  0.00  0.00    +0.255 C 
ENDBRANCH  15  18
ENDBRANCH  14  15
ENDBRANCH  13  14
ENDBRANCH   6  13
BRANCH   5  23
ATOM     23  C   UNL     1     -35.297  23.024   6.254  0.00  0.00    +0.169 C 
BRANCH  23  24
ATOM     24  O   UNL     1     -36.066  21.841   6.121  0.00  0.00    -0.379 OA
ATOM     25  H   UNL     1     -36.649  21.746   6.891  0.00  0.00    +0.211 HD
ENDBRANCH  23  24
ENDBRANCH   5  23
TORSDOF 9
ENDMDL
MODEL 8
REMARK VINA RESULT:      -5.5      2.187      4.412
REMARK  Name = 196016
REMARK  9 active torsions:
REMARK  status: ('A' for Active; 'I' for Inactive)
REMARK    1  A    between atoms: C_2  and  O_7
REMARK    2  A    between atoms: C_3  and  O_9
REMARK    3  A    between atoms: C_4  and  O_11
REMARK    4  A    between atoms: C_5  and  C_23
REMARK    5  A    between atoms: C_6  and  O_13
REMARK    6  A    between atoms: O_13  and  C_14
REMARK    7  A    between atoms: C_14  and  C_15
REMARK    8  A    between atoms: C_15  and  N_18
REMARK    9  A    between atoms: C_23  and  O_24
REMARK                            x       y       z     vdW  Elec       q    Type
REMARK                         _______ _______ _______ _____ _____    ______ ____
ROOT
ATOM      1  O   UNL     1     -37.544  23.312   3.318  0.00  0.00    -0.326 OA
ATOM      2  C   UNL     1     -36.528  20.892   2.165  0.00  0.00    +0.172 C 
ATOM      3  C   UNL     1     -37.798  21.569   1.648  0.00  0.00    +0.169 C 
ATOM      4  C   UNL     1     -36.266  21.260   3.626  0.00  0.00    +0.196 C 
ATOM      5  C   UNL     1     -37.728  23.077   1.917  0.00  0.00    +0.176 C 
ATOM      6  C   UNL     1     -36.320  22.776   3.820  0.00  0.00    +0.266 C 
ENDROOT
BRANCH   2   7
ATOM      7  O   UNL     1     -36.646  19.476   2.052  0.00  0.00    -0.379 OA
ATOM      8  H   UNL     1     -35.774  19.069   2.168  0.00  0.00    +0.211 HD
ENDBRANCH   2   7
BRANCH   3   9
ATOM      9  O   UNL     1     -38.938  21.029   2.320  0.00  0.00    -0.379 OA
ATOM     10  H   UNL     1     -39.738  21.488   2.020  0.00  0.00    +0.211 HD
ENDBRANCH   3   9
BRANCH   4  11
ATOM     11  O   UNL     1     -34.967  20.800   3.999  0.00  0.00    -0.378 OA
ATOM     12  H   UNL     1     -35.032  20.268   4.806  0.00  0.00    +0.211 HD
ENDBRANCH   4  11
BRANCH   6  13
ATOM     13  O   UNL     1     -36.215  23.042   5.219  0.00  0.00    -0.327 OA
BRANCH  13  14
ATOM     14  C   UNL     1     -35.147  23.936   5.495  0.00  0.00    +0.167 C 
BRANCH  14  15
ATOM     15  C   UNL     1     -35.699  25.350   5.557  0.00  0.00    +0.134 C 
BRANCH  15  18
ATOM     16  O   UNL     1     -36.444  26.390   2.907  0.00  0.00    -0.269 OA
ATOM     17  O   UNL     1     -33.079  26.549   6.070  0.00  0.00    -0.269 OA
ATOM     18  N   UNL     1     -34.938  26.237   4.689  0.00  0.00    -0.220 N 
ATOM     19  C   UNL     1     -34.339  27.561   2.874  0.00  0.00    +0.063 C 
ATOM     20  C   UNL     1     -33.230  27.611   3.912  0.00  0.00    +0.063 C 
ATOM     21  C   UNL     1     -35.389  26.662   3.462  0.00  0.00    +0.255 C 
ATOM     22  C   UNL     1     -33.709  26.741   5.038  0.00  0.00    +0.255 C 
ENDBRANCH  15  18
ENDBRANCH  14  15
ENDBRANCH  13  14
ENDBRANCH   6  13
BRANCH   5  23
ATOM     23  C   UNL     1     -39.002  23.800   1.497  0.00  0.00    +0.169 C 
BRANCH  23  24
ATOM     24  O   UNL     1     -39.964  23.654   2.527  0.00  0.00    -0.379 OA
ATOM     25  H   UNL     1     -39.519  23.406   3.353  0.00  0.00    +0.211 HD
ENDBRANCH  23  24
ENDBRANCH   5  23
TORSDOF 9
ENDMDL
MODEL 9
REMARK VINA RESULT:      -5.5      4.234      7.494
REMARK  Name = 196016
REMARK  9 active torsions:
REMARK  status: ('A' for Active; 'I' for Inactive)
REMARK    1  A    between atoms: C_2  and  O_7
REMARK    2  A    between atoms: C_3  and  O_9
REMARK    3  A    between atoms: C_4  and  O_11
REMARK    4  A    between atoms: C_5  and  C_23
REMARK    5  A    between atoms: C_6  and  O_13
REMARK    6  A    between atoms: O_13  and  C_14
REMARK    7  A    between atoms: C_14  and  C_15
REMARK    8  A    between atoms: C_15  and  N_18
REMARK    9  A    between atoms: C_23  and  O_24
REMARK                            x       y       z     vdW  Elec       q    Type
REMARK                         _______ _______ _______ _____ _____    ______ ____
ROOT
ATOM      1  O   UNL     1     -37.671  22.980   3.163  0.00  0.00    -0.326 OA
ATOM      2  C   UNL     1     -35.483  24.318   4.443  0.00  0.00    +0.172 C 
ATOM      3  C   UNL     1     -35.446  22.823   4.123  0.00  0.00    +0.169 C 
ATOM      4  C   UNL     1     -36.922  24.816   4.580  0.00  0.00    +0.196 C 
ATOM      5  C   UNL     1     -36.334  22.533   2.907  0.00  0.00    +0.176 C 
ATOM      6  C   UNL     1     -37.759  24.389   3.374  0.00  0.00    +0.266 C 
ENDROOT
BRANCH   2   7
ATOM      7  O   UNL     1     -34.779  24.577   5.656  0.00  0.00    -0.379 OA
ATOM      8  H   UNL     1     -35.296  24.246   6.406  0.00  0.00    +0.211 HD
ENDBRANCH   2   7
BRANCH   3   9
ATOM      9  O   UNL     1     -35.932  22.081   5.243  0.00  0.00    -0.379 OA
ATOM     10  H   UNL     1     -36.813  21.727   5.039  0.00  0.00    +0.211 HD
ENDBRANCH   3   9
BRANCH   4  11
ATOM     11  O   UNL     1     -36.920  26.242   4.650  0.00  0.00    -0.378 OA
ATOM     12  H   UNL     1     -37.660  26.539   5.201  0.00  0.00    +0.211 HD
ENDBRANCH   4  11
BRANCH   6  13
ATOM     13  O   UNL     1     -39.115  24.753   3.631  0.00  0.00    -0.327 OA
BRANCH  13  14
ATOM     14  C   UNL     1     -39.968  24.348   2.571  0.00  0.00    +0.167 C 
BRANCH  14  15
ATOM     15  C   UNL     1     -40.444  25.585   1.828  0.00  0.00    +0.134 C 
BRANCH  15  18
ATOM     16  O   UNL     1     -42.877  24.413   0.658  0.00  0.00    -0.269 OA
ATOM     17  O   UNL     1     -41.461  27.456   3.835  0.00  0.00    -0.269 OA
ATOM     18  N   UNL     1     -41.832  25.877   2.152  0.00  0.00    -0.220 N 
ATOM     19  C   UNL     1     -44.156  25.817   2.139  0.00  0.00    +0.063 C 
ATOM     20  C   UNL     1     -43.692  26.821   3.181  0.00  0.00    +0.063 C 
ATOM     21  C   UNL     1     -42.897  25.264   1.537  0.00  0.00    +0.255 C 
ATOM     22  C   UNL     1     -42.193  26.782   3.121  0.00  0.00    +0.255 C 
ENDBRANCH  15  18
ENDBRANCH  14  15
ENDBRANCH  13  14
ENDBRANCH   6  13
BRANCH   5  23
ATOM     23  C   UNL     1     -36.405  21.045   2.585  0.00  0.00    +0.169 C 
BRANCH  23  24
ATOM     24  O   UNL     1     -35.255  20.412   3.117  0.00  0.00    -0.379 OA
ATOM     25  H   UNL     1     -34.461  20.778   2.696  0.00  0.00    +0.211 HD
ENDBRANCH  23  24
ENDBRANCH   5  23
TORSDOF 9
ENDMDL
