MODEL 1
REMARK VINA RESULT:      -7.3      0.000      0.000
REMARK  Name = 54675758
REMARK  6 active torsions:
REMARK  status: ('A' for Active; 'I' for Inactive)
REMARK    1  A    between atoms: C_4  and  O_31
REMARK    2  A    between atoms: C_5  and  N_27
REMARK    3  A    between atoms: C_9  and  O_33
REMARK    4  A    between atoms: C_12  and  C_24
REMARK    5  A    between atoms: C_14  and  O_35
REMARK    6  A    between atoms: C_19  and  O_37
REMARK                            x       y       z     vdW  Elec       q    Type
REMARK                         _______ _______ _______ _____ _____    ______ ____
ROOT
ATOM      1  O   UNL     1     -36.256  25.284   5.796  0.00  0.00    -0.288 OA
ATOM      2  O   UNL     1     -37.102  21.922   0.281  0.00  0.00    -0.293 OA
ATOM      3  C   UNL     1     -36.677  25.000   2.195  0.00  0.00    +0.031 C 
ATOM      4  C   UNL     1     -36.768  24.396   3.604  0.00  0.00    +0.192 C 
ATOM      5  C   UNL     1     -37.405  24.126   1.159  0.00  0.00    +0.009 C 
ATOM      6  C   UNL     1     -35.211  25.195   1.758  0.00  0.00    +0.028 C 
ATOM      7  C   UNL     1     -34.389  25.922   2.783  0.00  0.00    -0.020 A 
ATOM      8  C   UNL     1     -35.944  25.214   4.609  0.00  0.00    +0.206 C 
ATOM      9  C   UNL     1     -36.403  22.924   3.642  0.00  0.00    +0.149 C 
ATOM     10  C   UNL     1     -34.725  25.917   4.137  0.00  0.00    +0.067 A 
ATOM     11  C   UNL     1     -36.982  22.667   1.255  0.00  0.00    +0.161 C 
ATOM     12  C   UNL     1     -36.463  22.124   2.556  0.00  0.00    +0.118 C 
ATOM     13  C   UNL     1     -33.219  26.582   2.375  0.00  0.00    -0.025 A 
ATOM     14  C   UNL     1     -33.918  26.586   5.069  0.00  0.00    +0.139 A 
ATOM     15  C   UNL     1     -32.398  27.255   3.294  0.00  0.00    +0.002 A 
ATOM     16  C   UNL     1     -32.754  27.258   4.661  0.00  0.00    +0.067 A 
ATOM     17  C   UNL     1     -32.849  26.579   0.917  0.00  0.00    +0.031 C 
ATOM     18  C   UNL     1     -31.232  27.924   2.886  0.00  0.00    -0.000 C 
ATOM     19  C   UNL     1     -31.934  27.931   5.582  0.00  0.00    +0.136 C 
ATOM     20  C   UNL     1     -30.430  28.587   3.814  0.00  0.00    +0.003 C 
ATOM     21  C   UNL     1     -30.780  28.590   5.160  0.00  0.00    +0.037 C 
ENDROOT
BRANCH  12  24
ATOM     22  O   UNL     1     -34.934  20.391   3.030  0.00  0.00    -0.270 OA
ATOM     23  N   UNL     1     -37.016  19.838   2.198  0.00  0.00    -0.325 N 
ATOM     24  C   UNL     1     -36.047  20.711   2.625  0.00  0.00    +0.248 C 
ATOM     25  H   UNL     1     -36.842  18.870   2.202  0.00  0.00    +0.145 HD
ATOM     26  H   UNL     1     -37.885  20.181   1.887  0.00  0.00    +0.145 HD
ENDBRANCH  12  24
BRANCH   5  27
ATOM     27  N   UNL     1     -38.859  24.160   1.299  0.00  0.00    +0.390 N 
ATOM     28  C   UNL     1     -39.352  25.529   1.167  0.00  0.00    -0.100 C 
ATOM     29  C   UNL     1     -39.487  23.290   0.306  0.00  0.00    -0.100 C 
ATOM     30  H   UNL     1     -39.104  23.817   2.229  0.00  0.00    -0.079 HD
ENDBRANCH   5  27
BRANCH   4  31
ATOM     31  O   UNL     1     -38.115  24.530   4.076  0.00  0.00    -0.373 OA
ATOM     32  H   UNL     1     -38.690  24.793   3.340  0.00  0.00    +0.211 HD
ENDBRANCH   4  31
BRANCH   9  33
ATOM     33  O   UNL     1     -36.028  22.491   4.902  0.00  0.00    -0.507 OA
ATOM     34  H   UNL     1     -36.584  21.909   5.382  0.00  0.00    +0.292 HD
ENDBRANCH   9  33
BRANCH  14  35
ATOM     35  O   UNL     1     -34.265  26.582   6.393  0.00  0.00    -0.505 OA
ATOM     36  H   UNL     1     -33.849  25.985   6.984  0.00  0.00    +0.292 HD
ENDBRANCH  14  35
BRANCH  19  37
ATOM     37  O   UNL     1     -32.202  27.986   6.921  0.00  0.00    -0.505 OA
ATOM     38  H   UNL     1     -32.641  28.731   7.281  0.00  0.00    +0.292 HD
ENDBRANCH  19  37
TORSDOF 6
ENDMDL
MODEL 2
REMARK VINA RESULT:      -7.2      3.088      6.769
REMARK  Name = 54675758
REMARK  6 active torsions:
REMARK  status: ('A' for Active; 'I' for Inactive)
REMARK    1  A    between atoms: C_4  and  O_31
REMARK    2  A    between atoms: C_5  and  N_27
REMARK    3  A    between atoms: C_9  and  O_33
REMARK    4  A    between atoms: C_12  and  C_24
REMARK    5  A    between atoms: C_14  and  O_35
REMARK    6  A    between atoms: C_19  and  O_37
REMARK                            x       y       z     vdW  Elec       q    Type
REMARK                         _______ _______ _______ _____ _____    ______ ____
ROOT
ATOM      1  O   UNL     1     -36.903  24.580   4.287  0.00  0.00    -0.288 OA
ATOM      2  O   UNL     1     -34.196  29.558   1.075  0.00  0.00    -0.293 OA
ATOM      3  C   UNL     1     -34.080  26.384   2.872  0.00  0.00    +0.031 C 
ATOM      4  C   UNL     1     -35.544  26.341   3.334  0.00  0.00    +0.192 C 
ATOM      5  C   UNL     1     -33.611  27.827   2.618  0.00  0.00    +0.009 C 
ATOM      6  C   UNL     1     -33.866  25.547   1.595  0.00  0.00    +0.028 C 
ATOM      7  C   UNL     1     -34.425  24.157   1.708  0.00  0.00    -0.020 A 
ATOM      8  C   UNL     1     -36.036  24.893   3.474  0.00  0.00    +0.206 C 
ATOM      9  C   UNL     1     -36.467  27.166   2.457  0.00  0.00    +0.149 C 
ATOM     10  C   UNL     1     -35.465  23.850   2.585  0.00  0.00    +0.067 A 
ATOM     11  C   UNL     1     -34.584  28.587   1.727  0.00  0.00    +0.161 C 
ATOM     12  C   UNL     1     -36.029  28.183   1.683  0.00  0.00    +0.118 C 
ATOM     13  C   UNL     1     -33.922  23.150   0.869  0.00  0.00    -0.025 A 
ATOM     14  C   UNL     1     -35.979  22.546   2.644  0.00  0.00    +0.139 A 
ATOM     15  C   UNL     1     -34.426  21.840   0.914  0.00  0.00    +0.002 A 
ATOM     16  C   UNL     1     -35.469  21.533   1.815  0.00  0.00    +0.067 A 
ATOM     17  C   UNL     1     -32.808  23.482  -0.085  0.00  0.00    +0.031 C 
ATOM     18  C   UNL     1     -33.917  20.829   0.081  0.00  0.00    -0.000 C 
ATOM     19  C   UNL     1     -35.974  20.223   1.861  0.00  0.00    +0.136 C 
ATOM     20  C   UNL     1     -34.430  19.533   0.140  0.00  0.00    +0.003 C 
ATOM     21  C   UNL     1     -35.457  19.231   1.028  0.00  0.00    +0.037 C 
ENDROOT
BRANCH  12  24
ATOM     22  O   UNL     1     -37.678  28.344   0.004  0.00  0.00    -0.270 OA
ATOM     23  N   UNL     1     -36.898  30.284   0.983  0.00  0.00    -0.325 N 
ATOM     24  C   UNL     1     -36.952  28.924   0.803  0.00  0.00    +0.248 C 
ATOM     25  H   UNL     1     -37.474  30.874   0.447  0.00  0.00    +0.145 HD
ATOM     26  H   UNL     1     -36.284  30.668   1.650  0.00  0.00    +0.145 HD
ENDBRANCH  12  24
BRANCH   5  27
ATOM     27  N   UNL     1     -33.459  28.605   3.846  0.00  0.00    +0.390 N 
ATOM     28  C   UNL     1     -32.500  27.961   4.741  0.00  0.00    -0.100 C 
ATOM     29  C   UNL     1     -33.035  29.969   3.535  0.00  0.00    -0.100 C 
ATOM     30  H   UNL     1     -34.363  28.648   4.318  0.00  0.00    -0.079 HD
ENDBRANCH   5  27
BRANCH   4  31
ATOM     31  O   UNL     1     -35.622  26.859   4.668  0.00  0.00    -0.373 OA
ATOM     32  H   UNL     1     -35.072  27.656   4.737  0.00  0.00    +0.211 HD
ENDBRANCH   4  31
BRANCH   9  33
ATOM     33  O   UNL     1     -37.793  26.783   2.553  0.00  0.00    -0.507 OA
ATOM     34  H   UNL     1     -38.396  27.007   1.872  0.00  0.00    +0.292 HD
ENDBRANCH   9  33
BRANCH  14  35
ATOM     35  O   UNL     1     -36.993  22.255   3.517  0.00  0.00    -0.505 OA
ATOM     36  H   UNL     1     -36.804  21.819   4.324  0.00  0.00    +0.292 HD
ENDBRANCH  14  35
BRANCH  19  37
ATOM     37  O   UNL     1     -36.979  19.839   2.702  0.00  0.00    -0.505 OA
ATOM     38  H   UNL     1     -37.855  19.755   2.379  0.00  0.00    +0.292 HD
ENDBRANCH  19  37
TORSDOF 6
ENDMDL
MODEL 3
REMARK VINA RESULT:      -6.8      1.736      2.402
REMARK  Name = 54675758
REMARK  6 active torsions:
REMARK  status: ('A' for Active; 'I' for Inactive)
REMARK    1  A    between atoms: C_4  and  O_31
REMARK    2  A    between atoms: C_5  and  N_27
REMARK    3  A    between atoms: C_9  and  O_33
REMARK    4  A    between atoms: C_12  and  C_24
REMARK    5  A    between atoms: C_14  and  O_35
REMARK    6  A    between atoms: C_19  and  O_37
REMARK                            x       y       z     vdW  Elec       q    Type
REMARK                         _______ _______ _______ _____ _____    ______ ____
ROOT
ATOM      1  O   UNL     1     -36.434  22.841   4.639  0.00  0.00    -0.288 OA
ATOM      2  O   UNL     1     -35.540  20.136  -1.219  0.00  0.00    -0.293 OA
ATOM      3  C   UNL     1     -36.397  22.901   1.002  0.00  0.00    +0.031 C 
ATOM      4  C   UNL     1     -36.399  22.124   2.327  0.00  0.00    +0.192 C 
ATOM      5  C   UNL     1     -36.674  21.975  -0.194  0.00  0.00    +0.009 C 
ATOM      6  C   UNL     1     -35.060  23.635   0.780  0.00  0.00    +0.028 C 
ATOM      7  C   UNL     1     -34.642  24.457   1.965  0.00  0.00    -0.020 A 
ATOM      8  C   UNL     1     -36.010  23.035   3.501  0.00  0.00    +0.206 C 
ATOM      9  C   UNL     1     -35.547  20.871   2.280  0.00  0.00    +0.149 C 
ATOM     10  C   UNL     1     -35.077  24.164   3.258  0.00  0.00    +0.067 A 
ATOM     11  C   UNL     1     -35.778  20.745  -0.175  0.00  0.00    +0.161 C 
ATOM     12  C   UNL     1     -35.223  20.245   1.128  0.00  0.00    +0.118 C 
ATOM     13  C   UNL     1     -33.745  25.521   1.775  0.00  0.00    -0.025 A 
ATOM     14  C   UNL     1     -34.644  24.939   4.343  0.00  0.00    +0.139 A 
ATOM     15  C   UNL     1     -33.300  26.306   2.850  0.00  0.00    +0.002 A 
ATOM     16  C   UNL     1     -33.758  26.011   4.154  0.00  0.00    +0.067 A 
ATOM     17  C   UNL     1     -33.266  25.832   0.384  0.00  0.00    +0.031 C 
ATOM     18  C   UNL     1     -32.411  27.377   2.660  0.00  0.00    -0.000 C 
ATOM     19  C   UNL     1     -33.314  26.797   5.231  0.00  0.00    +0.136 C 
ATOM     20  C   UNL     1     -31.980  28.146   3.740  0.00  0.00    +0.003 C 
ATOM     21  C   UNL     1     -32.431  27.856   5.024  0.00  0.00    +0.037 C 
ENDROOT
BRANCH  12  24
ATOM     22  O   UNL     1     -33.239  19.081   1.652  0.00  0.00    -0.270 OA
ATOM     23  N   UNL     1     -34.897  17.979   0.482  0.00  0.00    -0.325 N 
ATOM     24  C   UNL     1     -34.345  19.060   1.124  0.00  0.00    +0.248 C 
ATOM     25  H   UNL     1     -34.396  17.135   0.421  0.00  0.00    +0.145 HD
ATOM     26  H   UNL     1     -35.795  18.049   0.084  0.00  0.00    +0.145 HD
ENDBRANCH  12  24
BRANCH   5  27
ATOM     27  N   UNL     1     -38.054  21.496  -0.243  0.00  0.00    +0.390 N 
ATOM     28  C   UNL     1     -38.980  22.623  -0.336  0.00  0.00    -0.100 C 
ATOM     29  C   UNL     1     -38.239  20.586  -1.372  0.00  0.00    -0.100 C 
ATOM     30  H   UNL     1     -38.252  20.986   0.619  0.00  0.00    -0.079 HD
ENDBRANCH   5  27
BRANCH   4  31
ATOM     31  O   UNL     1     -37.745  21.733   2.630  0.00  0.00    -0.373 OA
ATOM     32  H   UNL     1     -37.817  21.528   3.575  0.00  0.00    +0.211 HD
ENDBRANCH   4  31
BRANCH   9  33
ATOM     33  O   UNL     1     -35.161  20.430   3.535  0.00  0.00    -0.507 OA
ATOM     34  H   UNL     1     -35.777  19.993   4.088  0.00  0.00    +0.292 HD
ENDBRANCH   9  33
BRANCH  14  35
ATOM     35  O   UNL     1     -35.088  24.646   5.605  0.00  0.00    -0.505 OA
ATOM     36  H   UNL     1     -34.536  24.173   6.197  0.00  0.00    +0.292 HD
ENDBRANCH  14  35
BRANCH  19  37
ATOM     37  O   UNL     1     -33.706  26.583   6.522  0.00  0.00    -0.505 OA
ATOM     38  H   UNL     1     -33.621  25.732   6.904  0.00  0.00    +0.292 HD
ENDBRANCH  19  37
TORSDOF 6
ENDMDL
MODEL 4
REMARK VINA RESULT:      -6.6      2.009      2.686
REMARK  Name = 54675758
REMARK  6 active torsions:
REMARK  status: ('A' for Active; 'I' for Inactive)
REMARK    1  A    between atoms: C_4  and  O_31
REMARK    2  A    between atoms: C_5  and  N_27
REMARK    3  A    between atoms: C_9  and  O_33
REMARK    4  A    between atoms: C_12  and  C_24
REMARK    5  A    between atoms: C_14  and  O_35
REMARK    6  A    between atoms: C_19  and  O_37
REMARK                            x       y       z     vdW  Elec       q    Type
REMARK                         _______ _______ _______ _____ _____    ______ ____
ROOT
ATOM      1  O   UNL     1     -34.026  27.165   5.175  0.00  0.00    -0.288 OA
ATOM      2  O   UNL     1     -37.354  22.076   2.838  0.00  0.00    -0.293 OA
ATOM      3  C   UNL     1     -35.837  25.384   2.572  0.00  0.00    +0.031 C 
ATOM      4  C   UNL     1     -35.452  25.568   4.048  0.00  0.00    +0.192 C 
ATOM      5  C   UNL     1     -37.012  24.404   2.413  0.00  0.00    +0.009 C 
ATOM      6  C   UNL     1     -34.642  24.886   1.735  0.00  0.00    +0.028 C 
ATOM      7  C   UNL     1     -33.403  25.709   1.940  0.00  0.00    -0.020 A 
ATOM      8  C   UNL     1     -34.208  26.456   4.187  0.00  0.00    +0.206 C 
ATOM      9  C   UNL     1     -35.290  24.252   4.786  0.00  0.00    +0.149 C 
ATOM     10  C   UNL     1     -33.187  26.440   3.109  0.00  0.00    +0.067 A 
ATOM     11  C   UNL     1     -36.773  23.109   3.176  0.00  0.00    +0.161 C 
ATOM     12  C   UNL     1     -35.866  23.103   4.373  0.00  0.00    +0.118 C 
ATOM     13  C   UNL     1     -32.408  25.701   0.950  0.00  0.00    -0.025 A 
ATOM     14  C   UNL     1     -32.005  27.176   3.275  0.00  0.00    +0.139 A 
ATOM     15  C   UNL     1     -31.218  26.432   1.100  0.00  0.00    +0.002 A 
ATOM     16  C   UNL     1     -31.014  27.181   2.281  0.00  0.00    +0.067 A 
ATOM     17  C   UNL     1     -32.633  24.906  -0.306  0.00  0.00    +0.031 C 
ATOM     18  C   UNL     1     -30.225  26.432   0.106  0.00  0.00    -0.000 C 
ATOM     19  C   UNL     1     -29.824  27.912   2.433  0.00  0.00    +0.136 C 
ATOM     20  C   UNL     1     -29.050  27.164   0.274  0.00  0.00    +0.003 C 
ATOM     21  C   UNL     1     -28.849  27.902   1.435  0.00  0.00    +0.037 C 
ENDROOT
BRANCH  12  24
ATOM     22  O   UNL     1     -35.113  20.873   4.538  0.00  0.00    -0.270 OA
ATOM     23  N   UNL     1     -36.065  21.863   6.394  0.00  0.00    -0.325 N 
ATOM     24  C   UNL     1     -35.637  21.834   5.090  0.00  0.00    +0.248 C 
ATOM     25  H   UNL     1     -35.960  21.068   6.963  0.00  0.00    +0.145 HD
ATOM     26  H   UNL     1     -36.477  22.680   6.758  0.00  0.00    +0.145 HD
ENDBRANCH  12  24
BRANCH   5  27
ATOM     27  N   UNL     1     -38.282  24.950   2.887  0.00  0.00    +0.390 N 
ATOM     28  C   UNL     1     -38.605  26.182   2.170  0.00  0.00    -0.100 C 
ATOM     29  C   UNL     1     -39.352  23.966   2.724  0.00  0.00    -0.100 C 
ATOM     30  H   UNL     1     -38.193  25.168   3.880  0.00  0.00    -0.079 HD
ENDBRANCH   5  27
BRANCH   4  31
ATOM     31  O   UNL     1     -36.484  26.318   4.702  0.00  0.00    -0.373 OA
ATOM     32  H   UNL     1     -37.347  25.920   4.505  0.00  0.00    +0.211 HD
ENDBRANCH   4  31
BRANCH   9  33
ATOM     33  O   UNL     1     -34.516  24.363   5.928  0.00  0.00    -0.507 OA
ATOM     34  H   UNL     1     -33.613  24.113   5.908  0.00  0.00    +0.292 HD
ENDBRANCH   9  33
BRANCH  14  35
ATOM     35  O   UNL     1     -31.812  27.897   4.422  0.00  0.00    -0.505 OA
ATOM     36  H   UNL     1     -31.964  27.499   5.257  0.00  0.00    +0.292 HD
ENDBRANCH  14  35
BRANCH  19  37
ATOM     37  O   UNL     1     -29.546  28.664   3.539  0.00  0.00    -0.505 OA
ATOM     38  H   UNL     1     -28.930  28.355   4.174  0.00  0.00    +0.292 HD
ENDBRANCH  19  37
TORSDOF 6
ENDMDL
MODEL 5
REMARK VINA RESULT:      -6.5      3.702      6.049
REMARK  Name = 54675758
REMARK  6 active torsions:
REMARK  status: ('A' for Active; 'I' for Inactive)
REMARK    1  A    between atoms: C_4  and  O_31
REMARK    2  A    between atoms: C_5  and  N_27
REMARK    3  A    between atoms: C_9  and  O_33
REMARK    4  A    between atoms: C_12  and  C_24
REMARK    5  A    between atoms: C_14  and  O_35
REMARK    6  A    between atoms: C_19  and  O_37
REMARK                            x       y       z     vdW  Elec       q    Type
REMARK                         _______ _______ _______ _____ _____    ______ ____
ROOT
ATOM      1  O   UNL     1     -35.922  20.140   3.077  0.00  0.00    -0.288 OA
ATOM      2  O   UNL     1     -38.884  25.161   0.169  0.00  0.00    -0.293 OA
ATOM      3  C   UNL     1     -36.070  23.564   1.858  0.00  0.00    +0.031 C 
ATOM      4  C   UNL     1     -36.767  22.252   2.249  0.00  0.00    +0.192 C 
ATOM      5  C   UNL     1     -37.084  24.707   1.677  0.00  0.00    +0.009 C 
ATOM      6  C   UNL     1     -35.248  23.402   0.564  0.00  0.00    +0.028 C 
ATOM      7  C   UNL     1     -34.327  22.217   0.603  0.00  0.00    -0.020 A 
ATOM      8  C   UNL     1     -35.762  21.093   2.316  0.00  0.00    +0.206 C 
ATOM      9  C   UNL     1     -37.950  21.921   1.359  0.00  0.00    +0.149 C 
ATOM     10  C   UNL     1     -34.579  21.113   1.419  0.00  0.00    +0.067 A 
ATOM     11  C   UNL     1     -38.236  24.301   0.769  0.00  0.00    +0.161 C 
ATOM     12  C   UNL     1     -38.614  22.853   0.643  0.00  0.00    +0.118 C 
ATOM     13  C   UNL     1     -33.209  22.194  -0.246  0.00  0.00    -0.025 A 
ATOM     14  C   UNL     1     -33.710  20.013   1.409  0.00  0.00    +0.139 A 
ATOM     15  C   UNL     1     -32.330  21.099  -0.271  0.00  0.00    +0.002 A 
ATOM     16  C   UNL     1     -32.584  19.993   0.570  0.00  0.00    +0.067 A 
ATOM     17  C   UNL     1     -32.942  23.377  -1.135  0.00  0.00    +0.031 C 
ATOM     18  C   UNL     1     -31.206  21.079  -1.113  0.00  0.00    -0.000 C 
ATOM     19  C   UNL     1     -31.704  18.897   0.546  0.00  0.00    +0.136 C 
ATOM     20  C   UNL     1     -30.343  19.983  -1.123  0.00  0.00    +0.003 C 
ATOM     21  C   UNL     1     -30.593  18.894  -0.295  0.00  0.00    +0.037 C 
ENDROOT
BRANCH  12  24
ATOM     22  O   UNL     1     -40.742  21.949   0.177  0.00  0.00    -0.270 OA
ATOM     23  N   UNL     1     -39.486  22.787  -1.570  0.00  0.00    -0.325 N 
ATOM     24  C   UNL     1     -39.724  22.480  -0.253  0.00  0.00    +0.248 C 
ATOM     25  H   UNL     1     -40.162  22.580  -2.253  0.00  0.00    +0.145 HD
ATOM     26  H   UNL     1     -38.637  23.214  -1.829  0.00  0.00    +0.145 HD
ENDBRANCH  12  24
BRANCH   5  27
ATOM     27  N   UNL     1     -37.672  25.158   2.937  0.00  0.00    +0.390 N 
ATOM     28  C   UNL     1     -36.651  25.770   3.785  0.00  0.00    -0.100 C 
ATOM     29  C   UNL     1     -38.760  26.101   2.682  0.00  0.00    -0.100 C 
ATOM     30  H   UNL     1     -38.055  24.348   3.425  0.00  0.00    -0.079 HD
ENDBRANCH   5  27
BRANCH   4  31
ATOM     31  O   UNL     1     -37.245  22.368   3.596  0.00  0.00    -0.373 OA
ATOM     32  H   UNL     1     -36.497  22.301   4.210  0.00  0.00    +0.211 HD
ENDBRANCH   4  31
BRANCH   9  33
ATOM     33  O   UNL     1     -38.285  20.578   1.380  0.00  0.00    -0.507 OA
ATOM     34  H   UNL     1     -38.595  20.184   2.171  0.00  0.00    +0.292 HD
ENDBRANCH   9  33
BRANCH  14  35
ATOM     35  O   UNL     1     -33.963  18.941   2.222  0.00  0.00    -0.505 OA
ATOM     36  H   UNL     1     -33.322  18.670   2.851  0.00  0.00    +0.292 HD
ENDBRANCH  14  35
BRANCH  19  37
ATOM     37  O   UNL     1     -31.873  17.788   1.326  0.00  0.00    -0.505 OA
ATOM     38  H   UNL     1     -31.333  17.034   1.191  0.00  0.00    +0.292 HD
ENDBRANCH  19  37
TORSDOF 6
ENDMDL
MODEL 6
REMARK VINA RESULT:      -6.4      3.387      8.196
REMARK  Name = 54675758
REMARK  6 active torsions:
REMARK  status: ('A' for Active; 'I' for Inactive)
REMARK    1  A    between atoms: C_4  and  O_31
REMARK    2  A    between atoms: C_5  and  N_27
REMARK    3  A    between atoms: C_9  and  O_33
REMARK    4  A    between atoms: C_12  and  C_24
REMARK    5  A    between atoms: C_14  and  O_35
REMARK    6  A    between atoms: C_19  and  O_37
REMARK                            x       y       z     vdW  Elec       q    Type
REMARK                         _______ _______ _______ _____ _____    ______ ____
ROOT
ATOM      1  O   UNL     1     -38.839  21.003   1.163  0.00  0.00    -0.288 OA
ATOM      2  O   UNL     1     -34.026  24.750   3.450  0.00  0.00    -0.293 OA
ATOM      3  C   UNL     1     -35.853  21.604   3.149  0.00  0.00    +0.031 C 
ATOM      4  C   UNL     1     -37.060  22.128   2.356  0.00  0.00    +0.192 C 
ATOM      5  C   UNL     1     -35.188  22.725   3.968  0.00  0.00    +0.009 C 
ATOM      6  C   UNL     1     -34.804  20.961   2.220  0.00  0.00    +0.028 C 
ATOM      7  C   UNL     1     -35.398  19.949   1.283  0.00  0.00    -0.020 A 
ATOM      8  C   UNL     1     -37.646  21.031   1.456  0.00  0.00    +0.206 C 
ATOM      9  C   UNL     1     -36.754  23.393   1.577  0.00  0.00    +0.149 C 
ATOM     10  C   UNL     1     -36.740  19.991   0.905  0.00  0.00    +0.067 A 
ATOM     11  C   UNL     1     -34.907  23.955   3.117  0.00  0.00    +0.161 C 
ATOM     12  C   UNL     1     -35.740  24.225   1.897  0.00  0.00    +0.118 C 
ATOM     13  C   UNL     1     -34.566  18.964   0.728  0.00  0.00    -0.025 A 
ATOM     14  C   UNL     1     -37.252  19.045   0.007  0.00  0.00    +0.139 A 
ATOM     15  C   UNL     1     -35.061  18.009  -0.174  0.00  0.00    +0.002 A 
ATOM     16  C   UNL     1     -36.426  18.050  -0.539  0.00  0.00    +0.067 A 
ATOM     17  C   UNL     1     -33.116  18.923   1.125  0.00  0.00    +0.031 C 
ATOM     18  C   UNL     1     -34.232  17.016  -0.723  0.00  0.00    -0.000 C 
ATOM     19  C   UNL     1     -36.923  17.095  -1.442  0.00  0.00    +0.136 C 
ATOM     20  C   UNL     1     -34.743  16.076  -1.617  0.00  0.00    +0.003 C 
ATOM     21  C   UNL     1     -36.086  16.116  -1.977  0.00  0.00    +0.037 C 
ENDROOT
BRANCH  12  24
ATOM     22  O   UNL     1     -35.120  25.318  -0.100  0.00  0.00    -0.270 OA
ATOM     23  N   UNL     1     -35.568  26.595   1.771  0.00  0.00    -0.325 N 
ATOM     24  C   UNL     1     -35.443  25.416   1.079  0.00  0.00    +0.248 C 
ATOM     25  H   UNL     1     -35.392  27.451   1.319  0.00  0.00    +0.145 HD
ATOM     26  H   UNL     1     -35.832  26.583   2.719  0.00  0.00    +0.145 HD
ENDBRANCH  12  24
BRANCH   5  27
ATOM     27  N   UNL     1     -35.998  23.165   5.101  0.00  0.00    +0.390 N 
ATOM     28  C   UNL     1     -35.563  22.500   6.328  0.00  0.00    -0.100 C 
ATOM     29  C   UNL     1     -35.920  24.617   5.250  0.00  0.00    -0.100 C 
ATOM     30  H   UNL     1     -36.971  22.911   4.924  0.00  0.00    -0.079 HD
ENDBRANCH   5  27
BRANCH   4  31
ATOM     31  O   UNL     1     -38.122  22.420   3.274  0.00  0.00    -0.373 OA
ATOM     32  H   UNL     1     -38.316  21.631   3.804  0.00  0.00    +0.211 HD
ENDBRANCH   4  31
BRANCH   9  33
ATOM     33  O   UNL     1     -37.631  23.609   0.528  0.00  0.00    -0.507 OA
ATOM     34  H   UNL     1     -38.344  24.207   0.630  0.00  0.00    +0.292 HD
ENDBRANCH   9  33
BRANCH  14  35
ATOM     35  O   UNL     1     -38.574  19.091  -0.347  0.00  0.00    -0.505 OA
ATOM     36  H   UNL     1     -38.878  18.598  -1.084  0.00  0.00    +0.292 HD
ENDBRANCH  14  35
BRANCH  19  37
ATOM     37  O   UNL     1     -38.227  17.059  -1.848  0.00  0.00    -0.505 OA
ATOM     38  H   UNL     1     -38.626  16.242  -2.075  0.00  0.00    +0.292 HD
ENDBRANCH  19  37
TORSDOF 6
ENDMDL
MODEL 7
REMARK VINA RESULT:      -6.4      3.343      6.533
REMARK  Name = 54675758
REMARK  6 active torsions:
REMARK  status: ('A' for Active; 'I' for Inactive)
REMARK    1  A    between atoms: C_4  and  O_31
REMARK    2  A    between atoms: C_5  and  N_27
REMARK    3  A    between atoms: C_9  and  O_33
REMARK    4  A    between atoms: C_12  and  C_24
REMARK    5  A    between atoms: C_14  and  O_35
REMARK    6  A    between atoms: C_19  and  O_37
REMARK                            x       y       z     vdW  Elec       q    Type
REMARK                         _______ _______ _______ _____ _____    ______ ____
ROOT
ATOM      1  O   UNL     1     -35.775  19.867   2.895  0.00  0.00    -0.288 OA
ATOM      2  O   UNL     1     -37.749  26.074   2.871  0.00  0.00    -0.293 OA
ATOM      3  C   UNL     1     -35.207  23.458   2.967  0.00  0.00    +0.031 C 
ATOM      4  C   UNL     1     -36.143  22.249   3.110  0.00  0.00    +0.192 C 
ATOM      5  C   UNL     1     -35.863  24.745   3.498  0.00  0.00    +0.009 C 
ATOM      6  C   UNL     1     -34.780  23.671   1.501  0.00  0.00    +0.028 C 
ATOM      7  C   UNL     1     -34.254  22.419   0.860  0.00  0.00    -0.020 A 
ATOM      8  C   UNL     1     -35.525  20.995   2.475  0.00  0.00    +0.206 C 
ATOM      9  C   UNL     1     -37.540  22.516   2.584  0.00  0.00    +0.149 C 
ATOM     10  C   UNL     1     -34.620  21.150   1.309  0.00  0.00    +0.067 A 
ATOM     11  C   UNL     1     -37.257  24.946   2.921  0.00  0.00    +0.161 C 
ATOM     12  C   UNL     1     -38.053  23.759   2.458  0.00  0.00    +0.118 C 
ATOM     13  C   UNL     1     -33.412  22.529  -0.258  0.00  0.00    -0.025 A 
ATOM     14  C   UNL     1     -34.130  20.004   0.667  0.00  0.00    +0.139 A 
ATOM     15  C   UNL     1     -32.912  21.392  -0.914  0.00  0.00    +0.002 A 
ATOM     16  C   UNL     1     -33.276  20.110  -0.443  0.00  0.00    +0.067 A 
ATOM     17  C   UNL     1     -33.024  23.896  -0.751  0.00  0.00    +0.031 C 
ATOM     18  C   UNL     1     -32.062  21.500  -2.027  0.00  0.00    -0.000 C 
ATOM     19  C   UNL     1     -32.777  18.972  -1.099  0.00  0.00    +0.136 C 
ATOM     20  C   UNL     1     -31.576  20.359  -2.665  0.00  0.00    +0.003 C 
ATOM     21  C   UNL     1     -31.933  19.097  -2.202  0.00  0.00    +0.037 C 
ENDROOT
BRANCH  12  24
ATOM     22  O   UNL     1     -40.371  23.353   2.294  0.00  0.00    -0.270 OA
ATOM     23  N   UNL     1     -39.417  24.923   0.895  0.00  0.00    -0.325 N 
ATOM     24  C   UNL     1     -39.396  23.977   1.890  0.00  0.00    +0.248 C 
ATOM     25  H   UNL     1     -40.264  25.146   0.447  0.00  0.00    +0.145 HD
ATOM     26  H   UNL     1     -38.585  25.377   0.631  0.00  0.00    +0.145 HD
ENDBRANCH  12  24
BRANCH   5  27
ATOM     27  N   UNL     1     -35.997  24.763   4.953  0.00  0.00    +0.390 N 
ATOM     28  C   UNL     1     -34.782  24.247   5.582  0.00  0.00    -0.100 C 
ATOM     29  C   UNL     1     -36.281  26.118   5.422  0.00  0.00    -0.100 C 
ATOM     30  H   UNL     1     -36.778  24.161   5.216  0.00  0.00    -0.079 HD
ENDBRANCH   5  27
BRANCH   4  31
ATOM     31  O   UNL     1     -36.251  21.911   4.499  0.00  0.00    -0.373 OA
ATOM     32  H   UNL     1     -35.513  21.332   4.748  0.00  0.00    +0.211 HD
ENDBRANCH   4  31
BRANCH   9  33
ATOM     33  O   UNL     1     -38.233  21.359   2.272  0.00  0.00    -0.507 OA
ATOM     34  H   UNL     1     -38.064  20.915   1.464  0.00  0.00    +0.292 HD
ENDBRANCH   9  33
BRANCH  14  35
ATOM     35  O   UNL     1     -34.488  18.765   1.124  0.00  0.00    -0.505 OA
ATOM     36  H   UNL     1     -34.559  18.047   0.525  0.00  0.00    +0.292 HD
ENDBRANCH  14  35
BRANCH  19  37
ATOM     37  O   UNL     1     -33.076  17.696  -0.711  0.00  0.00    -0.505 OA
ATOM     38  H   UNL     1     -32.389  17.073  -0.580  0.00  0.00    +0.292 HD
ENDBRANCH  19  37
TORSDOF 6
ENDMDL
MODEL 8
REMARK VINA RESULT:      -6.3      2.365      4.085
REMARK  Name = 54675758
REMARK  6 active torsions:
REMARK  status: ('A' for Active; 'I' for Inactive)
REMARK    1  A    between atoms: C_4  and  O_31
REMARK    2  A    between atoms: C_5  and  N_27
REMARK    3  A    between atoms: C_9  and  O_33
REMARK    4  A    between atoms: C_12  and  C_24
REMARK    5  A    between atoms: C_14  and  O_35
REMARK    6  A    between atoms: C_19  and  O_37
REMARK                            x       y       z     vdW  Elec       q    Type
REMARK                         _______ _______ _______ _____ _____    ______ ____
ROOT
ATOM      1  O   UNL     1     -35.442  25.832   0.219  0.00  0.00    -0.288 OA
ATOM      2  O   UNL     1     -39.979  21.608   2.222  0.00  0.00    -0.293 OA
ATOM      3  C   UNL     1     -36.548  22.812   1.919  0.00  0.00    +0.031 C 
ATOM      4  C   UNL     1     -36.807  23.968   0.941  0.00  0.00    +0.192 C 
ATOM      5  C   UNL     1     -37.628  21.723   1.802  0.00  0.00    +0.009 C 
ATOM      6  C   UNL     1     -36.481  23.310   3.377  0.00  0.00    +0.028 C 
ATOM      7  C   UNL     1     -35.548  24.473   3.553  0.00  0.00    -0.020 A 
ATOM      8  C   UNL     1     -35.791  25.101   1.145  0.00  0.00    +0.206 C 
ATOM      9  C   UNL     1     -38.235  24.478   0.992  0.00  0.00    +0.149 C 
ATOM     10  C   UNL     1     -35.234  25.334   2.501  0.00  0.00    +0.067 A 
ATOM     11  C   UNL     1     -39.030  22.310   1.868  0.00  0.00    +0.161 C 
ATOM     12  C   UNL     1     -39.265  23.734   1.451  0.00  0.00    +0.118 C 
ATOM     13  C   UNL     1     -35.018  24.734   4.827  0.00  0.00    -0.025 A 
ATOM     14  C   UNL     1     -34.379  26.426   2.711  0.00  0.00    +0.139 A 
ATOM     15  C   UNL     1     -34.162  25.824   5.055  0.00  0.00    +0.002 A 
ATOM     16  C   UNL     1     -33.837  26.682   3.981  0.00  0.00    +0.067 A 
ATOM     17  C   UNL     1     -35.364  23.815   5.965  0.00  0.00    +0.031 C 
ATOM     18  C   UNL     1     -33.623  26.081   6.327  0.00  0.00    -0.000 C 
ATOM     19  C   UNL     1     -32.980  27.772   4.208  0.00  0.00    +0.136 C 
ATOM     20  C   UNL     1     -32.775  27.168   6.535  0.00  0.00    +0.003 C 
ATOM     21  C   UNL     1     -32.454  28.012   5.477  0.00  0.00    +0.037 C 
ENDROOT
BRANCH  12  24
ATOM     22  O   UNL     1     -40.883  25.261   2.235  0.00  0.00    -0.270 OA
ATOM     23  N   UNL     1     -41.538  23.607   0.763  0.00  0.00    -0.325 N 
ATOM     24  C   UNL     1     -40.629  24.288   1.534  0.00  0.00    +0.248 C 
ATOM     25  H   UNL     1     -42.479  23.894   0.745  0.00  0.00    +0.145 HD
ATOM     26  H   UNL     1     -41.248  22.833   0.229  0.00  0.00    +0.145 HD
ENDBRANCH  12  24
BRANCH   5  27
ATOM     27  N   UNL     1     -37.541  20.960   0.559  0.00  0.00    +0.390 N 
ATOM     28  C   UNL     1     -36.690  19.785   0.741  0.00  0.00    -0.100 C 
ATOM     29  C   UNL     1     -38.875  20.562   0.112  0.00  0.00    -0.100 C 
ATOM     30  H   UNL     1     -37.124  21.553  -0.159  0.00  0.00    -0.079 HD
ENDBRANCH   5  27
BRANCH   4  31
ATOM     31  O   UNL     1     -36.547  23.511  -0.392  0.00  0.00    -0.373 OA
ATOM     32  H   UNL     1     -36.501  24.273  -0.991  0.00  0.00    +0.211 HD
ENDBRANCH   4  31
BRANCH   9  33
ATOM     33  O   UNL     1     -38.370  25.765   0.500  0.00  0.00    -0.507 OA
ATOM     34  H   UNL     1     -38.474  26.484   1.092  0.00  0.00    +0.292 HD
ENDBRANCH   9  33
BRANCH  14  35
ATOM     35  O   UNL     1     -34.070  27.256   1.667  0.00  0.00    -0.505 OA
ATOM     36  H   UNL     1     -34.756  27.625   1.145  0.00  0.00    +0.292 HD
ENDBRANCH  14  35
BRANCH  19  37
ATOM     37  O   UNL     1     -32.613  28.649   3.228  0.00  0.00    -0.505 OA
ATOM     38  H   UNL     1     -33.166  29.376   3.017  0.00  0.00    +0.292 HD
ENDBRANCH  19  37
TORSDOF 6
ENDMDL
MODEL 9
REMARK VINA RESULT:      -6.2      3.500      5.368
REMARK  Name = 54675758
REMARK  6 active torsions:
REMARK  status: ('A' for Active; 'I' for Inactive)
REMARK    1  A    between atoms: C_4  and  O_31
REMARK    2  A    between atoms: C_5  and  N_27
REMARK    3  A    between atoms: C_9  and  O_33
REMARK    4  A    between atoms: C_12  and  C_24
REMARK    5  A    between atoms: C_14  and  O_35
REMARK    6  A    between atoms: C_19  and  O_37
REMARK                            x       y       z     vdW  Elec       q    Type
REMARK                         _______ _______ _______ _____ _____    ______ ____
ROOT
ATOM      1  O   UNL     1     -36.222  20.142   2.813  0.00  0.00    -0.288 OA
ATOM      2  O   UNL     1     -32.119  19.148  -2.147  0.00  0.00    -0.293 OA
ATOM      3  C   UNL     1     -34.895  20.848  -0.499  0.00  0.00    +0.031 C 
ATOM      4  C   UNL     1     -35.022  19.926   0.723  0.00  0.00    +0.192 C 
ATOM      5  C   UNL     1     -34.257  20.117  -1.693  0.00  0.00    +0.009 C 
ATOM      6  C   UNL     1     -34.068  22.108  -0.171  0.00  0.00    +0.028 C 
ATOM      7  C   UNL     1     -34.540  22.808   1.071  0.00  0.00    -0.020 A 
ATOM      8  C   UNL     1     -35.553  20.694   1.941  0.00  0.00    +0.206 C 
ATOM      9  C   UNL     1     -33.738  19.184   1.041  0.00  0.00    +0.149 C 
ATOM     10  C   UNL     1     -35.229  22.136   2.081  0.00  0.00    +0.067 A 
ATOM     11  C   UNL     1     -32.972  19.404  -1.296  0.00  0.00    +0.161 C 
ATOM     12  C   UNL     1     -32.768  18.968   0.126  0.00  0.00    +0.118 C 
ATOM     13  C   UNL     1     -34.234  24.167   1.245  0.00  0.00    -0.025 A 
ATOM     14  C   UNL     1     -35.630  22.818   3.239  0.00  0.00    +0.139 A 
ATOM     15  C   UNL     1     -34.627  24.866   2.398  0.00  0.00    +0.002 A 
ATOM     16  C   UNL     1     -35.337  24.181   3.409  0.00  0.00    +0.067 A 
ATOM     17  C   UNL     1     -33.482  24.891   0.162  0.00  0.00    +0.031 C 
ATOM     18  C   UNL     1     -34.329  26.228   2.569  0.00  0.00    -0.000 C 
ATOM     19  C   UNL     1     -35.731  24.878   4.563  0.00  0.00    +0.136 C 
ATOM     20  C   UNL     1     -34.728  26.905   3.721  0.00  0.00    +0.003 C 
ATOM     21  C   UNL     1     -35.427  26.231   4.717  0.00  0.00    +0.037 C 
ENDROOT
BRANCH  12  24
ATOM     22  O   UNL     1     -31.511  17.201   1.055  0.00  0.00    -0.270 OA
ATOM     23  N   UNL     1     -30.389  19.000   0.141  0.00  0.00    -0.325 N 
ATOM     24  C   UNL     1     -31.511  18.290   0.493  0.00  0.00    +0.248 C 
ATOM     25  H   UNL     1     -29.496  18.638   0.340  0.00  0.00    +0.145 HD
ATOM     26  H   UNL     1     -30.480  19.871  -0.309  0.00  0.00    +0.145 HD
ENDBRANCH  12  24
BRANCH   5  27
ATOM     27  N   UNL     1     -35.136  19.114  -2.288  0.00  0.00    +0.390 N 
ATOM     28  C   UNL     1     -36.376  19.735  -2.752  0.00  0.00    -0.100 C 
ATOM     29  C   UNL     1     -34.460  18.433  -3.391  0.00  0.00    -0.100 C 
ATOM     30  H   UNL     1     -35.369  18.421  -1.576  0.00  0.00    -0.079 HD
ENDBRANCH   5  27
BRANCH   4  31
ATOM     31  O   UNL     1     -36.042  18.953   0.461  0.00  0.00    -0.373 OA
ATOM     32  H   UNL     1     -36.852  19.199   0.935  0.00  0.00    +0.211 HD
ENDBRANCH   4  31
BRANCH   9  33
ATOM     33  O   UNL     1     -33.679  18.737   2.350  0.00  0.00    -0.507 OA
ATOM     34  H   UNL     1     -33.834  17.834   2.545  0.00  0.00    +0.292 HD
ENDBRANCH   9  33
BRANCH  14  35
ATOM     35  O   UNL     1     -36.314  22.149   4.217  0.00  0.00    -0.505 OA
ATOM     36  H   UNL     1     -37.206  22.371   4.399  0.00  0.00    +0.292 HD
ENDBRANCH  14  35
BRANCH  19  37
ATOM     37  O   UNL     1     -36.420  24.296   5.589  0.00  0.00    -0.505 OA
ATOM     38  H   UNL     1     -37.356  24.347   5.613  0.00  0.00    +0.292 HD
ENDBRANCH  19  37
TORSDOF 6
ENDMDL
