MODEL 1
REMARK VINA RESULT:      -5.7      0.000      0.000
REMARK  Name = 5321825
REMARK  13 active torsions:
REMARK  status: ('A' for Active; 'I' for Inactive)
REMARK    1  A    between atoms: C_1  and  C_2
REMARK    2  A    between atoms: C_1  and  C_20
REMARK    3  A    between atoms: C_2  and  C_3
REMARK    4  A    between atoms: C_3  and  N_5
REMARK    5  A    between atoms: C_6  and  C_8
REMARK    6  A    between atoms: C_9  and  C_10
REMARK    7  A    between atoms: C_13  and  O_16
REMARK    8  A    between atoms: C_14  and  O_18
REMARK    9  A    between atoms: C_20  and  N_22
REMARK   10  A    between atoms: C_23  and  C_25
REMARK   11  A    between atoms: C_26  and  C_27
REMARK   12  A    between atoms: C_30  and  O_33
REMARK   13  A    between atoms: C_31  and  O_35
REMARK                            x       y       z     vdW  Elec       q    Type
REMARK                         _______ _______ _______ _____ _____    ______ ____
ROOT
ATOM      1  C   UNL     1     -32.794  18.866  -0.049  0.00  0.00    +0.023 C 
ENDROOT
BRANCH   1   2
ATOM      2  C   UNL     1     -31.823  19.982   0.355  0.00  0.00    +0.023 C 
BRANCH   2   3
ATOM      3  C   UNL     1     -31.799  21.129  -0.651  0.00  0.00    +0.090 C 
BRANCH   3   5
ATOM      4  O   UNL     1     -34.599  21.670  -1.164  0.00  0.00    -0.270 OA
ATOM      5  N   UNL     1     -32.564  22.262  -0.208  0.00  0.00    -0.301 N 
ATOM      6  C   UNL     1     -33.909  22.440  -0.504  0.00  0.00    +0.246 C 
ATOM      7  H   UNL     1     -32.110  22.948   0.333  0.00  0.00    +0.150 HD
BRANCH   6   8
ATOM      8  C   UNL     1     -34.450  23.700   0.081  0.00  0.00    +0.058 C 
ATOM      9  C   UNL     1     -33.702  24.417   0.931  0.00  0.00    +0.005 C 
BRANCH   9  10
ATOM     10  C   UNL     1     -34.129  25.680   1.561  0.00  0.00    +0.003 C 
ATOM     11  C   UNL     1     -33.506  26.122   2.729  0.00  0.00    +0.040 C 
ATOM     12  C   UNL     1     -35.156  26.432   0.989  0.00  0.00    +0.003 C 
ATOM     13  C   UNL     1     -33.911  27.317   3.324  0.00  0.00    +0.172 C 
ATOM     14  C   UNL     1     -34.937  28.069   2.753  0.00  0.00    +0.168 C 
ATOM     15  C   UNL     1     -35.559  27.626   1.586  0.00  0.00    +0.040 C 
BRANCH  13  16
ATOM     16  O   UNL     1     -33.297  27.739   4.464  0.00  0.00    -0.468 OA
ATOM     17  C   UNL     1     -31.933  28.140   4.357  0.00  0.00    +0.253 C 
ENDBRANCH  13  16
BRANCH  14  18
ATOM     18  O   UNL     1     -35.340  29.238   3.324  0.00  0.00    -0.503 OA
ATOM     19  H   UNL     1     -34.734  29.947   3.416  0.00  0.00    +0.292 HD
ENDBRANCH  14  18
ENDBRANCH   9  10
ENDBRANCH   6   8
ENDBRANCH   3   5
ENDBRANCH   2   3
ENDBRANCH   1   2
BRANCH   1  20
ATOM     20  C   UNL     1     -33.775  18.514   1.065  0.00  0.00    +0.090 C 
BRANCH  20  22
ATOM     21  O   UNL     1     -36.595  19.154   0.889  0.00  0.00    -0.270 OA
ATOM     22  N   UNL     1     -34.440  19.671   1.595  0.00  0.00    -0.301 N 
ATOM     23  C   UNL     1     -35.805  19.896   1.463  0.00  0.00    +0.246 C 
ATOM     24  H   UNL     1     -33.901  20.338   2.078  0.00  0.00    +0.150 HD
BRANCH  23  25
ATOM     25  C   UNL     1     -36.228  21.173   2.108  0.00  0.00    +0.058 C 
ATOM     26  C   UNL     1     -35.443  21.748   3.030  0.00  0.00    +0.005 C 
BRANCH  26  27
ATOM     27  C   UNL     1     -35.754  23.010   3.723  0.00  0.00    +0.003 C 
ATOM     28  C   UNL     1     -36.764  23.842   3.237  0.00  0.00    +0.040 C 
ATOM     29  C   UNL     1     -35.041  23.374   4.865  0.00  0.00    +0.003 C 
ATOM     30  C   UNL     1     -37.059  25.037   3.893  0.00  0.00    +0.172 C 
ATOM     31  C   UNL     1     -36.345  25.401   5.035  0.00  0.00    +0.168 C 
ATOM     32  C   UNL     1     -35.336  24.569   5.521  0.00  0.00    +0.040 C 
BRANCH  30  33
ATOM     33  O   UNL     1     -38.045  25.842   3.409  0.00  0.00    -0.468 OA
ATOM     34  C   UNL     1     -39.191  25.201   2.851  0.00  0.00    +0.253 C 
ENDBRANCH  30  33
BRANCH  31  35
ATOM     35  O   UNL     1     -36.625  26.565   5.686  0.00  0.00    -0.503 OA
ATOM     36  H   UNL     1     -36.150  27.344   5.475  0.00  0.00    +0.292 HD
ENDBRANCH  31  35
ENDBRANCH  26  27
ENDBRANCH  23  25
ENDBRANCH  20  22
ENDBRANCH   1  20
TORSDOF 13
ENDMDL
MODEL 2
REMARK VINA RESULT:      -5.6      0.684      1.710
REMARK  Name = 5321825
REMARK  13 active torsions:
REMARK  status: ('A' for Active; 'I' for Inactive)
REMARK    1  A    between atoms: C_1  and  C_2
REMARK    2  A    between atoms: C_1  and  C_20
REMARK    3  A    between atoms: C_2  and  C_3
REMARK    4  A    between atoms: C_3  and  N_5
REMARK    5  A    between atoms: C_6  and  C_8
REMARK    6  A    between atoms: C_9  and  C_10
REMARK    7  A    between atoms: C_13  and  O_16
REMARK    8  A    between atoms: C_14  and  O_18
REMARK    9  A    between atoms: C_20  and  N_22
REMARK   10  A    between atoms: C_23  and  C_25
REMARK   11  A    between atoms: C_26  and  C_27
REMARK   12  A    between atoms: C_30  and  O_33
REMARK   13  A    between atoms: C_31  and  O_35
REMARK                            x       y       z     vdW  Elec       q    Type
REMARK                         _______ _______ _______ _____ _____    ______ ____
ROOT
ATOM      1  C   UNL     1     -32.485  18.662   0.141  0.00  0.00    +0.023 C 
ENDROOT
BRANCH   1   2
ATOM      2  C   UNL     1     -31.619  19.917   0.305  0.00  0.00    +0.023 C 
BRANCH   2   3
ATOM      3  C   UNL     1     -31.829  20.924  -0.821  0.00  0.00    +0.090 C 
BRANCH   3   5
ATOM      4  O   UNL     1     -34.487  21.779  -1.595  0.00  0.00    -0.270 OA
ATOM      5  N   UNL     1     -32.530  22.099  -0.381  0.00  0.00    -0.301 N 
ATOM      6  C   UNL     1     -33.809  22.432  -0.808  0.00  0.00    +0.246 C 
ATOM      7  H   UNL     1     -32.080  22.700   0.255  0.00  0.00    +0.150 HD
BRANCH   6   8
ATOM      8  C   UNL     1     -34.293  23.701  -0.195  0.00  0.00    +0.058 C 
ATOM      9  C   UNL     1     -33.643  24.227   0.853  0.00  0.00    +0.005 C 
BRANCH   9  10
ATOM     10  C   UNL     1     -34.025  25.479   1.532  0.00  0.00    +0.003 C 
ATOM     11  C   UNL     1     -35.082  26.244   1.040  0.00  0.00    +0.040 C 
ATOM     12  C   UNL     1     -33.328  25.897   2.666  0.00  0.00    +0.003 C 
ATOM     13  C   UNL     1     -35.444  27.428   1.684  0.00  0.00    +0.172 C 
ATOM     14  C   UNL     1     -34.747  27.847   2.817  0.00  0.00    +0.168 C 
ATOM     15  C   UNL     1     -33.690  27.082   3.309  0.00  0.00    +0.040 C 
BRANCH  13  16
ATOM     16  O   UNL     1     -36.477  28.168   1.194  0.00  0.00    -0.468 OA
ATOM     17  C   UNL     1     -37.542  27.459   0.566  0.00  0.00    +0.253 C 
ENDBRANCH  13  16
BRANCH  14  18
ATOM     18  O   UNL     1     -35.092  29.000   3.455  0.00  0.00    -0.503 OA
ATOM     19  H   UNL     1     -35.142  29.020   4.390  0.00  0.00    +0.292 HD
ENDBRANCH  14  18
ENDBRANCH   9  10
ENDBRANCH   6   8
ENDBRANCH   3   5
ENDBRANCH   2   3
ENDBRANCH   1   2
BRANCH   1  20
ATOM     20  C   UNL     1     -33.385  18.411   1.346  0.00  0.00    +0.090 C 
BRANCH  20  22
ATOM     21  O   UNL     1     -36.070  19.238   0.636  0.00  0.00    -0.270 OA
ATOM     22  N   UNL     1     -34.073  19.598   1.773  0.00  0.00    -0.301 N 
ATOM     23  C   UNL     1     -35.368  19.916   1.381  0.00  0.00    +0.246 C 
ATOM     24  H   UNL     1     -33.602  20.219   2.375  0.00  0.00    +0.150 HD
BRANCH  23  25
ATOM     25  C   UNL     1     -35.834  21.203   1.972  0.00  0.00    +0.058 C 
ATOM     26  C   UNL     1     -35.268  21.666   3.096  0.00  0.00    +0.005 C 
BRANCH  26  27
ATOM     27  C   UNL     1     -35.641  22.927   3.761  0.00  0.00    +0.003 C 
ATOM     28  C   UNL     1     -36.715  23.678   3.281  0.00  0.00    +0.040 C 
ATOM     29  C   UNL     1     -34.921  23.370   4.870  0.00  0.00    +0.003 C 
ATOM     30  C   UNL     1     -37.068  24.871   3.910  0.00  0.00    +0.172 C 
ATOM     31  C   UNL     1     -36.347  25.315   5.020  0.00  0.00    +0.168 C 
ATOM     32  C   UNL     1     -35.273  24.564   5.499  0.00  0.00    +0.040 C 
BRANCH  30  33
ATOM     33  O   UNL     1     -38.116  25.596   3.433  0.00  0.00    -0.468 OA
ATOM     34  C   UNL     1     -39.342  24.900   3.216  0.00  0.00    +0.253 C 
ENDBRANCH  30  33
BRANCH  31  35
ATOM     35  O   UNL     1     -36.683  26.478   5.644  0.00  0.00    -0.503 OA
ATOM     36  H   UNL     1     -36.512  26.584   6.559  0.00  0.00    +0.292 HD
ENDBRANCH  31  35
ENDBRANCH  26  27
ENDBRANCH  23  25
ENDBRANCH  20  22
ENDBRANCH   1  20
TORSDOF 13
ENDMDL
MODEL 3
REMARK VINA RESULT:      -5.4      0.842      4.065
REMARK  Name = 5321825
REMARK  13 active torsions:
REMARK  status: ('A' for Active; 'I' for Inactive)
REMARK    1  A    between atoms: C_1  and  C_2
REMARK    2  A    between atoms: C_1  and  C_20
REMARK    3  A    between atoms: C_2  and  C_3
REMARK    4  A    between atoms: C_3  and  N_5
REMARK    5  A    between atoms: C_6  and  C_8
REMARK    6  A    between atoms: C_9  and  C_10
REMARK    7  A    between atoms: C_13  and  O_16
REMARK    8  A    between atoms: C_14  and  O_18
REMARK    9  A    between atoms: C_20  and  N_22
REMARK   10  A    between atoms: C_23  and  C_25
REMARK   11  A    between atoms: C_26  and  C_27
REMARK   12  A    between atoms: C_30  and  O_33
REMARK   13  A    between atoms: C_31  and  O_35
REMARK                            x       y       z     vdW  Elec       q    Type
REMARK                         _______ _______ _______ _____ _____    ______ ____
ROOT
ATOM      1  C   UNL     1     -31.418  19.785   0.335  0.00  0.00    +0.023 C 
ENDROOT
BRANCH   1   2
ATOM      2  C   UNL     1     -32.140  18.442   0.171  0.00  0.00    +0.023 C 
BRANCH   2   3
ATOM      3  C   UNL     1     -33.328  18.296   1.117  0.00  0.00    +0.090 C 
BRANCH   3   5
ATOM      4  O   UNL     1     -36.045  19.250   0.801  0.00  0.00    -0.270 OA
ATOM      5  N   UNL     1     -33.859  19.567   1.527  0.00  0.00    -0.301 N 
ATOM      6  C   UNL     1     -35.183  19.941   1.333  0.00  0.00    +0.246 C 
ATOM      7  H   UNL     1     -33.253  20.206   1.967  0.00  0.00    +0.150 HD
BRANCH   6   8
ATOM      8  C   UNL     1     -35.461  21.310   1.854  0.00  0.00    +0.058 C 
ATOM      9  C   UNL     1     -35.611  21.506   3.172  0.00  0.00    +0.005 C 
BRANCH   9  10
ATOM     10  C   UNL     1     -35.879  22.813   3.798  0.00  0.00    +0.003 C 
ATOM     11  C   UNL     1     -36.933  23.603   3.340  0.00  0.00    +0.040 C 
ATOM     12  C   UNL     1     -35.077  23.260   4.849  0.00  0.00    +0.003 C 
ATOM     13  C   UNL     1     -37.186  24.840   3.933  0.00  0.00    +0.172 C 
ATOM     14  C   UNL     1     -36.385  25.287   4.983  0.00  0.00    +0.168 C 
ATOM     15  C   UNL     1     -35.330  24.497   5.441  0.00  0.00    +0.040 C 
BRANCH  13  16
ATOM     16  O   UNL     1     -38.217  25.604   3.477  0.00  0.00    -0.468 OA
ATOM     17  C   UNL     1     -39.470  24.951   3.279  0.00  0.00    +0.253 C 
ENDBRANCH  13  16
BRANCH  14  18
ATOM     18  O   UNL     1     -36.623  26.492   5.572  0.00  0.00    -0.503 OA
ATOM     19  H   UNL     1     -35.930  27.118   5.654  0.00  0.00    +0.292 HD
ENDBRANCH  14  18
ENDBRANCH   9  10
ENDBRANCH   6   8
ENDBRANCH   3   5
ENDBRANCH   2   3
ENDBRANCH   1   2
BRANCH   1  20
ATOM     20  C   UNL     1     -31.633  20.713  -0.856  0.00  0.00    +0.090 C 
BRANCH  20  22
ATOM     21  O   UNL     1     -33.830  22.067  -2.174  0.00  0.00    -0.270 OA
ATOM     22  N   UNL     1     -32.242  21.958  -0.477  0.00  0.00    -0.301 N 
ATOM     23  C   UNL     1     -33.298  22.535  -1.172  0.00  0.00    +0.246 C 
ATOM     24  H   UNL     1     -31.894  22.425   0.316  0.00  0.00    +0.150 HD
BRANCH  23  25
ATOM     25  C   UNL     1     -33.735  23.824  -0.561  0.00  0.00    +0.058 C 
ATOM     26  C   UNL     1     -33.596  24.018   0.758  0.00  0.00    +0.005 C 
BRANCH  26  27
ATOM     27  C   UNL     1     -33.981  25.252   1.466  0.00  0.00    +0.003 C 
ATOM     28  C   UNL     1     -35.131  25.945   1.085  0.00  0.00    +0.040 C 
ATOM     29  C   UNL     1     -33.199  25.726   2.519  0.00  0.00    +0.003 C 
ATOM     30  C   UNL     1     -35.496  27.112   1.755  0.00  0.00    +0.172 C 
ATOM     31  C   UNL     1     -34.713  27.587   2.807  0.00  0.00    +0.168 C 
ATOM     32  C   UNL     1     -33.564  26.894   3.189  0.00  0.00    +0.040 C 
BRANCH  30  33
ATOM     33  O   UNL     1     -36.619  27.782   1.372  0.00  0.00    -0.468 OA
ATOM     34  C   UNL     1     -37.437  27.163   0.381  0.00  0.00    +0.253 C 
ENDBRANCH  30  33
BRANCH  31  35
ATOM     35  O   UNL     1     -35.060  28.725   3.470  0.00  0.00    -0.503 OA
ATOM     36  H   UNL     1     -34.498  29.473   3.442  0.00  0.00    +0.292 HD
ENDBRANCH  31  35
ENDBRANCH  26  27
ENDBRANCH  23  25
ENDBRANCH  20  22
ENDBRANCH   1  20
TORSDOF 13
ENDMDL
MODEL 4
REMARK VINA RESULT:      -5.2      0.716      4.477
REMARK  Name = 5321825
REMARK  13 active torsions:
REMARK  status: ('A' for Active; 'I' for Inactive)
REMARK    1  A    between atoms: C_1  and  C_2
REMARK    2  A    between atoms: C_1  and  C_20
REMARK    3  A    between atoms: C_2  and  C_3
REMARK    4  A    between atoms: C_3  and  N_5
REMARK    5  A    between atoms: C_6  and  C_8
REMARK    6  A    between atoms: C_9  and  C_10
REMARK    7  A    between atoms: C_13  and  O_16
REMARK    8  A    between atoms: C_14  and  O_18
REMARK    9  A    between atoms: C_20  and  N_22
REMARK   10  A    between atoms: C_23  and  C_25
REMARK   11  A    between atoms: C_26  and  C_27
REMARK   12  A    between atoms: C_30  and  O_33
REMARK   13  A    between atoms: C_31  and  O_35
REMARK                            x       y       z     vdW  Elec       q    Type
REMARK                         _______ _______ _______ _____ _____    ______ ____
ROOT
ATOM      1  C   UNL     1     -32.390  19.862  -0.623  0.00  0.00    +0.023 C 
ENDROOT
BRANCH   1   2
ATOM      2  C   UNL     1     -32.067  18.915   0.539  0.00  0.00    +0.023 C 
BRANCH   2   3
ATOM      3  C   UNL     1     -33.320  18.401   1.240  0.00  0.00    +0.090 C 
BRANCH   3   5
ATOM      4  O   UNL     1     -35.976  19.421   0.691  0.00  0.00    -0.270 OA
ATOM      5  N   UNL     1     -34.018  19.440   1.946  0.00  0.00    -0.301 N 
ATOM      6  C   UNL     1     -35.296  19.867   1.610  0.00  0.00    +0.246 C 
ATOM      7  H   UNL     1     -33.566  19.872   2.706  0.00  0.00    +0.150 HD
BRANCH   6   8
ATOM      8  C   UNL     1     -35.777  20.957   2.506  0.00  0.00    +0.058 C 
ATOM      9  C   UNL     1     -35.190  22.162   2.468  0.00  0.00    +0.005 C 
BRANCH   9  10
ATOM     10  C   UNL     1     -35.587  23.312   3.299  0.00  0.00    +0.003 C 
ATOM     11  C   UNL     1     -36.614  24.157   2.877  0.00  0.00    +0.040 C 
ATOM     12  C   UNL     1     -34.935  23.557   4.509  0.00  0.00    +0.003 C 
ATOM     13  C   UNL     1     -36.990  25.245   3.665  0.00  0.00    +0.172 C 
ATOM     14  C   UNL     1     -36.338  25.490   4.873  0.00  0.00    +0.168 C 
ATOM     15  C   UNL     1     -35.311  24.646   5.295  0.00  0.00    +0.040 C 
BRANCH  13  16
ATOM     16  O   UNL     1     -37.993  26.064   3.242  0.00  0.00    -0.468 OA
ATOM     17  C   UNL     1     -39.189  25.439   2.781  0.00  0.00    +0.253 C 
ENDBRANCH  13  16
BRANCH  14  18
ATOM     18  O   UNL     1     -36.697  26.548   5.652  0.00  0.00    -0.503 OA
ATOM     19  H   UNL     1     -36.263  26.697   6.469  0.00  0.00    +0.292 HD
ENDBRANCH  14  18
ENDBRANCH   9  10
ENDBRANCH   6   8
ENDBRANCH   3   5
ENDBRANCH   2   3
ENDBRANCH   1   2
BRANCH   1  20
ATOM     20  C   UNL     1     -31.511  21.108  -0.624  0.00  0.00    +0.090 C 
BRANCH  20  22
ATOM     21  O   UNL     1     -32.940  22.904  -2.394  0.00  0.00    -0.270 OA
ATOM     22  N   UNL     1     -32.239  22.292  -0.261  0.00  0.00    -0.301 N 
ATOM     23  C   UNL     1     -32.899  23.097  -1.182  0.00  0.00    +0.246 C 
ATOM     24  H   UNL     1     -32.274  22.546   0.690  0.00  0.00    +0.150 HD
BRANCH  23  25
ATOM     25  C   UNL     1     -33.572  24.259  -0.532  0.00  0.00    +0.058 C 
ATOM     26  C   UNL     1     -33.109  24.732   0.633  0.00  0.00    +0.005 C 
BRANCH  26  27
ATOM     27  C   UNL     1     -33.687  25.877   1.359  0.00  0.00    +0.003 C 
ATOM     28  C   UNL     1     -33.191  26.231   2.614  0.00  0.00    +0.040 C 
ATOM     29  C   UNL     1     -34.731  26.608   0.790  0.00  0.00    +0.003 C 
ATOM     30  C   UNL     1     -33.738  27.315   3.300  0.00  0.00    +0.172 C 
ATOM     31  C   UNL     1     -34.782  28.046   2.732  0.00  0.00    +0.168 C 
ATOM     32  C   UNL     1     -35.278  27.692   1.477  0.00  0.00    +0.040 C 
BRANCH  30  33
ATOM     33  O   UNL     1     -33.247  27.650   4.525  0.00  0.00    -0.468 OA
ATOM     34  C   UNL     1     -32.013  28.365   4.556  0.00  0.00    +0.253 C 
ENDBRANCH  30  33
BRANCH  31  35
ATOM     35  O   UNL     1     -35.323  29.107   3.392  0.00  0.00    -0.503 OA
ATOM     36  H   UNL     1     -35.650  29.841   2.910  0.00  0.00    +0.292 HD
ENDBRANCH  31  35
ENDBRANCH  26  27
ENDBRANCH  23  25
ENDBRANCH  20  22
ENDBRANCH   1  20
TORSDOF 13
ENDMDL
MODEL 5
REMARK VINA RESULT:      -5.1      1.540      2.374
REMARK  Name = 5321825
REMARK  13 active torsions:
REMARK  status: ('A' for Active; 'I' for Inactive)
REMARK    1  A    between atoms: C_1  and  C_2
REMARK    2  A    between atoms: C_1  and  C_20
REMARK    3  A    between atoms: C_2  and  C_3
REMARK    4  A    between atoms: C_3  and  N_5
REMARK    5  A    between atoms: C_6  and  C_8
REMARK    6  A    between atoms: C_9  and  C_10
REMARK    7  A    between atoms: C_13  and  O_16
REMARK    8  A    between atoms: C_14  and  O_18
REMARK    9  A    between atoms: C_20  and  N_22
REMARK   10  A    between atoms: C_23  and  C_25
REMARK   11  A    between atoms: C_26  and  C_27
REMARK   12  A    between atoms: C_30  and  O_33
REMARK   13  A    between atoms: C_31  and  O_35
REMARK                            x       y       z     vdW  Elec       q    Type
REMARK                         _______ _______ _______ _____ _____    ______ ____
ROOT
ATOM      1  C   UNL     1     -32.587  17.520  -0.217  0.00  0.00    +0.023 C 
ENDROOT
BRANCH   1   2
ATOM      2  C   UNL     1     -32.071  18.605   0.736  0.00  0.00    +0.023 C 
BRANCH   2   3
ATOM      3  C   UNL     1     -31.566  19.841  -0.003  0.00  0.00    +0.090 C 
BRANCH   3   5
ATOM      4  O   UNL     1     -33.515  20.712  -1.962  0.00  0.00    -0.270 OA
ATOM      5  N   UNL     1     -32.473  20.950   0.104  0.00  0.00    -0.301 N 
ATOM      6  C   UNL     1     -33.377  21.297  -0.892  0.00  0.00    +0.246 C 
ATOM      7  H   UNL     1     -32.451  21.494   0.924  0.00  0.00    +0.150 HD
BRANCH   6   8
ATOM      8  C   UNL     1     -34.193  22.487  -0.519  0.00  0.00    +0.058 C 
ATOM      9  C   UNL     1     -33.835  23.240   0.532  0.00  0.00    +0.005 C 
BRANCH   9  10
ATOM     10  C   UNL     1     -34.558  24.442   0.985  0.00  0.00    +0.003 C 
ATOM     11  C   UNL     1     -34.195  25.066   2.179  0.00  0.00    +0.040 C 
ATOM     12  C   UNL     1     -35.607  24.954   0.220  0.00  0.00    +0.003 C 
ATOM     13  C   UNL     1     -34.880  26.203   2.606  0.00  0.00    +0.172 C 
ATOM     14  C   UNL     1     -35.928  26.716   1.843  0.00  0.00    +0.168 C 
ATOM     15  C   UNL     1     -36.291  26.092   0.649  0.00  0.00    +0.040 C 
BRANCH  13  16
ATOM     16  O   UNL     1     -34.518  26.803   3.774  0.00  0.00    -0.468 OA
ATOM     17  C   UNL     1     -33.995  25.963   4.801  0.00  0.00    +0.253 C 
ENDBRANCH  13  16
BRANCH  14  18
ATOM     18  O   UNL     1     -36.603  27.827   2.249  0.00  0.00    -0.503 OA
ATOM     19  H   UNL     1     -36.892  28.456   1.618  0.00  0.00    +0.292 HD
ENDBRANCH  14  18
ENDBRANCH   9  10
ENDBRANCH   6   8
ENDBRANCH   3   5
ENDBRANCH   2   3
ENDBRANCH   1   2
BRANCH   1  20
ATOM     20  C   UNL     1     -34.059  17.194   0.009  0.00  0.00    +0.090 C 
BRANCH  20  22
ATOM     21  O   UNL     1     -36.687  18.037  -0.871  0.00  0.00    -0.270 OA
ATOM     22  N   UNL     1     -34.807  18.331   0.467  0.00  0.00    -0.301 N 
ATOM     23  C   UNL     1     -36.069  18.661  -0.014  0.00  0.00    +0.246 C 
ATOM     24  H   UNL     1     -34.406  18.907   1.158  0.00  0.00    +0.150 HD
BRANCH  23  25
ATOM     25  C   UNL     1     -36.614  19.888   0.635  0.00  0.00    +0.058 C 
ATOM     26  C   UNL     1     -36.057  20.351   1.763  0.00  0.00    +0.005 C 
BRANCH  26  27
ATOM     27  C   UNL     1     -36.505  21.556   2.482  0.00  0.00    +0.003 C 
ATOM     28  C   UNL     1     -35.931  21.890   3.710  0.00  0.00    +0.040 C 
ATOM     29  C   UNL     1     -37.503  22.364   1.937  0.00  0.00    +0.003 C 
ATOM     30  C   UNL     1     -36.354  23.031   4.391  0.00  0.00    +0.172 C 
ATOM     31  C   UNL     1     -37.353  23.839   3.845  0.00  0.00    +0.168 C 
ATOM     32  C   UNL     1     -37.927  23.505   2.618  0.00  0.00    +0.040 C 
BRANCH  30  33
ATOM     33  O   UNL     1     -35.788  23.346   5.588  0.00  0.00    -0.468 OA
ATOM     34  C   UNL     1     -35.188  22.281   6.322  0.00  0.00    +0.253 C 
ENDBRANCH  30  33
BRANCH  31  35
ATOM     35  O   UNL     1     -37.774  24.956   4.500  0.00  0.00    -0.503 OA
ATOM     36  H   UNL     1     -37.207  25.698   4.572  0.00  0.00    +0.292 HD
ENDBRANCH  31  35
ENDBRANCH  26  27
ENDBRANCH  23  25
ENDBRANCH  20  22
ENDBRANCH   1  20
TORSDOF 13
ENDMDL
MODEL 6
REMARK VINA RESULT:      -5.1      3.133      7.552
REMARK  Name = 5321825
REMARK  13 active torsions:
REMARK  status: ('A' for Active; 'I' for Inactive)
REMARK    1  A    between atoms: C_1  and  C_2
REMARK    2  A    between atoms: C_1  and  C_20
REMARK    3  A    between atoms: C_2  and  C_3
REMARK    4  A    between atoms: C_3  and  N_5
REMARK    5  A    between atoms: C_6  and  C_8
REMARK    6  A    between atoms: C_9  and  C_10
REMARK    7  A    between atoms: C_13  and  O_16
REMARK    8  A    between atoms: C_14  and  O_18
REMARK    9  A    between atoms: C_20  and  N_22
REMARK   10  A    between atoms: C_23  and  C_25
REMARK   11  A    between atoms: C_26  and  C_27
REMARK   12  A    between atoms: C_30  and  O_33
REMARK   13  A    between atoms: C_31  and  O_35
REMARK                            x       y       z     vdW  Elec       q    Type
REMARK                         _______ _______ _______ _____ _____    ______ ____
ROOT
ATOM      1  C   UNL     1     -31.505  31.019   4.099  0.00  0.00    +0.023 C 
ENDROOT
BRANCH   1   2
ATOM      2  C   UNL     1     -32.118  30.798   5.487  0.00  0.00    +0.023 C 
BRANCH   2   3
ATOM      3  C   UNL     1     -31.796  29.419   6.056  0.00  0.00    +0.090 C 
BRANCH   3   5
ATOM      4  O   UNL     1     -32.695  26.929   7.234  0.00  0.00    -0.270 OA
ATOM      5  N   UNL     1     -32.549  28.374   5.418  0.00  0.00    -0.301 N 
ATOM      6  C   UNL     1     -32.937  27.208   6.064  0.00  0.00    +0.246 C 
ATOM      7  H   UNL     1     -32.801  28.491   4.474  0.00  0.00    +0.150 HD
BRANCH   6   8
ATOM      8  C   UNL     1     -33.705  26.298   5.167  0.00  0.00    +0.058 C 
ATOM      9  C   UNL     1     -34.695  25.544   5.668  0.00  0.00    +0.005 C 
BRANCH   9  10
ATOM     10  C   UNL     1     -35.525  24.619   4.875  0.00  0.00    +0.003 C 
ATOM     11  C   UNL     1     -35.152  23.281   4.748  0.00  0.00    +0.040 C 
ATOM     12  C   UNL     1     -36.684  25.083   4.251  0.00  0.00    +0.003 C 
ATOM     13  C   UNL     1     -35.938  22.406   3.999  0.00  0.00    +0.172 C 
ATOM     14  C   UNL     1     -37.096  22.869   3.375  0.00  0.00    +0.168 C 
ATOM     15  C   UNL     1     -37.469  24.207   3.501  0.00  0.00    +0.040 C 
BRANCH  13  16
ATOM     16  O   UNL     1     -35.563  21.102   3.881  0.00  0.00    -0.468 OA
ATOM     17  C   UNL     1     -35.029  20.692   2.623  0.00  0.00    +0.253 C 
ENDBRANCH  13  16
BRANCH  14  18
ATOM     18  O   UNL     1     -37.873  22.024   2.641  0.00  0.00    -0.503 OA
ATOM     19  H   UNL     1     -37.998  21.139   2.924  0.00  0.00    +0.292 HD
ENDBRANCH  14  18
ENDBRANCH   9  10
ENDBRANCH   6   8
ENDBRANCH   3   5
ENDBRANCH   2   3
ENDBRANCH   1   2
BRANCH   1  20
ATOM     20  C   UNL     1     -32.557  31.315   3.036  0.00  0.00    +0.090 C 
BRANCH  20  22
ATOM     21  O   UNL     1     -35.335  30.749   3.636  0.00  0.00    -0.270 OA
ATOM     22  N   UNL     1     -33.308  30.147   2.668  0.00  0.00    -0.301 N 
ATOM     23  C   UNL     1     -34.644  29.959   3.000  0.00  0.00    +0.246 C 
ATOM     24  H   UNL     1     -32.851  29.442   2.152  0.00  0.00    +0.150 HD
BRANCH  23  25
ATOM     25  C   UNL     1     -35.172  28.660   2.492  0.00  0.00    +0.058 C 
ATOM     26  C   UNL     1     -34.338  27.775   1.928  0.00  0.00    +0.005 C 
BRANCH  26  27
ATOM     27  C   UNL     1     -34.747  26.460   1.402  0.00  0.00    +0.003 C 
ATOM     28  C   UNL     1     -35.963  26.324   0.731  0.00  0.00    +0.040 C 
ATOM     29  C   UNL     1     -33.917  25.352   1.574  0.00  0.00    +0.003 C 
ATOM     30  C   UNL     1     -36.349  25.080   0.233  0.00  0.00    +0.172 C 
ATOM     31  C   UNL     1     -35.520  23.971   0.405  0.00  0.00    +0.168 C 
ATOM     32  C   UNL     1     -34.304  24.107   1.076  0.00  0.00    +0.040 C 
BRANCH  30  33
ATOM     33  O   UNL     1     -37.539  24.959  -0.418  0.00  0.00    -0.468 OA
ATOM     34  C   UNL     1     -38.557  25.902  -0.090  0.00  0.00    +0.253 C 
ENDBRANCH  30  33
BRANCH  31  35
ATOM     35  O   UNL     1     -35.885  22.751  -0.078  0.00  0.00    -0.503 OA
ATOM     36  H   UNL     1     -36.788  22.501  -0.081  0.00  0.00    +0.292 HD
ENDBRANCH  31  35
ENDBRANCH  26  27
ENDBRANCH  23  25
ENDBRANCH  20  22
ENDBRANCH   1  20
TORSDOF 13
ENDMDL
MODEL 7
REMARK VINA RESULT:      -5.0      2.559      4.524
REMARK  Name = 5321825
REMARK  13 active torsions:
REMARK  status: ('A' for Active; 'I' for Inactive)
REMARK    1  A    between atoms: C_1  and  C_2
REMARK    2  A    between atoms: C_1  and  C_20
REMARK    3  A    between atoms: C_2  and  C_3
REMARK    4  A    between atoms: C_3  and  N_5
REMARK    5  A    between atoms: C_6  and  C_8
REMARK    6  A    between atoms: C_9  and  C_10
REMARK    7  A    between atoms: C_13  and  O_16
REMARK    8  A    between atoms: C_14  and  O_18
REMARK    9  A    between atoms: C_20  and  N_22
REMARK   10  A    between atoms: C_23  and  C_25
REMARK   11  A    between atoms: C_26  and  C_27
REMARK   12  A    between atoms: C_30  and  O_33
REMARK   13  A    between atoms: C_31  and  O_35
REMARK                            x       y       z     vdW  Elec       q    Type
REMARK                         _______ _______ _______ _____ _____    ______ ____
ROOT
ATOM      1  C   UNL     1     -35.512  16.234  -1.053  0.00  0.00    +0.023 C 
ENDROOT
BRANCH   1   2
ATOM      2  C   UNL     1     -36.243  17.556  -1.316  0.00  0.00    +0.023 C 
BRANCH   2   3
ATOM      3  C   UNL     1     -37.671  17.552  -0.777  0.00  0.00    +0.090 C 
BRANCH   3   5
ATOM      4  O   UNL     1     -38.639  20.083  -1.802  0.00  0.00    -0.270 OA
ATOM      5  N   UNL     1     -37.975  18.738  -0.025  0.00  0.00    -0.301 N 
ATOM      6  C   UNL     1     -38.436  19.913  -0.604  0.00  0.00    +0.246 C 
ATOM      7  H   UNL     1     -37.848  18.717   0.951  0.00  0.00    +0.150 HD
BRANCH   6   8
ATOM      8  C   UNL     1     -38.669  20.984   0.407  0.00  0.00    +0.058 C 
ATOM      9  C   UNL     1     -38.524  22.272   0.062  0.00  0.00    +0.005 C 
BRANCH   9  10
ATOM     10  C   UNL     1     -38.737  23.410   0.974  0.00  0.00    +0.003 C 
ATOM     11  C   UNL     1     -38.394  24.701   0.570  0.00  0.00    +0.040 C 
ATOM     12  C   UNL     1     -39.282  23.197   2.241  0.00  0.00    +0.003 C 
ATOM     13  C   UNL     1     -38.597  25.778   1.433  0.00  0.00    +0.172 C 
ATOM     14  C   UNL     1     -39.140  25.565   2.700  0.00  0.00    +0.168 C 
ATOM     15  C   UNL     1     -39.484  24.274   3.103  0.00  0.00    +0.040 C 
BRANCH  13  16
ATOM     16  O   UNL     1     -38.256  27.033   1.029  0.00  0.00    -0.468 OA
ATOM     17  C   UNL     1     -36.930  27.470   1.320  0.00  0.00    +0.253 C 
ENDBRANCH  13  16
BRANCH  14  18
ATOM     18  O   UNL     1     -39.344  26.609   3.551  0.00  0.00    -0.503 OA
ATOM     19  H   UNL     1     -39.905  27.315   3.299  0.00  0.00    +0.292 HD
ENDBRANCH  14  18
ENDBRANCH   9  10
ENDBRANCH   6   8
ENDBRANCH   3   5
ENDBRANCH   2   3
ENDBRANCH   1   2
BRANCH   1  20
ATOM     20  C   UNL     1     -34.280  16.412  -0.173  0.00  0.00    +0.090 C 
BRANCH  20  22
ATOM     21  O   UNL     1     -32.436  18.616  -0.546  0.00  0.00    -0.270 OA
ATOM     22  N   UNL     1     -34.277  17.671   0.518  0.00  0.00    -0.301 N 
ATOM     23  C   UNL     1     -33.349  18.677   0.272  0.00  0.00    +0.246 C 
ATOM     24  H   UNL     1     -34.969  17.830   1.200  0.00  0.00    +0.150 HD
BRANCH  23  25
ATOM     25  C   UNL     1     -33.580  19.875   1.130  0.00  0.00    +0.058 C 
ATOM     26  C   UNL     1     -34.735  20.549   1.039  0.00  0.00    +0.005 C 
BRANCH  26  27
ATOM     27  C   UNL     1     -35.075  21.737   1.842  0.00  0.00    +0.003 C 
ATOM     28  C   UNL     1     -35.561  21.586   3.141  0.00  0.00    +0.040 C 
ATOM     29  C   UNL     1     -34.909  23.013   1.304  0.00  0.00    +0.003 C 
ATOM     30  C   UNL     1     -35.882  22.710   3.901  0.00  0.00    +0.172 C 
ATOM     31  C   UNL     1     -35.717  23.987   3.363  0.00  0.00    +0.168 C 
ATOM     32  C   UNL     1     -35.231  24.138   2.063  0.00  0.00    +0.040 C 
BRANCH  30  33
ATOM     33  O   UNL     1     -36.357  22.551   5.167  0.00  0.00    -0.468 OA
ATOM     34  C   UNL     1     -35.403  22.260   6.187  0.00  0.00    +0.253 C 
ENDBRANCH  30  33
BRANCH  31  35
ATOM     35  O   UNL     1     -36.025  25.093   4.095  0.00  0.00    -0.503 OA
ATOM     36  H   UNL     1     -35.764  25.147   4.993  0.00  0.00    +0.292 HD
ENDBRANCH  31  35
ENDBRANCH  26  27
ENDBRANCH  23  25
ENDBRANCH  20  22
ENDBRANCH   1  20
TORSDOF 13
ENDMDL
MODEL 8
REMARK VINA RESULT:      -5.0      2.858      5.821
REMARK  Name = 5321825
REMARK  13 active torsions:
REMARK  status: ('A' for Active; 'I' for Inactive)
REMARK    1  A    between atoms: C_1  and  C_2
REMARK    2  A    between atoms: C_1  and  C_20
REMARK    3  A    between atoms: C_2  and  C_3
REMARK    4  A    between atoms: C_3  and  N_5
REMARK    5  A    between atoms: C_6  and  C_8
REMARK    6  A    between atoms: C_9  and  C_10
REMARK    7  A    between atoms: C_13  and  O_16
REMARK    8  A    between atoms: C_14  and  O_18
REMARK    9  A    between atoms: C_20  and  N_22
REMARK   10  A    between atoms: C_23  and  C_25
REMARK   11  A    between atoms: C_26  and  C_27
REMARK   12  A    between atoms: C_30  and  O_33
REMARK   13  A    between atoms: C_31  and  O_35
REMARK                            x       y       z     vdW  Elec       q    Type
REMARK                         _______ _______ _______ _____ _____    ______ ____
ROOT
ATOM      1  C   UNL     1     -28.591  25.918  -1.146  0.00  0.00    +0.023 C 
ENDROOT
BRANCH   1   2
ATOM      2  C   UNL     1     -29.016  27.389  -1.065  0.00  0.00    +0.023 C 
BRANCH   2   3
ATOM      3  C   UNL     1     -29.311  27.834   0.365  0.00  0.00    +0.090 C 
BRANCH   3   5
ATOM      4  O   UNL     1     -30.110  26.155   2.586  0.00  0.00    -0.270 OA
ATOM      5  N   UNL     1     -30.649  27.510   0.774  0.00  0.00    -0.301 N 
ATOM      6  C   UNL     1     -30.939  26.690   1.858  0.00  0.00    +0.246 C 
ATOM      7  H   UNL     1     -31.399  27.886   0.260  0.00  0.00    +0.150 HD
BRANCH   6   8
ATOM      8  C   UNL     1     -32.407  26.522   2.056  0.00  0.00    +0.058 C 
ATOM      9  C   UNL     1     -32.862  25.688   3.004  0.00  0.00    +0.005 C 
BRANCH   9  10
ATOM     10  C   UNL     1     -34.288  25.451   3.294  0.00  0.00    +0.003 C 
ATOM     11  C   UNL     1     -34.660  24.440   4.181  0.00  0.00    +0.040 C 
ATOM     12  C   UNL     1     -35.264  26.237   2.682  0.00  0.00    +0.003 C 
ATOM     13  C   UNL     1     -36.009  24.217   4.456  0.00  0.00    +0.172 C 
ATOM     14  C   UNL     1     -36.986  25.002   3.844  0.00  0.00    +0.168 C 
ATOM     15  C   UNL     1     -36.613  26.013   2.957  0.00  0.00    +0.040 C 
BRANCH  13  16
ATOM     16  O   UNL     1     -36.361  23.226   5.322  0.00  0.00    -0.468 OA
ATOM     17  C   UNL     1     -35.334  22.324   5.727  0.00  0.00    +0.253 C 
ENDBRANCH  13  16
BRANCH  14  18
ATOM     18  O   UNL     1     -38.306  24.795   4.105  0.00  0.00    -0.503 OA
ATOM     19  H   UNL     1     -38.733  24.028   3.778  0.00  0.00    +0.292 HD
ENDBRANCH  14  18
ENDBRANCH   9  10
ENDBRANCH   6   8
ENDBRANCH   3   5
ENDBRANCH   2   3
ENDBRANCH   1   2
BRANCH   1  20
ATOM     20  C   UNL     1     -29.503  25.095  -2.050  0.00  0.00    +0.090 C 
BRANCH  20  22
ATOM     21  O   UNL     1     -32.260  25.654  -1.354  0.00  0.00    -0.270 OA
ATOM     22  N   UNL     1     -30.401  24.256  -1.306  0.00  0.00    -0.301 N 
ATOM     23  C   UNL     1     -31.714  24.607  -1.018  0.00  0.00    +0.246 C 
ATOM     24  H   UNL     1     -30.068  23.387  -0.984  0.00  0.00    +0.150 HD
BRANCH  23  25
ATOM     25  C   UNL     1     -32.418  23.552  -0.234  0.00  0.00    +0.058 C 
ATOM     26  C   UNL     1     -33.756  23.566  -0.145  0.00  0.00    +0.005 C 
BRANCH  26  27
ATOM     27  C   UNL     1     -34.555  22.571   0.592  0.00  0.00    +0.003 C 
ATOM     28  C   UNL     1     -34.008  21.324   0.898  0.00  0.00    +0.040 C 
ATOM     29  C   UNL     1     -35.858  22.876   0.986  0.00  0.00    +0.003 C 
ATOM     30  C   UNL     1     -34.763  20.383   1.596  0.00  0.00    +0.172 C 
ATOM     31  C   UNL     1     -36.067  20.688   1.989  0.00  0.00    +0.168 C 
ATOM     32  C   UNL     1     -36.614  21.934   1.683  0.00  0.00    +0.040 C 
BRANCH  30  33
ATOM     33  O   UNL     1     -34.220  19.169   1.888  0.00  0.00    -0.468 OA
ATOM     34  C   UNL     1     -33.034  18.804   1.184  0.00  0.00    +0.253 C 
ENDBRANCH  30  33
BRANCH  31  35
ATOM     35  O   UNL     1     -36.815  19.777   2.673  0.00  0.00    -0.503 OA
ATOM     36  H   UNL     1     -37.482  19.292   2.229  0.00  0.00    +0.292 HD
ENDBRANCH  31  35
ENDBRANCH  26  27
ENDBRANCH  23  25
ENDBRANCH  20  22
ENDBRANCH   1  20
TORSDOF 13
ENDMDL
MODEL 9
REMARK VINA RESULT:      -5.0      2.158      4.183
REMARK  Name = 5321825
REMARK  13 active torsions:
REMARK  status: ('A' for Active; 'I' for Inactive)
REMARK    1  A    between atoms: C_1  and  C_2
REMARK    2  A    between atoms: C_1  and  C_20
REMARK    3  A    between atoms: C_2  and  C_3
REMARK    4  A    between atoms: C_3  and  N_5
REMARK    5  A    between atoms: C_6  and  C_8
REMARK    6  A    between atoms: C_9  and  C_10
REMARK    7  A    between atoms: C_13  and  O_16
REMARK    8  A    between atoms: C_14  and  O_18
REMARK    9  A    between atoms: C_20  and  N_22
REMARK   10  A    between atoms: C_23  and  C_25
REMARK   11  A    between atoms: C_26  and  C_27
REMARK   12  A    between atoms: C_30  and  O_33
REMARK   13  A    between atoms: C_31  and  O_35
REMARK                            x       y       z     vdW  Elec       q    Type
REMARK                         _______ _______ _______ _____ _____    ______ ____
ROOT
ATOM      1  C   UNL     1     -34.906  16.822   0.001  0.00  0.00    +0.023 C 
ENDROOT
BRANCH   1   2
ATOM      2  C   UNL     1     -35.928  17.272  -1.051  0.00  0.00    +0.023 C 
BRANCH   2   3
ATOM      3  C   UNL     1     -37.360  17.238  -0.526  0.00  0.00    +0.090 C 
BRANCH   3   5
ATOM      4  O   UNL     1     -38.579  19.577  -1.727  0.00  0.00    -0.270 OA
ATOM      5  N   UNL     1     -37.731  18.462   0.130  0.00  0.00    -0.301 N 
ATOM      6  C   UNL     1     -38.313  19.537  -0.530  0.00  0.00    +0.246 C 
ATOM      7  H   UNL     1     -37.563  18.543   1.096  0.00  0.00    +0.150 HD
BRANCH   6   8
ATOM      8  C   UNL     1     -38.593  20.675   0.391  0.00  0.00    +0.058 C 
ATOM      9  C   UNL     1     -38.245  21.922   0.038  0.00  0.00    +0.005 C 
BRANCH   9  10
ATOM     10  C   UNL     1     -38.480  23.121   0.863  0.00  0.00    +0.003 C 
ATOM     11  C   UNL     1     -38.356  24.391   0.299  0.00  0.00    +0.040 C 
ATOM     12  C   UNL     1     -38.826  22.985   2.208  0.00  0.00    +0.003 C 
ATOM     13  C   UNL     1     -38.580  25.525   1.079  0.00  0.00    +0.172 C 
ATOM     14  C   UNL     1     -38.925  25.390   2.423  0.00  0.00    +0.168 C 
ATOM     15  C   UNL     1     -39.049  24.120   2.988  0.00  0.00    +0.040 C 
BRANCH  13  16
ATOM     16  O   UNL     1     -38.454  26.760   0.518  0.00  0.00    -0.468 OA
ATOM     17  C   UNL     1     -37.136  27.292   0.411  0.00  0.00    +0.253 C 
ENDBRANCH  13  16
BRANCH  14  18
ATOM     18  O   UNL     1     -39.148  26.490   3.196  0.00  0.00    -0.503 OA
ATOM     19  H   UNL     1     -39.786  27.124   2.935  0.00  0.00    +0.292 HD
ENDBRANCH  14  18
ENDBRANCH   9  10
ENDBRANCH   6   8
ENDBRANCH   3   5
ENDBRANCH   2   3
ENDBRANCH   1   2
BRANCH   1  20
ATOM     20  C   UNL     1     -33.819  17.863   0.243  0.00  0.00    +0.090 C 
BRANCH  20  22
ATOM     21  O   UNL     1     -34.751  20.524  -0.424  0.00  0.00    -0.270 OA
ATOM     22  N   UNL     1     -34.239  18.892   1.152  0.00  0.00    -0.301 N 
ATOM     23  C   UNL     1     -34.675  20.146   0.741  0.00  0.00    +0.246 C 
ATOM     24  H   UNL     1     -34.219  18.699   2.118  0.00  0.00    +0.150 HD
BRANCH  23  25
ATOM     25  C   UNL     1     -35.049  21.017   1.893  0.00  0.00    +0.058 C 
ATOM     26  C   UNL     1     -34.920  22.347   1.794  0.00  0.00    +0.005 C 
BRANCH  26  27
ATOM     27  C   UNL     1     -35.268  23.302   2.861  0.00  0.00    +0.003 C 
ATOM     28  C   UNL     1     -35.248  24.673   2.605  0.00  0.00    +0.040 C 
ATOM     29  C   UNL     1     -35.619  22.835   4.128  0.00  0.00    +0.003 C 
ATOM     30  C   UNL     1     -35.577  25.577   3.615  0.00  0.00    +0.172 C 
ATOM     31  C   UNL     1     -35.927  25.110   4.883  0.00  0.00    +0.168 C 
ATOM     32  C   UNL     1     -35.948  23.738   5.139  0.00  0.00    +0.040 C 
BRANCH  30  33
ATOM     33  O   UNL     1     -35.552  26.913   3.354  0.00  0.00    -0.468 OA
ATOM     34  C   UNL     1     -34.274  27.545   3.328  0.00  0.00    +0.253 C 
ENDBRANCH  30  33
BRANCH  31  35
ATOM     35  O   UNL     1     -36.253  25.982   5.877  0.00  0.00    -0.503 OA
ATOM     36  H   UNL     1     -36.236  25.701   6.770  0.00  0.00    +0.292 HD
ENDBRANCH  31  35
ENDBRANCH  26  27
ENDBRANCH  23  25
ENDBRANCH  20  22
ENDBRANCH   1  20
TORSDOF 13
ENDMDL
