MODEL 1
REMARK VINA RESULT:      -5.6      0.000      0.000
REMARK  Name = 57348380
REMARK  11 active torsions:
REMARK  status: ('A' for Active; 'I' for Inactive)
REMARK    1  A    between atoms: N_2  and  C_17
REMARK    2  A    between atoms: C_3  and  CA_5
REMARK    3  A    between atoms: CA_5  and  N_6
REMARK    4  A    between atoms: CA_5  and  CB_10
REMARK    5  A    between atoms: CB_10  and  CG_11
REMARK    6  A    between atoms: CG_11  and  CD_14
REMARK    7  A    between atoms: C_17  and  C_19
REMARK    8  A    between atoms: C_17  and  C_22
REMARK    9  A    between atoms: C_19  and  O_20
REMARK   10  A    between atoms: C_22  and  S_23
REMARK   11  A    between atoms: S_23  and  C_26
REMARK                            x       y       z     vdW  Elec       q    Type
REMARK                         _______ _______ _______ _____ _____    ______ ____
ROOT
ATOM      1  O   GLN A   1     -36.177  24.548   2.768  0.00  0.00    -0.277 OA
ATOM      2  N   UNK A   2     -37.423  22.655   3.270  0.00  0.00    -0.298 N 
ATOM      3  C   GLN A   1     -36.537  23.682   3.562  0.00  0.00    +0.202 C 
ATOM      4  H   UNK A   2     -37.646  22.011   3.980  0.00  0.00    +0.150 HD
ENDROOT
BRANCH   3   5
ATOM      5  CA  GLN A   1     -36.013  23.608   4.993  0.00  0.00    +0.013 C 
BRANCH   5   6
ATOM      6  N   GLN A   1     -36.059  22.191   5.358  0.00  0.00    +0.387 N 
ATOM      7  H1  GLN A   1     -36.928  21.997   5.856  0.00  0.00    -0.089 HD
ATOM      8  H2  GLN A   1     -35.266  21.970   5.959  0.00  0.00    -0.089 HD
ATOM      9  H3  GLN A   1     -36.017  21.621   4.513  0.00  0.00    -0.089 HD
ENDBRANCH   5   6
BRANCH   5  10
ATOM     10  CB  GLN A   1     -34.568  24.119   5.111  0.00  0.00    -0.003 C 
BRANCH  10  11
ATOM     11  CG  GLN A   1     -34.474  25.537   5.678  0.00  0.00    +0.083 C 
BRANCH  11  14
ATOM     12  OE1 GLN A   1     -32.901  26.785   4.315  0.00  0.00    -0.275 OA
ATOM     13  NE2 GLN A   1     -35.144  27.245   4.119  0.00  0.00    -0.329 N 
ATOM     14  CD  GLN A   1     -34.062  26.577   4.653  0.00  0.00    +0.219 C 
ATOM     15 HE21 GLN A   1     -35.005  27.945   3.441  0.00  0.00    +0.145 HD
ATOM     16 HE22 GLN A   1     -36.056  27.021   4.417  0.00  0.00    +0.145 HD
ENDBRANCH  11  14
ENDBRANCH  10  11
ENDBRANCH   5  10
ENDBRANCH   3   5
BRANCH   2  17
ATOM     17  C   UNK A   2     -38.033  22.487   1.971  0.00  0.00    +0.182 C 
BRANCH  17  19
ATOM     18  O   UNK A   2     -40.373  23.122   1.932  0.00  0.00    -0.248 OA
ATOM     19  C   UNK A   2     -39.530  22.245   2.075  0.00  0.00    +0.333 C 
BRANCH  19  20
ATOM     20  O   UNK A   2     -39.847  20.959   2.360  0.00  0.00    -0.479 OA
ATOM     21  H   UNK A   2     -39.498  20.550   3.127  0.00  0.00    +0.295 HD
ENDBRANCH  19  20
ENDBRANCH  17  19
BRANCH  17  22
ATOM     22  C   UNK A   2     -37.327  21.411   1.141  0.00  0.00    +0.094 C 
BRANCH  22  23
ATOM     23  S   UNK A   2     -36.325  20.256   2.133  0.00  0.00    -0.099 S 
BRANCH  23  26
ATOM     24 CL   UNK A   2     -34.421  22.193   0.969  0.00  0.00    -0.075 Cl
ATOM     25 CL   UNK A   2     -32.303  19.724   0.638  0.00  0.00    -0.080 Cl
ATOM     26  C   UNK A   2     -34.771  20.560   1.428  0.00  0.00    +0.094 C 
ATOM     27  C   UNK A   2     -33.883  19.568   1.290  0.00  0.00    +0.086 C 
ENDBRANCH  23  26
ENDBRANCH  22  23
ENDBRANCH  17  22
ENDBRANCH   2  17
TORSDOF 11
ENDMDL
MODEL 2
REMARK VINA RESULT:      -5.4      3.726      5.640
REMARK  Name = 57348380
REMARK  11 active torsions:
REMARK  status: ('A' for Active; 'I' for Inactive)
REMARK    1  A    between atoms: N_2  and  C_17
REMARK    2  A    between atoms: C_3  and  CA_5
REMARK    3  A    between atoms: CA_5  and  N_6
REMARK    4  A    between atoms: CA_5  and  CB_10
REMARK    5  A    between atoms: CB_10  and  CG_11
REMARK    6  A    between atoms: CG_11  and  CD_14
REMARK    7  A    between atoms: C_17  and  C_19
REMARK    8  A    between atoms: C_17  and  C_22
REMARK    9  A    between atoms: C_19  and  O_20
REMARK   10  A    between atoms: C_22  and  S_23
REMARK   11  A    between atoms: S_23  and  C_26
REMARK                            x       y       z     vdW  Elec       q    Type
REMARK                         _______ _______ _______ _____ _____    ______ ____
ROOT
ATOM      1  O   GLN A   1     -35.991  22.284   1.631  0.00  0.00    -0.277 OA
ATOM      2  N   UNK A   2     -36.906  22.660   3.731  0.00  0.00    -0.298 N 
ATOM      3  C   GLN A   1     -36.967  22.409   2.368  0.00  0.00    +0.202 C 
ATOM      4  H   UNK A   2     -37.750  22.743   4.231  0.00  0.00    +0.150 HD
ENDROOT
BRANCH   3   5
ATOM      5  CA  GLN A   1     -38.401  22.338   1.853  0.00  0.00    +0.013 C 
BRANCH   5   6
ATOM      6  N   GLN A   1     -38.891  21.011   2.231  0.00  0.00    +0.387 N 
ATOM      7  H1  GLN A   1     -38.165  20.515   2.747  0.00  0.00    -0.089 HD
ATOM      8  H2  GLN A   1     -39.130  20.486   1.390  0.00  0.00    -0.089 HD
ATOM      9  H3  GLN A   1     -39.719  21.109   2.818  0.00  0.00    -0.089 HD
ENDBRANCH   5   6
BRANCH   5  10
ATOM     10  CB  GLN A   1     -39.300  23.413   2.485  0.00  0.00    -0.003 C 
BRANCH  10  11
ATOM     11  CG  GLN A   1     -39.147  24.788   1.831  0.00  0.00    +0.083 C 
BRANCH  11  14
ATOM     12  OE1 GLN A   1     -40.326  26.633   2.878  0.00  0.00    -0.275 OA
ATOM     13  NE2 GLN A   1     -38.207  26.119   3.603  0.00  0.00    -0.329 N 
ATOM     14  CD  GLN A   1     -39.313  25.945   2.799  0.00  0.00    +0.219 C 
ATOM     15 HE21 GLN A   1     -38.194  26.840   4.274  0.00  0.00    +0.145 HD
ATOM     16 HE22 GLN A   1     -37.429  25.523   3.506  0.00  0.00    +0.145 HD
ENDBRANCH  11  14
ENDBRANCH  10  11
ENDBRANCH   5  10
ENDBRANCH   3   5
BRANCH   2  17
ATOM     17  C   UNK A   2     -35.662  22.803   4.452  0.00  0.00    +0.182 C 
BRANCH  17  19
ATOM     18  O   UNK A   2     -35.898  22.171   6.781  0.00  0.00    -0.248 OA
ATOM     19  C   UNK A   2     -35.581  21.859   5.639  0.00  0.00    +0.333 C 
BRANCH  19  20
ATOM     20  O   UNK A   2     -35.104  20.632   5.316  0.00  0.00    -0.479 OA
ATOM     21  H   UNK A   2     -34.236  20.543   4.976  0.00  0.00    +0.295 HD
ENDBRANCH  19  20
ENDBRANCH  17  19
BRANCH  17  22
ATOM     22  C   UNK A   2     -35.394  24.258   4.847  0.00  0.00    +0.094 C 
BRANCH  22  23
ATOM     23  S   UNK A   2     -34.588  25.240   3.540  0.00  0.00    -0.099 S 
BRANCH  23  26
ATOM     24 CL   UNK A   2     -33.950  26.244   6.245  0.00  0.00    -0.075 Cl
ATOM     25 CL   UNK A   2     -32.048  28.493   4.827  0.00  0.00    -0.080 Cl
ATOM     26  C   UNK A   2     -33.749  26.389   4.530  0.00  0.00    +0.094 C 
ATOM     27  C   UNK A   2     -32.957  27.313   3.975  0.00  0.00    +0.086 C 
ENDBRANCH  23  26
ENDBRANCH  22  23
ENDBRANCH  17  22
ENDBRANCH   2  17
TORSDOF 11
ENDMDL
MODEL 3
REMARK VINA RESULT:      -5.3      1.018      1.244
REMARK  Name = 57348380
REMARK  11 active torsions:
REMARK  status: ('A' for Active; 'I' for Inactive)
REMARK    1  A    between atoms: N_2  and  C_17
REMARK    2  A    between atoms: C_3  and  CA_5
REMARK    3  A    between atoms: CA_5  and  N_6
REMARK    4  A    between atoms: CA_5  and  CB_10
REMARK    5  A    between atoms: CB_10  and  CG_11
REMARK    6  A    between atoms: CG_11  and  CD_14
REMARK    7  A    between atoms: C_17  and  C_19
REMARK    8  A    between atoms: C_17  and  C_22
REMARK    9  A    between atoms: C_19  and  O_20
REMARK   10  A    between atoms: C_22  and  S_23
REMARK   11  A    between atoms: S_23  and  C_26
REMARK                            x       y       z     vdW  Elec       q    Type
REMARK                         _______ _______ _______ _____ _____    ______ ____
ROOT
ATOM      1  O   GLN A   1     -36.344  24.634   2.813  0.00  0.00    -0.277 OA
ATOM      2  N   UNK A   2     -37.343  22.621   3.395  0.00  0.00    -0.298 N 
ATOM      3  C   GLN A   1     -36.595  23.763   3.643  0.00  0.00    +0.202 C 
ATOM      4  H   UNK A   2     -37.486  21.984   4.132  0.00  0.00    +0.150 HD
ENDROOT
BRANCH   3   5
ATOM      5  CA  GLN A   1     -36.069  23.813   5.074  0.00  0.00    +0.013 C 
BRANCH   5   6
ATOM      6  N   GLN A   1     -36.170  22.444   5.581  0.00  0.00    +0.387 N 
ATOM      7  H1  GLN A   1     -35.311  22.200   6.074  0.00  0.00    -0.089 HD
ATOM      8  H2  GLN A   1     -36.309  21.802   4.801  0.00  0.00    -0.089 HD
ATOM      9  H3  GLN A   1     -36.961  22.376   6.222  0.00  0.00    -0.089 HD
ENDBRANCH   5   6
BRANCH   5  10
ATOM     10  CB  GLN A   1     -34.605  24.276   5.141  0.00  0.00    -0.003 C 
BRANCH  10  11
ATOM     11  CG  GLN A   1     -34.449  25.720   5.623  0.00  0.00    +0.083 C 
BRANCH  11  14
ATOM     12  OE1 GLN A   1     -32.854  26.811   4.155  0.00  0.00    -0.275 OA
ATOM     13  NE2 GLN A   1     -35.075  27.378   3.993  0.00  0.00    -0.329 N 
ATOM     14  CD  GLN A   1     -34.014  26.682   4.534  0.00  0.00    +0.219 C 
ATOM     15 HE21 GLN A   1     -34.918  28.034   3.276  0.00  0.00    +0.145 HD
ATOM     16 HE22 GLN A   1     -35.988  27.219   4.326  0.00  0.00    +0.145 HD
ENDBRANCH  11  14
ENDBRANCH  10  11
ENDBRANCH   5  10
ENDBRANCH   3   5
BRANCH   2  17
ATOM     17  C   UNK A   2     -37.925  22.324   2.106  0.00  0.00    +0.182 C 
BRANCH  17  19
ATOM     18  O   UNK A   2     -40.165  23.240   2.260  0.00  0.00    -0.248 OA
ATOM     19  C   UNK A   2     -39.441  22.255   2.170  0.00  0.00    +0.333 C 
BRANCH  19  20
ATOM     20  O   UNK A   2     -39.922  20.989   2.134  0.00  0.00    -0.479 OA
ATOM     21  H   UNK A   2     -40.698  20.797   1.646  0.00  0.00    +0.295 HD
ENDBRANCH  19  20
ENDBRANCH  17  19
BRANCH  17  22
ATOM     22  C   UNK A   2     -37.312  21.070   1.476  0.00  0.00    +0.094 C 
BRANCH  22  23
ATOM     23  S   UNK A   2     -35.843  20.447   2.357  0.00  0.00    -0.099 S 
BRANCH  23  26
ATOM     24 CL   UNK A   2     -33.530  18.887   1.382  0.00  0.00    -0.075 Cl
ATOM     25 CL   UNK A   2     -34.831  19.062  -1.612  0.00  0.00    -0.080 Cl
ATOM     26  C   UNK A   2     -35.010  19.714   1.026  0.00  0.00    +0.094 C 
ATOM     27  C   UNK A   2     -35.526  19.763  -0.208  0.00  0.00    +0.086 C 
ENDBRANCH  23  26
ENDBRANCH  22  23
ENDBRANCH  17  22
ENDBRANCH   2  17
TORSDOF 11
ENDMDL
MODEL 4
REMARK VINA RESULT:      -5.1      5.075      8.081
REMARK  Name = 57348380
REMARK  11 active torsions:
REMARK  status: ('A' for Active; 'I' for Inactive)
REMARK    1  A    between atoms: N_2  and  C_17
REMARK    2  A    between atoms: C_3  and  CA_5
REMARK    3  A    between atoms: CA_5  and  N_6
REMARK    4  A    between atoms: CA_5  and  CB_10
REMARK    5  A    between atoms: CB_10  and  CG_11
REMARK    6  A    between atoms: CG_11  and  CD_14
REMARK    7  A    between atoms: C_17  and  C_19
REMARK    8  A    between atoms: C_17  and  C_22
REMARK    9  A    between atoms: C_19  and  O_20
REMARK   10  A    between atoms: C_22  and  S_23
REMARK   11  A    between atoms: S_23  and  C_26
REMARK                            x       y       z     vdW  Elec       q    Type
REMARK                         _______ _______ _______ _____ _____    ______ ____
ROOT
ATOM      1  O   GLN A   1     -33.324  25.094   4.489  0.00  0.00    -0.277 OA
ATOM      2  N   UNK A   2     -33.753  27.252   5.232  0.00  0.00    -0.298 N 
ATOM      3  C   GLN A   1     -34.057  25.911   5.043  0.00  0.00    +0.202 C 
ATOM      4  H   UNK A   2     -34.412  27.823   5.688  0.00  0.00    +0.150 HD
ENDROOT
BRANCH   3   5
ATOM      5  CA  GLN A   1     -35.442  25.550   5.571  0.00  0.00    +0.013 C 
BRANCH   5   6
ATOM      6  N   GLN A   1     -36.318  26.653   5.169  0.00  0.00    +0.387 N 
ATOM      7  H1  GLN A   1     -36.368  26.693   4.152  0.00  0.00    -0.089 HD
ATOM      8  H2  GLN A   1     -35.943  27.531   5.527  0.00  0.00    -0.089 HD
ATOM      9  H3  GLN A   1     -37.251  26.501   5.550  0.00  0.00    -0.089 HD
ENDBRANCH   5   6
BRANCH   5  10
ATOM     10  CB  GLN A   1     -35.969  24.236   4.972  0.00  0.00    -0.003 C 
BRANCH  10  11
ATOM     11  CG  GLN A   1     -35.579  23.001   5.788  0.00  0.00    +0.083 C 
BRANCH  11  14
ATOM     12  OE1 GLN A   1     -34.950  20.698   5.351  0.00  0.00    -0.275 OA
ATOM     13  NE2 GLN A   1     -36.115  21.853   3.741  0.00  0.00    -0.329 N 
ATOM     14  CD  GLN A   1     -35.491  21.730   4.965  0.00  0.00    +0.219 C 
ATOM     15 HE21 GLN A   1     -36.125  21.093   3.116  0.00  0.00    +0.145 HD
ATOM     16 HE22 GLN A   1     -36.549  22.701   3.493  0.00  0.00    +0.145 HD
ENDBRANCH  11  14
ENDBRANCH  10  11
ENDBRANCH   5  10
ENDBRANCH   3   5
BRANCH   2  17
ATOM     17  C   UNK A   2     -32.513  27.848   4.790  0.00  0.00    +0.182 C 
BRANCH  17  19
ATOM     18  O   UNK A   2     -32.288  29.994   5.895  0.00  0.00    -0.248 OA
ATOM     19  C   UNK A   2     -31.953  28.818   5.816  0.00  0.00    +0.333 C 
BRANCH  19  20
ATOM     20  O   UNK A   2     -31.026  28.260   6.632  0.00  0.00    -0.479 OA
ATOM     21  H   UNK A   2     -31.213  27.452   7.068  0.00  0.00    +0.295 HD
ENDBRANCH  19  20
ENDBRANCH  17  19
BRANCH  17  22
ATOM     22  C   UNK A   2     -32.644  28.481   3.402  0.00  0.00    +0.094 C 
BRANCH  22  23
ATOM     23  S   UNK A   2     -34.368  28.722   2.863  0.00  0.00    -0.099 S 
BRANCH  23  26
ATOM     24 CL   UNK A   2     -35.914  31.228   2.619  0.00  0.00    -0.075 Cl
ATOM     25 CL   UNK A   2     -33.066  32.833   2.545  0.00  0.00    -0.080 Cl
ATOM     26  C   UNK A   2     -34.370  30.447   2.698  0.00  0.00    +0.094 C 
ATOM     27  C   UNK A   2     -33.218  31.128   2.675  0.00  0.00    +0.086 C 
ENDBRANCH  23  26
ENDBRANCH  22  23
ENDBRANCH  17  22
ENDBRANCH   2  17
TORSDOF 11
ENDMDL
MODEL 5
REMARK VINA RESULT:      -5.1      1.441      1.761
REMARK  Name = 57348380
REMARK  11 active torsions:
REMARK  status: ('A' for Active; 'I' for Inactive)
REMARK    1  A    between atoms: N_2  and  C_17
REMARK    2  A    between atoms: C_3  and  CA_5
REMARK    3  A    between atoms: CA_5  and  N_6
REMARK    4  A    between atoms: CA_5  and  CB_10
REMARK    5  A    between atoms: CB_10  and  CG_11
REMARK    6  A    between atoms: CG_11  and  CD_14
REMARK    7  A    between atoms: C_17  and  C_19
REMARK    8  A    between atoms: C_17  and  C_22
REMARK    9  A    between atoms: C_19  and  O_20
REMARK   10  A    between atoms: C_22  and  S_23
REMARK   11  A    between atoms: S_23  and  C_26
REMARK                            x       y       z     vdW  Elec       q    Type
REMARK                         _______ _______ _______ _____ _____    ______ ____
ROOT
ATOM      1  O   GLN A   1     -36.816  24.343   2.829  0.00  0.00    -0.277 OA
ATOM      2  N   UNK A   2     -37.347  22.085   2.928  0.00  0.00    -0.298 N 
ATOM      3  C   GLN A   1     -36.745  23.249   3.385  0.00  0.00    +0.202 C 
ATOM      4  H   UNK A   2     -37.228  21.259   3.449  0.00  0.00    +0.150 HD
ENDROOT
BRANCH   3   5
ATOM      5  CA  GLN A   1     -35.937  23.023   4.659  0.00  0.00    +0.013 C 
BRANCH   5   6
ATOM      6  N   GLN A   1     -35.596  21.599   4.663  0.00  0.00    +0.387 N 
ATOM      7  H1  GLN A   1     -34.896  21.420   5.383  0.00  0.00    -0.089 HD
ATOM      8  H2  GLN A   1     -35.222  21.337   3.751  0.00  0.00    -0.089 HD
ATOM      9  H3  GLN A   1     -36.433  21.050   4.859  0.00  0.00    -0.089 HD
ENDBRANCH   5   6
BRANCH   5  10
ATOM     10  CB  GLN A   1     -34.647  23.857   4.686  0.00  0.00    -0.003 C 
BRANCH  10  11
ATOM     11  CG  GLN A   1     -34.703  25.024   5.675  0.00  0.00    +0.083 C 
BRANCH  11  14
ATOM     12  OE1 GLN A   1     -34.415  27.120   4.486  0.00  0.00    -0.275 OA
ATOM     13  NE2 GLN A   1     -36.525  26.513   5.165  0.00  0.00    -0.329 N 
ATOM     14  CD  GLN A   1     -35.163  26.328   5.051  0.00  0.00    +0.219 C 
ATOM     15 HE21 GLN A   1     -36.944  27.325   4.798  0.00  0.00    +0.145 HD
ATOM     16 HE22 GLN A   1     -37.078  25.833   5.614  0.00  0.00    +0.145 HD
ENDBRANCH  11  14
ENDBRANCH  10  11
ENDBRANCH   5  10
ENDBRANCH   3   5
BRANCH   2  17
ATOM     17  C   UNK A   2     -38.141  22.030   1.721  0.00  0.00    +0.182 C 
BRANCH  17  19
ATOM     18  O   UNK A   2     -40.234  23.189   2.112  0.00  0.00    -0.248 OA
ATOM     19  C   UNK A   2     -39.628  22.129   2.016  0.00  0.00    +0.333 C 
BRANCH  19  20
ATOM     20  O   UNK A   2     -40.223  20.923   2.180  0.00  0.00    -0.479 OA
ATOM     21  H   UNK A   2     -40.753  20.566   1.495  0.00  0.00    +0.295 HD
ENDBRANCH  19  20
ENDBRANCH  17  19
BRANCH  17  22
ATOM     22  C   UNK A   2     -37.798  20.808   0.865  0.00  0.00    +0.094 C 
BRANCH  22  23
ATOM     23  S   UNK A   2     -36.794  21.199  -0.606  0.00  0.00    -0.099 S 
BRANCH  23  26
ATOM     24 CL   UNK A   2     -34.510  20.860   1.238  0.00  0.00    -0.075 Cl
ATOM     25 CL   UNK A   2     -33.696  23.962   0.604  0.00  0.00    -0.080 Cl
ATOM     26  C   UNK A   2     -35.411  21.891   0.177  0.00  0.00    +0.094 C 
ATOM     27  C   UNK A   2     -35.051  23.155  -0.073  0.00  0.00    +0.086 C 
ENDBRANCH  23  26
ENDBRANCH  22  23
ENDBRANCH  17  22
ENDBRANCH   2  17
TORSDOF 11
ENDMDL
MODEL 6
REMARK VINA RESULT:      -5.1      2.215      3.214
REMARK  Name = 57348380
REMARK  11 active torsions:
REMARK  status: ('A' for Active; 'I' for Inactive)
REMARK    1  A    between atoms: N_2  and  C_17
REMARK    2  A    between atoms: C_3  and  CA_5
REMARK    3  A    between atoms: CA_5  and  N_6
REMARK    4  A    between atoms: CA_5  and  CB_10
REMARK    5  A    between atoms: CB_10  and  CG_11
REMARK    6  A    between atoms: CG_11  and  CD_14
REMARK    7  A    between atoms: C_17  and  C_19
REMARK    8  A    between atoms: C_17  and  C_22
REMARK    9  A    between atoms: C_19  and  O_20
REMARK   10  A    between atoms: C_22  and  S_23
REMARK   11  A    between atoms: S_23  and  C_26
REMARK                            x       y       z     vdW  Elec       q    Type
REMARK                         _______ _______ _______ _____ _____    ______ ____
ROOT
ATOM      1  O   GLN A   1     -37.948  24.135   3.662  0.00  0.00    -0.277 OA
ATOM      2  N   UNK A   2     -35.881  23.268   3.057  0.00  0.00    -0.298 N 
ATOM      3  C   GLN A   1     -36.858  24.253   3.106  0.00  0.00    +0.202 C 
ATOM      4  H   UNK A   2     -35.040  23.465   2.584  0.00  0.00    +0.150 HD
ENDROOT
BRANCH   3   5
ATOM      5  CA  GLN A   1     -36.450  25.514   2.352  0.00  0.00    +0.013 C 
BRANCH   5   6
ATOM      6  N   GLN A   1     -37.221  26.602   2.955  0.00  0.00    +0.387 N 
ATOM      7  H1  GLN A   1     -36.925  27.492   2.553  0.00  0.00    -0.089 HD
ATOM      8  H2  GLN A   1     -37.059  26.614   3.962  0.00  0.00    -0.089 HD
ATOM      9  H3  GLN A   1     -38.213  26.458   2.771  0.00  0.00    -0.089 HD
ENDBRANCH   5   6
BRANCH   5  10
ATOM     10  CB  GLN A   1     -34.948  25.815   2.489  0.00  0.00    -0.003 C 
BRANCH  10  11
ATOM     11  CG  GLN A   1     -34.613  26.667   3.715  0.00  0.00    +0.083 C 
BRANCH  11  14
ATOM     12  OE1 GLN A   1     -33.584  24.725   4.743  0.00  0.00    -0.275 OA
ATOM     13  NE2 GLN A   1     -33.881  26.620   6.008  0.00  0.00    -0.329 N 
ATOM     14  CD  GLN A   1     -33.983  25.880   4.849  0.00  0.00    +0.219 C 
ATOM     15 HE21 GLN A   1     -33.488  26.217   6.816  0.00  0.00    +0.145 HD
ATOM     16 HE22 GLN A   1     -34.202  27.551   6.028  0.00  0.00    +0.145 HD
ENDBRANCH  11  14
ENDBRANCH  10  11
ENDBRANCH   5  10
ENDBRANCH   3   5
BRANCH   2  17
ATOM     17  C   UNK A   2     -36.040  21.969   3.668  0.00  0.00    +0.182 C 
BRANCH  17  19
ATOM     18  O   UNK A   2     -34.941  21.026   5.613  0.00  0.00    -0.248 OA
ATOM     19  C   UNK A   2     -35.558  21.957   5.109  0.00  0.00    +0.333 C 
BRANCH  19  20
ATOM     20  O   UNK A   2     -35.893  23.075   5.796  0.00  0.00    -0.479 OA
ATOM     21  H   UNK A   2     -35.669  23.153   6.702  0.00  0.00    +0.295 HD
ENDBRANCH  19  20
ENDBRANCH  17  19
BRANCH  17  22
ATOM     22  C   UNK A   2     -35.398  20.859   2.831  0.00  0.00    +0.094 C 
BRANCH  22  23
ATOM     23  S   UNK A   2     -34.936  21.382   1.147  0.00  0.00    -0.099 S 
BRANCH  23  26
ATOM     24 CL   UNK A   2     -32.288  20.904  -0.074  0.00  0.00    -0.075 Cl
ATOM     25 CL   UNK A   2     -32.349  17.919   1.258  0.00  0.00    -0.080 Cl
ATOM     26  C   UNK A   2     -33.607  20.303   0.875  0.00  0.00    +0.094 C 
ATOM     27  C   UNK A   2     -33.603  19.080   1.417  0.00  0.00    +0.086 C 
ENDBRANCH  23  26
ENDBRANCH  22  23
ENDBRANCH  17  22
ENDBRANCH   2  17
TORSDOF 11
ENDMDL
MODEL 7
REMARK VINA RESULT:      -5.1      4.682      7.969
REMARK  Name = 57348380
REMARK  11 active torsions:
REMARK  status: ('A' for Active; 'I' for Inactive)
REMARK    1  A    between atoms: N_2  and  C_17
REMARK    2  A    between atoms: C_3  and  CA_5
REMARK    3  A    between atoms: CA_5  and  N_6
REMARK    4  A    between atoms: CA_5  and  CB_10
REMARK    5  A    between atoms: CB_10  and  CG_11
REMARK    6  A    between atoms: CG_11  and  CD_14
REMARK    7  A    between atoms: C_17  and  C_19
REMARK    8  A    between atoms: C_17  and  C_22
REMARK    9  A    between atoms: C_19  and  O_20
REMARK   10  A    between atoms: C_22  and  S_23
REMARK   11  A    between atoms: S_23  and  C_26
REMARK                            x       y       z     vdW  Elec       q    Type
REMARK                         _______ _______ _______ _____ _____    ______ ____
ROOT
ATOM      1  O   GLN A   1     -32.962  25.916   3.863  0.00  0.00    -0.277 OA
ATOM      2  N   UNK A   2     -33.204  27.602   5.441  0.00  0.00    -0.298 N 
ATOM      3  C   GLN A   1     -33.583  26.439   4.786  0.00  0.00    +0.202 C 
ATOM      4  H   UNK A   2     -33.774  27.937   6.170  0.00  0.00    +0.150 HD
ENDROOT
BRANCH   3   5
ATOM      5  CA  GLN A   1     -34.900  25.878   5.314  0.00  0.00    +0.013 C 
BRANCH   5   6
ATOM      6  N   GLN A   1     -35.921  26.865   4.958  0.00  0.00    +0.387 N 
ATOM      7  H1  GLN A   1     -36.790  26.385   4.726  0.00  0.00    -0.089 HD
ATOM      8  H2  GLN A   1     -35.604  27.405   4.153  0.00  0.00    -0.089 HD
ATOM      9  H3  GLN A   1     -36.078  27.491   5.748  0.00  0.00    -0.089 HD
ENDBRANCH   5   6
BRANCH   5  10
ATOM     10  CB  GLN A   1     -35.254  24.525   4.677  0.00  0.00    -0.003 C 
BRANCH  10  11
ATOM     11  CG  GLN A   1     -35.059  23.341   5.628  0.00  0.00    +0.083 C 
BRANCH  11  14
ATOM     12  OE1 GLN A   1     -35.033  20.927   5.377  0.00  0.00    -0.275 OA
ATOM     13  NE2 GLN A   1     -36.504  22.156   4.110  0.00  0.00    -0.329 N 
ATOM     14  CD  GLN A   1     -35.499  22.012   5.043  0.00  0.00    +0.219 C 
ATOM     15 HE21 GLN A   1     -36.874  21.363   3.658  0.00  0.00    +0.145 HD
ATOM     16 HE22 GLN A   1     -36.851  23.052   3.895  0.00  0.00    +0.145 HD
ENDBRANCH  11  14
ENDBRANCH  10  11
ENDBRANCH   5  10
ENDBRANCH   3   5
BRANCH   2  17
ATOM     17  C   UNK A   2     -32.010  28.342   5.103  0.00  0.00    +0.182 C 
BRANCH  17  19
ATOM     18  O   UNK A   2     -29.963  27.779   6.276  0.00  0.00    -0.248 OA
ATOM     19  C   UNK A   2     -31.025  28.390   6.260  0.00  0.00    +0.333 C 
BRANCH  19  20
ATOM     20  O   UNK A   2     -31.444  29.166   7.288  0.00  0.00    -0.479 OA
ATOM     21  H   UNK A   2     -31.689  30.057   7.132  0.00  0.00    +0.295 HD
ENDBRANCH  19  20
ENDBRANCH  17  19
BRANCH  17  22
ATOM     22  C   UNK A   2     -32.335  29.736   4.559  0.00  0.00    +0.094 C 
BRANCH  22  23
ATOM     23  S   UNK A   2     -32.462  29.805   2.742  0.00  0.00    -0.099 S 
BRANCH  23  26
ATOM     24 CL   UNK A   2     -35.183  30.849   3.228  0.00  0.00    -0.075 Cl
ATOM     25 CL   UNK A   2     -36.339  28.220   1.666  0.00  0.00    -0.080 Cl
ATOM     26  C   UNK A   2     -34.175  29.601   2.575  0.00  0.00    +0.094 C 
ATOM     27  C   UNK A   2     -34.673  28.539   1.931  0.00  0.00    +0.086 C 
ENDBRANCH  23  26
ENDBRANCH  22  23
ENDBRANCH  17  22
ENDBRANCH   2  17
TORSDOF 11
ENDMDL
MODEL 8
REMARK VINA RESULT:      -5.0      2.153      2.514
REMARK  Name = 57348380
REMARK  11 active torsions:
REMARK  status: ('A' for Active; 'I' for Inactive)
REMARK    1  A    between atoms: N_2  and  C_17
REMARK    2  A    between atoms: C_3  and  CA_5
REMARK    3  A    between atoms: CA_5  and  N_6
REMARK    4  A    between atoms: CA_5  and  CB_10
REMARK    5  A    between atoms: CB_10  and  CG_11
REMARK    6  A    between atoms: CG_11  and  CD_14
REMARK    7  A    between atoms: C_17  and  C_19
REMARK    8  A    between atoms: C_17  and  C_22
REMARK    9  A    between atoms: C_19  and  O_20
REMARK   10  A    between atoms: C_22  and  S_23
REMARK   11  A    between atoms: S_23  and  C_26
REMARK                            x       y       z     vdW  Elec       q    Type
REMARK                         _______ _______ _______ _____ _____    ______ ____
ROOT
ATOM      1  O   GLN A   1     -37.307  23.195   3.635  0.00  0.00    -0.277 OA
ATOM      2  N   UNK A   2     -35.510  21.826   3.100  0.00  0.00    -0.298 N 
ATOM      3  C   GLN A   1     -36.268  22.620   3.950  0.00  0.00    +0.202 C 
ATOM      4  H   UNK A   2     -34.691  21.410   3.452  0.00  0.00    +0.150 HD
ENDROOT
BRANCH   3   5
ATOM      5  CA  GLN A   1     -35.648  22.740   5.338  0.00  0.00    +0.013 C 
BRANCH   5   6
ATOM      6  N   GLN A   1     -35.177  21.396   5.679  0.00  0.00    +0.387 N 
ATOM      7  H1  GLN A   1     -35.930  20.725   5.530  0.00  0.00    -0.089 HD
ATOM      8  H2  GLN A   1     -34.890  21.375   6.657  0.00  0.00    -0.089 HD
ATOM      9  H3  GLN A   1     -34.383  21.154   5.086  0.00  0.00    -0.089 HD
ENDBRANCH   5   6
BRANCH   5  10
ATOM     10  CB  GLN A   1     -34.462  23.718   5.364  0.00  0.00    -0.003 C 
BRANCH  10  11
ATOM     11  CG  GLN A   1     -34.846  25.119   5.846  0.00  0.00    +0.083 C 
BRANCH  11  14
ATOM     12  OE1 GLN A   1     -34.824  26.494   3.846  0.00  0.00    -0.275 OA
ATOM     13  NE2 GLN A   1     -36.826  26.122   4.913  0.00  0.00    -0.329 N 
ATOM     14  CD  GLN A   1     -35.461  25.988   4.765  0.00  0.00    +0.219 C 
ATOM     15 HE21 GLN A   1     -37.339  26.664   4.271  0.00  0.00    +0.145 HD
ATOM     16 HE22 GLN A   1     -37.286  25.677   5.660  0.00  0.00    +0.145 HD
ENDBRANCH  11  14
ENDBRANCH  10  11
ENDBRANCH   5  10
ENDBRANCH   3   5
BRANCH   2  17
ATOM     17  C   UNK A   2     -35.869  21.583   1.721  0.00  0.00    +0.182 C 
BRANCH  17  19
ATOM     18  O   UNK A   2     -37.743  20.457   0.673  0.00  0.00    -0.248 OA
ATOM     19  C   UNK A   2     -36.936  20.509   1.594  0.00  0.00    +0.333 C 
BRANCH  19  20
ATOM     20  O   UNK A   2     -36.923  19.617   2.613  0.00  0.00    -0.479 OA
ATOM     21  H   UNK A   2     -37.688  19.500   3.142  0.00  0.00    +0.295 HD
ENDBRANCH  19  20
ENDBRANCH  17  19
BRANCH  17  22
ATOM     22  C   UNK A   2     -34.642  21.288   0.854  0.00  0.00    +0.094 C 
BRANCH  22  23
ATOM     23  S   UNK A   2     -33.906  19.647   1.153  0.00  0.00    -0.099 S 
BRANCH  23  26
ATOM     24 CL   UNK A   2     -31.177  18.642   0.627  0.00  0.00    -0.075 Cl
ATOM     25 CL   UNK A   2     -30.609  21.410  -1.018  0.00  0.00    -0.080 Cl
ATOM     26  C   UNK A   2     -32.346  19.908   0.444  0.00  0.00    +0.094 C 
ATOM     27  C   UNK A   2     -32.091  21.028  -0.242  0.00  0.00    +0.086 C 
ENDBRANCH  23  26
ENDBRANCH  22  23
ENDBRANCH  17  22
ENDBRANCH   2  17
TORSDOF 11
ENDMDL
MODEL 9
REMARK VINA RESULT:      -5.0      2.602      4.112
REMARK  Name = 57348380
REMARK  11 active torsions:
REMARK  status: ('A' for Active; 'I' for Inactive)
REMARK    1  A    between atoms: N_2  and  C_17
REMARK    2  A    between atoms: C_3  and  CA_5
REMARK    3  A    between atoms: CA_5  and  N_6
REMARK    4  A    between atoms: CA_5  and  CB_10
REMARK    5  A    between atoms: CB_10  and  CG_11
REMARK    6  A    between atoms: CG_11  and  CD_14
REMARK    7  A    between atoms: C_17  and  C_19
REMARK    8  A    between atoms: C_17  and  C_22
REMARK    9  A    between atoms: C_19  and  O_20
REMARK   10  A    between atoms: C_22  and  S_23
REMARK   11  A    between atoms: S_23  and  C_26
REMARK                            x       y       z     vdW  Elec       q    Type
REMARK                         _______ _______ _______ _____ _____    ______ ____
ROOT
ATOM      1  O   GLN A   1     -35.082  27.909   3.512  0.00  0.00    -0.277 OA
ATOM      2  N   UNK A   2     -36.094  25.828   3.319  0.00  0.00    -0.298 N 
ATOM      3  C   GLN A   1     -35.140  26.715   3.799  0.00  0.00    +0.202 C 
ATOM      4  H   UNK A   2     -36.051  24.889   3.612  0.00  0.00    +0.150 HD
ENDROOT
BRANCH   3   5
ATOM      5  CA  GLN A   1     -34.123  26.037   4.712  0.00  0.00    +0.013 C 
BRANCH   5   6
ATOM      6  N   GLN A   1     -33.472  27.120   5.451  0.00  0.00    +0.387 N 
ATOM      7  H1  GLN A   1     -32.694  26.741   5.991  0.00  0.00    -0.089 HD
ATOM      8  H2  GLN A   1     -34.145  27.554   6.081  0.00  0.00    -0.089 HD
ATOM      9  H3  GLN A   1     -33.122  27.817   4.794  0.00  0.00    -0.089 HD
ENDBRANCH   5   6
BRANCH   5  10
ATOM     10  CB  GLN A   1     -34.787  25.069   5.705  0.00  0.00    -0.003 C 
BRANCH  10  11
ATOM     11  CG  GLN A   1     -34.459  23.600   5.426  0.00  0.00    +0.083 C 
BRANCH  11  14
ATOM     12  OE1 GLN A   1     -36.684  23.057   4.623  0.00  0.00    -0.275 OA
ATOM     13  NE2 GLN A   1     -35.544  21.496   5.866  0.00  0.00    -0.329 N 
ATOM     14  CD  GLN A   1     -35.686  22.724   5.255  0.00  0.00    +0.219 C 
ATOM     15 HE21 GLN A   1     -36.276  20.839   5.825  0.00  0.00    +0.145 HD
ATOM     16 HE22 GLN A   1     -34.712  21.278   6.344  0.00  0.00    +0.145 HD
ENDBRANCH  11  14
ENDBRANCH  10  11
ENDBRANCH   5  10
ENDBRANCH   3   5
BRANCH   2  17
ATOM     17  C   UNK A   2     -37.147  26.220   2.411  0.00  0.00    +0.182 C 
BRANCH  17  19
ATOM     18  O   UNK A   2     -39.550  26.497   2.588  0.00  0.00    -0.248 OA
ATOM     19  C   UNK A   2     -38.526  25.962   2.996  0.00  0.00    +0.333 C 
BRANCH  19  20
ATOM     20  O   UNK A   2     -38.514  25.091   4.034  0.00  0.00    -0.479 OA
ATOM     21  H   UNK A   2     -38.377  24.178   3.876  0.00  0.00    +0.295 HD
ENDBRANCH  19  20
ENDBRANCH  17  19
BRANCH  17  22
ATOM     22  C   UNK A   2     -36.976  25.586   1.028  0.00  0.00    +0.094 C 
BRANCH  22  23
ATOM     23  S   UNK A   2     -35.465  24.580   0.861  0.00  0.00    -0.099 S 
BRANCH  23  26
ATOM     24 CL   UNK A   2     -35.020  21.813   1.798  0.00  0.00    -0.075 Cl
ATOM     25 CL   UNK A   2     -38.236  21.319   1.478  0.00  0.00    -0.080 Cl
ATOM     26  C   UNK A   2     -36.125  23.021   1.234  0.00  0.00    +0.094 C 
ATOM     27  C   UNK A   2     -37.439  22.796   1.120  0.00  0.00    +0.086 C 
ENDBRANCH  23  26
ENDBRANCH  22  23
ENDBRANCH  17  22
ENDBRANCH   2  17
TORSDOF 11
ENDMDL
