MODEL 1
REMARK VINA RESULT:      -6.1      0.000      0.000
REMARK  Name = 194342
REMARK  8 active torsions:
REMARK  status: ('A' for Active; 'I' for Inactive)
REMARK    1  A    between atoms: C_7  and  C_18
REMARK    2  A    between atoms: C_18  and  C_19
REMARK    3  A    between atoms: C_19  and  O_20
REMARK    4  A    between atoms: C_19  and  C_22
REMARK    5  A    between atoms: C_22  and  N_24
REMARK    6  A    between atoms: C_22  and  C_30
REMARK    7  A    between atoms: C_25  and  O_27
REMARK    8  A    between atoms: C_30  and  O_31
REMARK                            x       y       z     vdW  Elec       q    Type
REMARK                         _______ _______ _______ _____ _____    ______ ____
ROOT
ATOM      1  O   UNL     1     -33.051  26.567   6.392  0.00  0.00    -0.268 OA
ATOM      2  N   UNL     1     -33.487  27.642   4.437  0.00  0.00    -0.212 N 
ATOM      3  N   UNL     1     -32.163  29.506   3.728  0.00  0.00    -0.236 N 
ATOM      4  N   UNL     1     -34.059  28.563   2.484  0.00  0.00    -0.380 NA
ATOM      5  N   UNL     1     -30.712  28.535   6.741  0.00  0.00    -0.311 N 
ATOM      6  N   UNL     1     -30.298  30.116   5.211  0.00  0.00    -0.304 N 
ATOM      7  C   UNL     1     -34.564  26.931   3.979  0.00  0.00    +0.134 C 
ATOM      8  C   UNL     1     -33.211  28.638   3.493  0.00  0.00    +0.252 C 
ATOM      9  C   UNL     1     -34.894  27.514   2.780  0.00  0.00    +0.109 C 
ATOM     10  C   UNL     1     -32.742  27.461   5.617  0.00  0.00    +0.271 C 
ATOM     11  C   UNL     1     -31.657  28.387   5.773  0.00  0.00    +0.128 C 
ATOM     12  C   UNL     1     -31.385  29.373   4.845  0.00  0.00    +0.122 C 
ATOM     13  C   UNL     1     -35.977  27.146   1.853  0.00  0.00    +0.063 C 
ATOM     14  C   UNL     1     -31.839  30.506   2.724  0.00  0.00    +0.122 C 
ATOM     15  C   UNL     1     -29.916  29.587   6.358  0.00  0.00    +0.183 C 
ATOM     16  H   UNL     1     -30.616  27.993   7.557  0.00  0.00    +0.149 HD
ATOM     17  H   UNL     1     -29.893  30.873   4.729  0.00  0.00    +0.150 HD
ENDROOT
BRANCH   7  18
ATOM     18  C   UNL     1     -35.174  25.790   4.688  0.00  0.00    +0.059 C 
BRANCH  18  19
ATOM     19  C   UNL     1     -34.662  24.415   4.184  0.00  0.00    +0.141 C 
BRANCH  19  20
ATOM     20  O   UNL     1     -33.678  23.943   5.105  0.00  0.00    -0.382 OA
ATOM     21  H   UNL     1     -32.975  23.483   4.621  0.00  0.00    +0.210 HD
ENDBRANCH  19  20
BRANCH  19  22
ATOM     22  C   UNL     1     -35.774  23.369   4.028  0.00  0.00    +0.201 C 
BRANCH  22  24
ATOM     23  O   UNL     1     -37.813  23.833   2.012  0.00  0.00    -0.226 OA
ATOM     24  N   UNL     1     -37.080  23.958   4.210  0.00  0.00    -0.260 N 
ATOM     25  C   UNL     1     -37.989  24.139   3.187  0.00  0.00    +0.402 C 
ATOM     26  H   UNL     1     -37.337  24.246   5.115  0.00  0.00    +0.153 HD
BRANCH  25  27
ATOM     27  O   UNL     1     -39.125  24.717   3.676  0.00  0.00    -0.431 OA
ATOM     28  C   UNL     1     -39.755  25.678   2.821  0.00  0.00    +0.257 C 
ENDBRANCH  25  27
ENDBRANCH  22  24
BRANCH  22  30
ATOM     29  O   UNL     1     -35.971  22.320   6.216  0.00  0.00    -0.248 OA
ATOM     30  C   UNL     1     -35.672  22.235   5.032  0.00  0.00    +0.338 C 
BRANCH  30  31
ATOM     31  O   UNL     1     -35.164  21.127   4.414  0.00  0.00    -0.443 OA
ATOM     32  C   UNL     1     -35.497  20.987   3.029  0.00  0.00    +0.256 C 
ENDBRANCH  30  31
ENDBRANCH  22  30
ENDBRANCH  19  22
ENDBRANCH  18  19
ENDBRANCH   7  18
TORSDOF 8
ENDMDL
MODEL 2
REMARK VINA RESULT:      -5.8      3.014      5.348
REMARK  Name = 194342
REMARK  8 active torsions:
REMARK  status: ('A' for Active; 'I' for Inactive)
REMARK    1  A    between atoms: C_7  and  C_18
REMARK    2  A    between atoms: C_18  and  C_19
REMARK    3  A    between atoms: C_19  and  O_20
REMARK    4  A    between atoms: C_19  and  C_22
REMARK    5  A    between atoms: C_22  and  N_24
REMARK    6  A    between atoms: C_22  and  C_30
REMARK    7  A    between atoms: C_25  and  O_27
REMARK    8  A    between atoms: C_30  and  O_31
REMARK                            x       y       z     vdW  Elec       q    Type
REMARK                         _______ _______ _______ _____ _____    ______ ____
ROOT
ATOM      1  O   UNL     1     -36.771  24.604   1.717  0.00  0.00    -0.268 OA
ATOM      2  N   UNL     1     -35.661  24.306   3.679  0.00  0.00    -0.212 N 
ATOM      3  N   UNL     1     -34.495  26.115   4.726  0.00  0.00    -0.236 N 
ATOM      4  N   UNL     1     -34.638  23.827   5.606  0.00  0.00    -0.380 NA
ATOM      5  N   UNL     1     -35.887  27.546   1.873  0.00  0.00    -0.311 N 
ATOM      6  N   UNL     1     -34.639  28.286   3.578  0.00  0.00    -0.304 N 
ATOM      7  C   UNL     1     -35.897  22.979   3.917  0.00  0.00    +0.134 C 
ATOM      8  C   UNL     1     -34.881  24.790   4.736  0.00  0.00    +0.252 C 
ATOM      9  C   UNL     1     -35.261  22.710   5.105  0.00  0.00    +0.109 C 
ATOM     10  C   UNL     1     -36.094  25.105   2.603  0.00  0.00    +0.271 C 
ATOM     11  C   UNL     1     -35.671  26.474   2.683  0.00  0.00    +0.128 C 
ATOM     12  C   UNL     1     -34.899  26.952   3.721  0.00  0.00    +0.122 C 
ATOM     13  C   UNL     1     -35.191  21.435   5.835  0.00  0.00    +0.063 C 
ATOM     14  C   UNL     1     -33.732  26.633   5.850  0.00  0.00    +0.122 C 
ATOM     15  C   UNL     1     -35.247  28.614   2.454  0.00  0.00    +0.183 C 
ATOM     16  H   UNL     1     -36.402  27.556   1.034  0.00  0.00    +0.149 HD
ATOM     17  H   UNL     1     -34.118  28.869   4.176  0.00  0.00    +0.150 HD
ENDROOT
BRANCH   7  18
ATOM     18  C   UNL     1     -36.683  22.098   3.032  0.00  0.00    +0.059 C 
BRANCH  18  19
ATOM     19  C   UNL     1     -35.889  20.856   2.549  0.00  0.00    +0.141 C 
BRANCH  19  20
ATOM     20  O   UNL     1     -36.751  19.719   2.626  0.00  0.00    -0.382 OA
ATOM     21  H   UNL     1     -36.788  19.281   1.762  0.00  0.00    +0.210 HD
ENDBRANCH  19  20
BRANCH  19  22
ATOM     22  C   UNL     1     -35.342  20.997   1.122  0.00  0.00    +0.201 C 
BRANCH  22  24
ATOM     23  O   UNL     1     -37.235  22.292  -0.661  0.00  0.00    -0.226 OA
ATOM     24  N   UNL     1     -36.219  20.374   0.158  0.00  0.00    -0.260 N 
ATOM     25  C   UNL     1     -37.090  21.074  -0.652  0.00  0.00    +0.402 C 
ATOM     26  H   UNL     1     -36.193  19.394   0.074  0.00  0.00    +0.153 HD
BRANCH  25  27
ATOM     27  O   UNL     1     -37.778  20.205  -1.450  0.00  0.00    -0.431 OA
ATOM     28  C   UNL     1     -38.218  18.996  -0.822  0.00  0.00    +0.257 C 
ENDBRANCH  25  27
ENDBRANCH  22  24
BRANCH  22  30
ATOM     29  O   UNL     1     -33.077  20.814   0.248  0.00  0.00    -0.248 OA
ATOM     30  C   UNL     1     -33.979  20.356   0.938  0.00  0.00    +0.338 C 
BRANCH  30  31
ATOM     31  O   UNL     1     -33.935  19.179   1.629  0.00  0.00    -0.443 OA
ATOM     32  C   UNL     1     -32.780  18.366   1.392  0.00  0.00    +0.256 C 
ENDBRANCH  30  31
ENDBRANCH  22  30
ENDBRANCH  19  22
ENDBRANCH  18  19
ENDBRANCH   7  18
TORSDOF 8
ENDMDL
MODEL 3
REMARK VINA RESULT:      -5.7      4.114      7.068
REMARK  Name = 194342
REMARK  8 active torsions:
REMARK  status: ('A' for Active; 'I' for Inactive)
REMARK    1  A    between atoms: C_7  and  C_18
REMARK    2  A    between atoms: C_18  and  C_19
REMARK    3  A    between atoms: C_19  and  O_20
REMARK    4  A    between atoms: C_19  and  C_22
REMARK    5  A    between atoms: C_22  and  N_24
REMARK    6  A    between atoms: C_22  and  C_30
REMARK    7  A    between atoms: C_25  and  O_27
REMARK    8  A    between atoms: C_30  and  O_31
REMARK                            x       y       z     vdW  Elec       q    Type
REMARK                         _______ _______ _______ _____ _____    ______ ____
ROOT
ATOM      1  O   UNL     1     -35.297  21.810   4.109  0.00  0.00    -0.268 OA
ATOM      2  N   UNL     1     -37.074  22.508   2.875  0.00  0.00    -0.212 N 
ATOM      3  N   UNL     1     -38.010  24.690   3.179  0.00  0.00    -0.236 N 
ATOM      4  N   UNL     1     -38.810  23.020   1.566  0.00  0.00    -0.380 NA
ATOM      5  N   UNL     1     -35.357  24.586   5.433  0.00  0.00    -0.311 N 
ATOM      6  N   UNL     1     -36.888  26.110   4.845  0.00  0.00    -0.304 N 
ATOM      7  C   UNL     1     -37.304  21.406   2.096  0.00  0.00    +0.134 C 
ATOM      8  C   UNL     1     -38.023  23.475   2.523  0.00  0.00    +0.252 C 
ATOM      9  C   UNL     1     -38.372  21.746   1.301  0.00  0.00    +0.109 C 
ATOM     10  C   UNL     1     -36.087  22.708   3.859  0.00  0.00    +0.271 C 
ATOM     11  C   UNL     1     -36.128  24.005   4.474  0.00  0.00    +0.128 C 
ATOM     12  C   UNL     1     -37.064  24.958   4.131  0.00  0.00    +0.122 C 
ATOM     13  C   UNL     1     -39.037  20.935   0.269  0.00  0.00    +0.063 C 
ATOM     14  C   UNL     1     -38.958  25.716   2.777  0.00  0.00    +0.122 C 
ATOM     15  C   UNL     1     -35.853  25.854   5.621  0.00  0.00    +0.183 C 
ATOM     16  H   UNL     1     -34.592  24.179   5.900  0.00  0.00    +0.149 HD
ATOM     17  H   UNL     1     -37.414  26.941   4.792  0.00  0.00    +0.150 HD
ENDROOT
BRANCH   7  18
ATOM     18  C   UNL     1     -36.518  20.159   2.160  0.00  0.00    +0.059 C 
BRANCH  18  19
ATOM     19  C   UNL     1     -35.326  20.138   1.167  0.00  0.00    +0.141 C 
BRANCH  19  20
ATOM     20  O   UNL     1     -34.145  19.805   1.898  0.00  0.00    -0.382 OA
ATOM     21  H   UNL     1     -33.496  20.519   1.806  0.00  0.00    +0.210 HD
ENDBRANCH  19  20
BRANCH  19  22
ATOM     22  C   UNL     1     -35.515  19.151   0.007  0.00  0.00    +0.201 C 
BRANCH  22  24
ATOM     23  O   UNL     1     -37.498  17.821  -1.647  0.00  0.00    -0.226 OA
ATOM     24  N   UNL     1     -36.391  18.065   0.377  0.00  0.00    -0.260 N 
ATOM     25  C   UNL     1     -37.308  17.492  -0.482  0.00  0.00    +0.402 C 
ATOM     26  H   UNL     1     -36.331  17.713   1.294  0.00  0.00    +0.153 HD
BRANCH  25  27
ATOM     27  O   UNL     1     -37.982  16.493   0.163  0.00  0.00    -0.431 OA
ATOM     28  C   UNL     1     -38.588  15.506  -0.679  0.00  0.00    +0.257 C 
ENDBRANCH  25  27
ENDBRANCH  22  24
BRANCH  22  30
ATOM     29  O   UNL     1     -33.576  18.866  -1.438  0.00  0.00    -0.248 OA
ATOM     30  C   UNL     1     -34.216  18.516  -0.455  0.00  0.00    +0.338 C 
BRANCH  30  31
ATOM     31  O   UNL     1     -33.901  17.477   0.374  0.00  0.00    -0.443 OA
ATOM     32  C   UNL     1     -32.531  17.062   0.349  0.00  0.00    +0.256 C 
ENDBRANCH  30  31
ENDBRANCH  22  30
ENDBRANCH  19  22
ENDBRANCH  18  19
ENDBRANCH   7  18
TORSDOF 8
ENDMDL
MODEL 4
REMARK VINA RESULT:      -5.7      5.025      9.636
REMARK  Name = 194342
REMARK  8 active torsions:
REMARK  status: ('A' for Active; 'I' for Inactive)
REMARK    1  A    between atoms: C_7  and  C_18
REMARK    2  A    between atoms: C_18  and  C_19
REMARK    3  A    between atoms: C_19  and  O_20
REMARK    4  A    between atoms: C_19  and  C_22
REMARK    5  A    between atoms: C_22  and  N_24
REMARK    6  A    between atoms: C_22  and  C_30
REMARK    7  A    between atoms: C_25  and  O_27
REMARK    8  A    between atoms: C_30  and  O_31
REMARK                            x       y       z     vdW  Elec       q    Type
REMARK                         _______ _______ _______ _____ _____    ______ ____
ROOT
ATOM      1  O   UNL     1     -33.702  19.504   1.093  0.00  0.00    -0.268 OA
ATOM      2  N   UNL     1     -35.506  18.555   0.087  0.00  0.00    -0.212 N 
ATOM      3  N   UNL     1     -35.404  16.332  -0.793  0.00  0.00    -0.236 N 
ATOM      4  N   UNL     1     -37.381  17.788  -0.855  0.00  0.00    -0.380 NA
ATOM      5  N   UNL     1     -32.239  16.849   0.564  0.00  0.00    -0.311 N 
ATOM      6  N   UNL     1     -33.267  15.155  -0.477  0.00  0.00    -0.304 N 
ATOM      7  C   UNL     1     -36.425  19.565   0.185  0.00  0.00    +0.134 C 
ATOM      8  C   UNL     1     -36.130  17.483  -0.562  0.00  0.00    +0.252 C 
ATOM      9  C   UNL     1     -37.566  19.069  -0.399  0.00  0.00    +0.109 C 
ATOM     10  C   UNL     1     -34.173  18.522   0.537  0.00  0.00    +0.271 C 
ATOM     11  C   UNL     1     -33.498  17.282   0.280  0.00  0.00    +0.128 C 
ATOM     12  C   UNL     1     -34.110  16.225  -0.363  0.00  0.00    +0.122 C 
ATOM     13  C   UNL     1     -38.869  19.733  -0.566  0.00  0.00    +0.063 C 
ATOM     14  C   UNL     1     -36.065  15.197  -1.417  0.00  0.00    +0.122 C 
ATOM     15  C   UNL     1     -32.148  15.563   0.090  0.00  0.00    +0.183 C 
ATOM     16  H   UNL     1     -31.532  17.358   1.021  0.00  0.00    +0.149 HD
ATOM     17  H   UNL     1     -33.453  14.280  -0.888  0.00  0.00    +0.150 HD
ENDROOT
BRANCH   7  18
ATOM     18  C   UNL     1     -36.161  20.877   0.805  0.00  0.00    +0.059 C 
BRANCH  18  19
ATOM     19  C   UNL     1     -36.730  20.996   2.244  0.00  0.00    +0.141 C 
BRANCH  19  20
ATOM     20  O   UNL     1     -35.828  20.336   3.134  0.00  0.00    -0.382 OA
ATOM     21  H   UNL     1     -35.818  19.386   2.940  0.00  0.00    +0.210 HD
ENDBRANCH  19  20
BRANCH  19  22
ATOM     22  C   UNL     1     -36.942  22.446   2.700  0.00  0.00    +0.201 C 
BRANCH  22  24
ATOM     23  O   UNL     1     -34.717  24.014   3.714  0.00  0.00    -0.226 OA
ATOM     24  N   UNL     1     -36.543  22.629   4.075  0.00  0.00    -0.260 N 
ATOM     25  C   UNL     1     -35.465  23.398   4.465  0.00  0.00    +0.402 C 
ATOM     26  H   UNL     1     -37.070  22.181   4.774  0.00  0.00    +0.153 HD
BRANCH  25  27
ATOM     27  O   UNL     1     -35.349  23.373   5.826  0.00  0.00    -0.431 OA
ATOM     28  C   UNL     1     -35.493  22.088   6.441  0.00  0.00    +0.257 C 
ENDBRANCH  25  27
ENDBRANCH  22  24
BRANCH  22  30
ATOM     29  O   UNL     1     -39.247  22.357   1.921  0.00  0.00    -0.248 OA
ATOM     30  C   UNL     1     -38.390  22.894   2.610  0.00  0.00    +0.338 C 
BRANCH  30  31
ATOM     31  O   UNL     1     -38.569  24.003   3.387  0.00  0.00    -0.443 OA
ATOM     32  C   UNL     1     -39.586  24.909   2.944  0.00  0.00    +0.256 C 
ENDBRANCH  30  31
ENDBRANCH  22  30
ENDBRANCH  19  22
ENDBRANCH  18  19
ENDBRANCH   7  18
TORSDOF 8
ENDMDL
MODEL 5
REMARK VINA RESULT:      -5.7      2.575      7.896
REMARK  Name = 194342
REMARK  8 active torsions:
REMARK  status: ('A' for Active; 'I' for Inactive)
REMARK    1  A    between atoms: C_7  and  C_18
REMARK    2  A    between atoms: C_18  and  C_19
REMARK    3  A    between atoms: C_19  and  O_20
REMARK    4  A    between atoms: C_19  and  C_22
REMARK    5  A    between atoms: C_22  and  N_24
REMARK    6  A    between atoms: C_22  and  C_30
REMARK    7  A    between atoms: C_25  and  O_27
REMARK    8  A    between atoms: C_30  and  O_31
REMARK                            x       y       z     vdW  Elec       q    Type
REMARK                         _______ _______ _______ _____ _____    ______ ____
ROOT
ATOM      1  O   UNL     1     -38.427  26.652   2.993  0.00  0.00    -0.268 OA
ATOM      2  N   UNL     1     -37.713  24.508   3.239  0.00  0.00    -0.212 N 
ATOM      3  N   UNL     1     -38.885  22.690   2.215  0.00  0.00    -0.236 N 
ATOM      4  N   UNL     1     -36.856  22.474   3.582  0.00  0.00    -0.380 NA
ATOM      5  N   UNL     1     -40.676  25.509   1.233  0.00  0.00    -0.311 N 
ATOM      6  N   UNL     1     -40.839  23.309   0.856  0.00  0.00    -0.304 N 
ATOM      7  C   UNL     1     -36.609  24.686   4.030  0.00  0.00    +0.134 C 
ATOM      8  C   UNL     1     -37.833  23.136   2.991  0.00  0.00    +0.252 C 
ATOM      9  C   UNL     1     -36.102  23.425   4.225  0.00  0.00    +0.109 C 
ATOM     10  C   UNL     1     -38.601  25.472   2.726  0.00  0.00    +0.271 C 
ATOM     11  C   UNL     1     -39.650  24.928   1.911  0.00  0.00    +0.128 C 
ATOM     12  C   UNL     1     -39.773  23.575   1.668  0.00  0.00    +0.122 C 
ATOM     13  C   UNL     1     -34.913  23.028   4.997  0.00  0.00    +0.063 C 
ATOM     14  C   UNL     1     -38.981  21.272   1.910  0.00  0.00    +0.122 C 
ATOM     15  C   UNL     1     -41.364  24.495   0.613  0.00  0.00    +0.183 C 
ATOM     16  H   UNL     1     -40.885  26.470   1.193  0.00  0.00    +0.149 HD
ATOM     17  H   UNL     1     -41.146  22.433   0.528  0.00  0.00    +0.150 HD
ENDROOT
BRANCH   7  18
ATOM     18  C   UNL     1     -36.136  25.994   4.521  0.00  0.00    +0.059 C 
BRANCH  18  19
ATOM     19  C   UNL     1     -35.174  26.704   3.531  0.00  0.00    +0.141 C 
BRANCH  19  20
ATOM     20  O   UNL     1     -35.570  28.073   3.432  0.00  0.00    -0.382 OA
ATOM     21  H   UNL     1     -35.307  28.425   2.567  0.00  0.00    +0.210 HD
ENDBRANCH  19  20
BRANCH  19  22
ATOM     22  C   UNL     1     -33.699  26.618   3.944  0.00  0.00    +0.201 C 
BRANCH  22  24
ATOM     23  O   UNL     1     -32.250  26.938   6.441  0.00  0.00    -0.226 OA
ATOM     24  N   UNL     1     -33.251  27.847   4.556  0.00  0.00    -0.260 N 
ATOM     25  C   UNL     1     -32.564  27.902   5.752  0.00  0.00    +0.402 C 
ATOM     26  H   UNL     1     -33.446  28.693   4.093  0.00  0.00    +0.153 HD
BRANCH  25  27
ATOM     27  O   UNL     1     -32.282  29.203   6.062  0.00  0.00    -0.431 OA
ATOM     28  C   UNL     1     -30.986  29.444   6.620  0.00  0.00    +0.257 C 
ENDBRANCH  25  27
ENDBRANCH  22  24
BRANCH  22  30
ATOM     29  O   UNL     1     -31.580  26.067   2.878  0.00  0.00    -0.248 OA
ATOM     30  C   UNL     1     -32.765  26.356   2.776  0.00  0.00    +0.338 C 
BRANCH  30  31
ATOM     31  O   UNL     1     -33.446  26.531   1.604  0.00  0.00    -0.443 OA
ATOM     32  C   UNL     1     -32.886  27.493   0.703  0.00  0.00    +0.256 C 
ENDBRANCH  30  31
ENDBRANCH  22  30
ENDBRANCH  19  22
ENDBRANCH  18  19
ENDBRANCH   7  18
TORSDOF 8
ENDMDL
MODEL 6
REMARK VINA RESULT:      -5.7      3.004      5.431
REMARK  Name = 194342
REMARK  8 active torsions:
REMARK  status: ('A' for Active; 'I' for Inactive)
REMARK    1  A    between atoms: C_7  and  C_18
REMARK    2  A    between atoms: C_18  and  C_19
REMARK    3  A    between atoms: C_19  and  O_20
REMARK    4  A    between atoms: C_19  and  C_22
REMARK    5  A    between atoms: C_22  and  N_24
REMARK    6  A    between atoms: C_22  and  C_30
REMARK    7  A    between atoms: C_25  and  O_27
REMARK    8  A    between atoms: C_30  and  O_31
REMARK                            x       y       z     vdW  Elec       q    Type
REMARK                         _______ _______ _______ _____ _____    ______ ____
ROOT
ATOM      1  O   UNL     1     -36.984  24.711   1.758  0.00  0.00    -0.268 OA
ATOM      2  N   UNL     1     -35.771  24.361   3.648  0.00  0.00    -0.212 N 
ATOM      3  N   UNL     1     -34.512  26.130   4.654  0.00  0.00    -0.236 N 
ATOM      4  N   UNL     1     -34.651  23.831   5.507  0.00  0.00    -0.380 NA
ATOM      5  N   UNL     1     -36.033  27.633   1.907  0.00  0.00    -0.311 N 
ATOM      6  N   UNL     1     -34.676  28.321   3.549  0.00  0.00    -0.304 N 
ATOM      7  C   UNL     1     -36.019  23.035   3.880  0.00  0.00    +0.134 C 
ATOM      8  C   UNL     1     -34.923  24.812   4.667  0.00  0.00    +0.252 C 
ATOM      9  C   UNL     1     -35.323  22.735   5.026  0.00  0.00    +0.109 C 
ATOM     10  C   UNL     1     -36.248  25.184   2.611  0.00  0.00    +0.271 C 
ATOM     11  C   UNL     1     -35.794  26.544   2.687  0.00  0.00    +0.128 C 
ATOM     12  C   UNL     1     -34.954  26.990   3.687  0.00  0.00    +0.122 C 
ATOM     13  C   UNL     1     -35.238  21.447   5.732  0.00  0.00    +0.063 C 
ATOM     14  C   UNL     1     -33.675  26.616   5.740  0.00  0.00    +0.122 C 
ATOM     15  C   UNL     1     -35.340  28.679   2.466  0.00  0.00    +0.183 C 
ATOM     16  H   UNL     1     -36.595  27.666   1.099  0.00  0.00    +0.149 HD
ATOM     17  H   UNL     1     -34.110  28.884   4.125  0.00  0.00    +0.150 HD
ENDROOT
BRANCH   7  18
ATOM     18  C   UNL     1     -36.872  22.183   3.029  0.00  0.00    +0.059 C 
BRANCH  18  19
ATOM     19  C   UNL     1     -36.081  21.065   2.300  0.00  0.00    +0.141 C 
BRANCH  19  20
ATOM     20  O   UNL     1     -36.653  19.807   2.663  0.00  0.00    -0.382 OA
ATOM     21  H   UNL     1     -36.067  19.090   2.374  0.00  0.00    +0.210 HD
ENDBRANCH  19  20
BRANCH  19  22
ATOM     22  C   UNL     1     -36.079  21.214   0.772  0.00  0.00    +0.201 C 
BRANCH  22  24
ATOM     23  O   UNL     1     -33.305  21.858   0.197  0.00  0.00    -0.226 OA
ATOM     24  N   UNL     1     -35.532  22.488   0.369  0.00  0.00    -0.260 N 
ATOM     25  C   UNL     1     -34.192  22.702   0.115  0.00  0.00    +0.402 C 
ATOM     26  H   UNL     1     -36.149  23.247   0.269  0.00  0.00    +0.153 HD
BRANCH  25  27
ATOM     27  O   UNL     1     -33.992  24.004  -0.244  0.00  0.00    -0.431 OA
ATOM     28  C   UNL     1     -33.172  24.777   0.639  0.00  0.00    +0.257 C 
ENDBRANCH  25  27
ENDBRANCH  22  24
BRANCH  22  30
ATOM     29  O   UNL     1     -38.187  20.142   0.193  0.00  0.00    -0.248 OA
ATOM     30  C   UNL     1     -37.466  21.131   0.162  0.00  0.00    +0.338 C 
BRANCH  30  31
ATOM     31  O   UNL     1     -37.762  22.315  -0.453  0.00  0.00    -0.443 OA
ATOM     32  C   UNL     1     -39.109  22.772  -0.294  0.00  0.00    +0.256 C 
ENDBRANCH  30  31
ENDBRANCH  22  30
ENDBRANCH  19  22
ENDBRANCH  18  19
ENDBRANCH   7  18
TORSDOF 8
ENDMDL
MODEL 7
REMARK VINA RESULT:      -5.7      3.016      5.392
REMARK  Name = 194342
REMARK  8 active torsions:
REMARK  status: ('A' for Active; 'I' for Inactive)
REMARK    1  A    between atoms: C_7  and  C_18
REMARK    2  A    between atoms: C_18  and  C_19
REMARK    3  A    between atoms: C_19  and  O_20
REMARK    4  A    between atoms: C_19  and  C_22
REMARK    5  A    between atoms: C_22  and  N_24
REMARK    6  A    between atoms: C_22  and  C_30
REMARK    7  A    between atoms: C_25  and  O_27
REMARK    8  A    between atoms: C_30  and  O_31
REMARK                            x       y       z     vdW  Elec       q    Type
REMARK                         _______ _______ _______ _____ _____    ______ ____
ROOT
ATOM      1  O   UNL     1     -37.195  24.732   1.842  0.00  0.00    -0.268 OA
ATOM      2  N   UNL     1     -35.872  24.385   3.658  0.00  0.00    -0.212 N 
ATOM      3  N   UNL     1     -34.568  26.160   4.595  0.00  0.00    -0.236 N 
ATOM      4  N   UNL     1     -34.642  23.857   5.446  0.00  0.00    -0.380 NA
ATOM      5  N   UNL     1     -36.257  27.660   1.945  0.00  0.00    -0.311 N 
ATOM      6  N   UNL     1     -34.812  28.353   3.508  0.00  0.00    -0.304 N 
ATOM      7  C   UNL     1     -36.098  23.056   3.899  0.00  0.00    +0.134 C 
ATOM      8  C   UNL     1     -34.969  24.839   4.626  0.00  0.00    +0.252 C 
ATOM      9  C   UNL     1     -35.334  22.758   5.001  0.00  0.00    +0.109 C 
ATOM     10  C   UNL     1     -36.414  25.208   2.653  0.00  0.00    +0.271 C 
ATOM     11  C   UNL     1     -35.965  26.570   2.706  0.00  0.00    +0.128 C 
ATOM     12  C   UNL     1     -35.072  27.020   3.658  0.00  0.00    +0.122 C 
ATOM     13  C   UNL     1     -35.200  21.468   5.697  0.00  0.00    +0.063 C 
ATOM     14  C   UNL     1     -33.674  26.648   5.632  0.00  0.00    +0.122 C 
ATOM     15  C   UNL     1     -35.540  28.709   2.467  0.00  0.00    +0.183 C 
ATOM     16  H   UNL     1     -36.865  27.691   1.171  0.00  0.00    +0.149 HD
ATOM     17  H   UNL     1     -34.217  28.918   4.052  0.00  0.00    +0.150 HD
ENDROOT
BRANCH   7  18
ATOM     18  C   UNL     1     -36.993  22.201   3.095  0.00  0.00    +0.059 C 
BRANCH  18  19
ATOM     19  C   UNL     1     -36.237  21.095   2.313  0.00  0.00    +0.141 C 
BRANCH  19  20
ATOM     20  O   UNL     1     -36.727  19.827   2.751  0.00  0.00    -0.382 OA
ATOM     21  H   UNL     1     -37.684  19.780   2.600  0.00  0.00    +0.210 HD
ENDBRANCH  19  20
BRANCH  19  22
ATOM     22  C   UNL     1     -36.386  21.213   0.790  0.00  0.00    +0.201 C 
BRANCH  22  24
ATOM     23  O   UNL     1     -39.166  21.882   0.276  0.00  0.00    -0.226 OA
ATOM     24  N   UNL     1     -37.428  20.345   0.295  0.00  0.00    -0.260 N 
ATOM     25  C   UNL     1     -38.729  20.753   0.079  0.00  0.00    +0.402 C 
ATOM     26  H   UNL     1     -37.197  19.409   0.099  0.00  0.00    +0.153 HD
BRANCH  25  27
ATOM     27  O   UNL     1     -39.470  19.705  -0.389  0.00  0.00    -0.431 OA
ATOM     28  C   UNL     1     -38.728  18.630  -0.976  0.00  0.00    +0.257 C 
ENDBRANCH  25  27
ENDBRANCH  22  24
BRANCH  22  30
ATOM     29  O   UNL     1     -34.871  21.176  -1.115  0.00  0.00    -0.248 OA
ATOM     30  C   UNL     1     -35.123  20.841   0.035  0.00  0.00    +0.338 C 
BRANCH  30  31
ATOM     31  O   UNL     1     -34.340  20.049   0.826  0.00  0.00    -0.443 OA
ATOM     32  C   UNL     1     -34.131  18.715   0.348  0.00  0.00    +0.256 C 
ENDBRANCH  30  31
ENDBRANCH  22  30
ENDBRANCH  19  22
ENDBRANCH  18  19
ENDBRANCH   7  18
TORSDOF 8
ENDMDL
MODEL 8
REMARK VINA RESULT:      -5.6      2.808      6.814
REMARK  Name = 194342
REMARK  8 active torsions:
REMARK  status: ('A' for Active; 'I' for Inactive)
REMARK    1  A    between atoms: C_7  and  C_18
REMARK    2  A    between atoms: C_18  and  C_19
REMARK    3  A    between atoms: C_19  and  O_20
REMARK    4  A    between atoms: C_19  and  C_22
REMARK    5  A    between atoms: C_22  and  N_24
REMARK    6  A    between atoms: C_22  and  C_30
REMARK    7  A    between atoms: C_25  and  O_27
REMARK    8  A    between atoms: C_30  and  O_31
REMARK                            x       y       z     vdW  Elec       q    Type
REMARK                         _______ _______ _______ _____ _____    ______ ____
ROOT
ATOM      1  O   UNL     1     -36.710  25.439   4.436  0.00  0.00    -0.268 OA
ATOM      2  N   UNL     1     -36.458  24.077   2.634  0.00  0.00    -0.212 N 
ATOM      3  N   UNL     1     -35.643  21.840   2.880  0.00  0.00    -0.236 N 
ATOM      4  N   UNL     1     -36.286  22.885   0.752  0.00  0.00    -0.380 NA
ATOM      5  N   UNL     1     -35.728  23.070   6.136  0.00  0.00    -0.311 N 
ATOM      6  N   UNL     1     -35.170  21.122   5.184  0.00  0.00    -0.304 N 
ATOM      7  C   UNL     1     -36.868  24.900   1.620  0.00  0.00    +0.134 C 
ATOM      8  C   UNL     1     -36.104  22.850   2.059  0.00  0.00    +0.252 C 
ATOM      9  C   UNL     1     -36.755  24.146   0.478  0.00  0.00    +0.109 C 
ATOM     10  C   UNL     1     -36.385  24.338   4.015  0.00  0.00    +0.271 C 
ATOM     11  C   UNL     1     -35.920  23.229   4.798  0.00  0.00    +0.128 C 
ATOM     12  C   UNL     1     -35.567  22.020   4.234  0.00  0.00    +0.122 C 
ATOM     13  C   UNL     1     -37.068  24.533  -0.907  0.00  0.00    +0.063 C 
ATOM     14  C   UNL     1     -35.327  20.547   2.293  0.00  0.00    +0.122 C 
ATOM     15  C   UNL     1     -35.277  21.785   6.320  0.00  0.00    +0.183 C 
ATOM     16  H   UNL     1     -35.883  23.744   6.836  0.00  0.00    +0.149 HD
ATOM     17  H   UNL     1     -34.873  20.193   5.052  0.00  0.00    +0.150 HD
ENDROOT
BRANCH   7  18
ATOM     18  C   UNL     1     -37.323  26.291   1.807  0.00  0.00    +0.059 C 
BRANCH  18  19
ATOM     19  C   UNL     1     -36.308  27.340   1.282  0.00  0.00    +0.141 C 
BRANCH  19  20
ATOM     20  O   UNL     1     -36.690  28.621   1.787  0.00  0.00    -0.382 OA
ATOM     21  H   UNL     1     -37.650  28.730   1.699  0.00  0.00    +0.210 HD
ENDBRANCH  19  20
BRANCH  19  22
ATOM     22  C   UNL     1     -34.856  27.037   1.678  0.00  0.00    +0.201 C 
BRANCH  22  24
ATOM     23  O   UNL     1     -32.900  25.846   3.464  0.00  0.00    -0.226 OA
ATOM     24  N   UNL     1     -34.611  27.361   3.063  0.00  0.00    -0.260 N 
ATOM     25  C   UNL     1     -33.653  26.739   3.839  0.00  0.00    +0.402 C 
ATOM     26  H   UNL     1     -35.157  28.067   3.479  0.00  0.00    +0.153 HD
BRANCH  25  27
ATOM     27  O   UNL     1     -33.666  27.266   5.099  0.00  0.00    -0.431 OA
ATOM     28  C   UNL     1     -33.762  26.320   6.170  0.00  0.00    +0.257 C 
ENDBRANCH  25  27
ENDBRANCH  22  24
BRANCH  22  30
ATOM     29  O   UNL     1     -33.040  27.328   0.083  0.00  0.00    -0.248 OA
ATOM     30  C   UNL     1     -33.840  27.821   0.868  0.00  0.00    +0.338 C 
BRANCH  30  31
ATOM     31  O   UNL     1     -33.936  29.147   1.181  0.00  0.00    -0.443 OA
ATOM     32  C   UNL     1     -32.712  29.886   1.118  0.00  0.00    +0.256 C 
ENDBRANCH  30  31
ENDBRANCH  22  30
ENDBRANCH  19  22
ENDBRANCH  18  19
ENDBRANCH   7  18
TORSDOF 8
ENDMDL
MODEL 9
REMARK VINA RESULT:      -5.6      2.599      7.178
REMARK  Name = 194342
REMARK  8 active torsions:
REMARK  status: ('A' for Active; 'I' for Inactive)
REMARK    1  A    between atoms: C_7  and  C_18
REMARK    2  A    between atoms: C_18  and  C_19
REMARK    3  A    between atoms: C_19  and  O_20
REMARK    4  A    between atoms: C_19  and  C_22
REMARK    5  A    between atoms: C_22  and  N_24
REMARK    6  A    between atoms: C_22  and  C_30
REMARK    7  A    between atoms: C_25  and  O_27
REMARK    8  A    between atoms: C_30  and  O_31
REMARK                            x       y       z     vdW  Elec       q    Type
REMARK                         _______ _______ _______ _____ _____    ______ ____
ROOT
ATOM      1  O   UNL     1     -33.431  25.655   4.348  0.00  0.00    -0.268 OA
ATOM      2  N   UNL     1     -34.884  25.060   2.703  0.00  0.00    -0.212 N 
ATOM      3  N   UNL     1     -36.307  23.151   2.942  0.00  0.00    -0.236 N 
ATOM      4  N   UNL     1     -36.251  24.638   0.988  0.00  0.00    -0.380 NA
ATOM      5  N   UNL     1     -34.537  23.264   5.938  0.00  0.00    -0.311 N 
ATOM      6  N   UNL     1     -36.130  21.947   5.079  0.00  0.00    -0.304 N 
ATOM      7  C   UNL     1     -34.634  26.028   1.767  0.00  0.00    +0.134 C 
ATOM      8  C   UNL     1     -35.879  24.224   2.185  0.00  0.00    +0.252 C 
ATOM      9  C   UNL     1     -35.486  25.747   0.726  0.00  0.00    +0.109 C 
ATOM     10  C   UNL     1     -34.299  24.880   3.971  0.00  0.00    +0.271 C 
ATOM     11  C   UNL     1     -34.817  23.759   4.701  0.00  0.00    +0.128 C 
ATOM     12  C   UNL     1     -35.796  22.930   4.191  0.00  0.00    +0.122 C 
ATOM     13  C   UNL     1     -35.643  26.472  -0.545  0.00  0.00    +0.063 C 
ATOM     14  C   UNL     1     -37.380  22.313   2.430  0.00  0.00    +0.122 C 
ATOM     15  C   UNL     1     -35.353  22.175   6.121  0.00  0.00    +0.183 C 
ATOM     16  H   UNL     1     -33.879  23.619   6.578  0.00  0.00    +0.149 HD
ATOM     17  H   UNL     1     -36.797  21.231   4.967  0.00  0.00    +0.150 HD
ENDROOT
BRANCH   7  18
ATOM     18  C   UNL     1     -33.642  27.108   1.927  0.00  0.00    +0.059 C 
BRANCH  18  19
ATOM     19  C   UNL     1     -34.263  28.432   2.447  0.00  0.00    +0.141 C 
BRANCH  19  20
ATOM     20  O   UNL     1     -35.265  28.105   3.411  0.00  0.00    -0.382 OA
ATOM     21  H   UNL     1     -34.968  27.351   3.943  0.00  0.00    +0.210 HD
ENDBRANCH  19  20
BRANCH  19  22
ATOM     22  C   UNL     1     -33.235  29.387   3.069  0.00  0.00    +0.201 C 
BRANCH  22  24
ATOM     23  O   UNL     1     -30.568  28.425   3.700  0.00  0.00    -0.226 OA
ATOM     24  N   UNL     1     -32.751  28.887   4.334  0.00  0.00    -0.260 N 
ATOM     25  C   UNL     1     -31.459  28.449   4.542  0.00  0.00    +0.402 C 
ATOM     26  H   UNL     1     -33.379  28.857   5.091  0.00  0.00    +0.153 HD
BRANCH  25  27
ATOM     27  O   UNL     1     -31.313  28.040   5.837  0.00  0.00    -0.431 OA
ATOM     28  C   UNL     1     -31.735  28.973   6.838  0.00  0.00    +0.257 C 
ENDBRANCH  25  27
ENDBRANCH  22  24
BRANCH  22  30
ATOM     29  O   UNL     1     -34.759  31.009   4.056  0.00  0.00    -0.248 OA
ATOM     30  C   UNL     1     -33.793  30.772   3.341  0.00  0.00    +0.338 C 
BRANCH  30  31
ATOM     31  O   UNL     1     -33.075  31.696   2.637  0.00  0.00    -0.443 OA
ATOM     32  C   UNL     1     -31.853  32.124   3.250  0.00  0.00    +0.256 C 
ENDBRANCH  30  31
ENDBRANCH  22  30
ENDBRANCH  19  22
ENDBRANCH  18  19
ENDBRANCH   7  18
TORSDOF 8
ENDMDL
