MODEL 1
REMARK VINA RESULT:      -6.3      0.000      0.000
REMARK  Name = 58599709
REMARK  2 active torsions:
REMARK  status: ('A' for Active; 'I' for Inactive)
REMARK    1  A    between atoms: C_8  and  O_23
REMARK    2  A    between atoms: C_12  and  O_25
REMARK                            x       y       z     vdW  Elec       q    Type
REMARK                         _______ _______ _______ _____ _____    ______ ____
ROOT
ATOM      1  O   UNL     1     -37.453  20.907  -0.300  0.00  0.00    -0.449 OA
ATOM      2  O   UNL     1     -34.952  23.742   3.768  0.00  0.00    -0.446 OA
ATOM      3  O   UNL     1     -38.826  23.804   0.769  0.00  0.00    -0.449 OA
ATOM      4  O   UNL     1     -39.568  20.008  -0.069  0.00  0.00    -0.250 OA
ATOM      5  O   UNL     1     -36.251  22.022   4.608  0.00  0.00    -0.245 OA
ATOM      6  O   UNL     1     -40.006  24.039   2.745  0.00  0.00    -0.245 OA
ATOM      7  C   UNL     1     -36.827  19.668   0.113  0.00  0.00    +0.200 C 
ATOM      8  C   UNL     1     -35.502  20.002   0.823  0.00  0.00    +0.173 C 
ATOM      9  C   UNL     1     -39.910  23.113   0.112  0.00  0.00    +0.180 C 
ATOM     10  C   UNL     1     -35.308  24.646   4.842  0.00  0.00    +0.200 C 
ATOM     11  C   UNL     1     -39.296  22.227  -0.971  0.00  0.00    +0.153 C 
ATOM     12  C   UNL     1     -36.254  25.721   4.272  0.00  0.00    +0.173 C 
ATOM     13  C   UNL     1     -36.610  18.817  -1.140  0.00  0.00    +0.050 C 
ATOM     14  C   UNL     1     -38.814  20.917  -0.393  0.00  0.00    +0.321 C 
ATOM     15  C   UNL     1     -35.747  20.703   2.133  0.00  0.00    +0.013 C 
ATOM     16  C   UNL     1     -40.839  24.153  -0.505  0.00  0.00    +0.048 C 
ATOM     17  C   UNL     1     -34.005  25.240   5.365  0.00  0.00    +0.050 C 
ATOM     18  C   UNL     1     -37.539  25.109   3.777  0.00  0.00    +0.013 C 
ATOM     19  C   UNL     1     -35.217  21.892   2.446  0.00  0.00    +0.080 C 
ATOM     20  C   UNL     1     -37.784  24.902   2.475  0.00  0.00    +0.080 C 
ATOM     21  C   UNL     1     -35.541  22.516   3.746  0.00  0.00    +0.341 C 
ATOM     22  C   UNL     1     -39.018  24.212   2.052  0.00  0.00    +0.341 C 
ENDROOT
BRANCH   8  23
ATOM     23  O   UNL     1     -34.789  18.806   1.127  0.00  0.00    -0.377 OA
ATOM     24  H   UNL     1     -34.262  18.539   0.357  0.00  0.00    +0.211 HD
ENDBRANCH   8  23
BRANCH  12  25
ATOM     25  O   UNL     1     -36.595  26.673   5.275  0.00  0.00    -0.377 OA
ATOM     26  H   UNL     1     -35.792  26.947   5.747  0.00  0.00    +0.211 HD
ENDBRANCH  12  25
TORSDOF 2
ENDMDL
MODEL 2
REMARK VINA RESULT:      -6.2      4.084      8.016
REMARK  Name = 58599709
REMARK  2 active torsions:
REMARK  status: ('A' for Active; 'I' for Inactive)
REMARK    1  A    between atoms: C_8  and  O_23
REMARK    2  A    between atoms: C_12  and  O_25
REMARK                            x       y       z     vdW  Elec       q    Type
REMARK                         _______ _______ _______ _____ _____    ______ ____
ROOT
ATOM      1  O   UNL     1     -33.350  30.020   4.391  0.00  0.00    -0.449 OA
ATOM      2  O   UNL     1     -34.912  24.816   5.540  0.00  0.00    -0.446 OA
ATOM      3  O   UNL     1     -35.882  28.638   2.631  0.00  0.00    -0.449 OA
ATOM      4  O   UNL     1     -32.475  30.631   2.343  0.00  0.00    -0.250 OA
ATOM      5  O   UNL     1     -33.061  24.859   4.153  0.00  0.00    -0.245 OA
ATOM      6  O   UNL     1     -35.601  27.075   0.947  0.00  0.00    -0.245 OA
ATOM      7  C   UNL     1     -32.030  29.798   4.945  0.00  0.00    +0.200 C 
ATOM      8  C   UNL     1     -32.125  28.687   6.007  0.00  0.00    +0.173 C 
ATOM      9  C   UNL     1     -35.422  29.728   1.804  0.00  0.00    +0.180 C 
ATOM     10  C   UNL     1     -35.500  23.681   4.859  0.00  0.00    +0.200 C 
ATOM     11  C   UNL     1     -34.847  30.795   2.735  0.00  0.00    +0.153 C 
ATOM     12  C   UNL     1     -36.712  24.181   4.049  0.00  0.00    +0.173 C 
ATOM     13  C   UNL     1     -31.545  31.121   5.537  0.00  0.00    +0.050 C 
ATOM     14  C   UNL     1     -33.418  30.478   3.108  0.00  0.00    +0.321 C 
ATOM     15  C   UNL     1     -32.451  27.358   5.378  0.00  0.00    +0.013 C 
ATOM     16  C   UNL     1     -36.613  30.275   1.025  0.00  0.00    +0.048 C 
ATOM     17  C   UNL     1     -35.897  22.680   5.939  0.00  0.00    +0.050 C 
ATOM     18  C   UNL     1     -36.290  25.156   2.981  0.00  0.00    +0.013 C 
ATOM     19  C   UNL     1     -33.496  26.604   5.741  0.00  0.00    +0.080 C 
ATOM     20  C   UNL     1     -36.450  26.481   3.111  0.00  0.00    +0.080 C 
ATOM     21  C   UNL     1     -33.753  25.327   5.044  0.00  0.00    +0.341 C 
ATOM     22  C   UNL     1     -35.931  27.397   2.077  0.00  0.00    +0.341 C 
ENDROOT
BRANCH   8  23
ATOM     23  O   UNL     1     -30.874  28.530   6.671  0.00  0.00    -0.377 OA
ATOM     24  H   UNL     1     -30.365  29.353   6.602  0.00  0.00    +0.211 HD
ENDBRANCH   8  23
BRANCH  12  25
ATOM     25  O   UNL     1     -37.365  23.095   3.400  0.00  0.00    -0.377 OA
ATOM     26  H   UNL     1     -37.274  22.293   3.941  0.00  0.00    +0.211 HD
ENDBRANCH  12  25
TORSDOF 2
ENDMDL
MODEL 3
REMARK VINA RESULT:      -6.2      3.594      8.069
REMARK  Name = 58599709
REMARK  2 active torsions:
REMARK  status: ('A' for Active; 'I' for Inactive)
REMARK    1  A    between atoms: C_8  and  O_23
REMARK    2  A    between atoms: C_12  and  O_25
REMARK                            x       y       z     vdW  Elec       q    Type
REMARK                         _______ _______ _______ _____ _____    ______ ____
ROOT
ATOM      1  O   UNL     1     -33.728  29.170   2.203  0.00  0.00    -0.449 OA
ATOM      2  O   UNL     1     -36.457  24.337   2.346  0.00  0.00    -0.446 OA
ATOM      3  O   UNL     1     -32.943  26.910   4.590  0.00  0.00    -0.449 OA
ATOM      4  O   UNL     1     -33.834  30.709   3.923  0.00  0.00    -0.250 OA
ATOM      5  O   UNL     1     -37.664  26.022   3.374  0.00  0.00    -0.245 OA
ATOM      6  O   UNL     1     -34.226  26.500   6.472  0.00  0.00    -0.245 OA
ATOM      7  C   UNL     1     -34.811  29.817   1.492  0.00  0.00    +0.200 C 
ATOM      8  C   UNL     1     -35.579  28.747   0.693  0.00  0.00    +0.173 C 
ATOM      9  C   UNL     1     -32.448  28.165   5.105  0.00  0.00    +0.180 C 
ATOM     10  C   UNL     1     -36.859  23.342   3.320  0.00  0.00    +0.200 C 
ATOM     11  C   UNL     1     -32.092  29.042   3.905  0.00  0.00    +0.153 C 
ATOM     12  C   UNL     1     -35.641  23.020   4.208  0.00  0.00    +0.173 C 
ATOM     13  C   UNL     1     -34.200  30.886   0.585  0.00  0.00    +0.050 C 
ATOM     14  C   UNL     1     -33.315  29.748   3.368  0.00  0.00    +0.321 C 
ATOM     15  C   UNL     1     -36.302  27.797   1.609  0.00  0.00    +0.013 C 
ATOM     16  C   UNL     1     -31.211  27.880   5.951  0.00  0.00    +0.048 C 
ATOM     17  C   UNL     1     -37.340  22.127   2.533  0.00  0.00    +0.050 C 
ATOM     18  C   UNL     1     -35.197  24.232   4.985  0.00  0.00    +0.013 C 
ATOM     19  C   UNL     1     -36.139  26.468   1.575  0.00  0.00    +0.080 C 
ATOM     20  C   UNL     1     -34.129  24.962   4.632  0.00  0.00    +0.080 C 
ATOM     21  C   UNL     1     -36.871  25.618   2.537  0.00  0.00    +0.341 C 
ATOM     22  C   UNL     1     -33.795  26.195   5.372  0.00  0.00    +0.341 C 
ENDROOT
BRANCH   8  23
ATOM     23  O   UNL     1     -36.570  29.360  -0.127  0.00  0.00    -0.377 OA
ATOM     24  H   UNL     1     -37.360  28.797  -0.156  0.00  0.00    +0.211 HD
ENDBRANCH   8  23
BRANCH  12  25
ATOM     25  O   UNL     1     -35.964  22.004   5.153  0.00  0.00    -0.377 OA
ATOM     26  H   UNL     1     -36.839  22.182   5.533  0.00  0.00    +0.211 HD
ENDBRANCH  12  25
TORSDOF 2
ENDMDL
MODEL 4
REMARK VINA RESULT:      -6.1      1.805      5.075
REMARK  Name = 58599709
REMARK  2 active torsions:
REMARK  status: ('A' for Active; 'I' for Inactive)
REMARK    1  A    between atoms: C_8  and  O_23
REMARK    2  A    between atoms: C_12  and  O_25
REMARK                            x       y       z     vdW  Elec       q    Type
REMARK                         _______ _______ _______ _____ _____    ______ ____
ROOT
ATOM      1  O   UNL     1     -36.833  20.679   1.765  0.00  0.00    -0.449 OA
ATOM      2  O   UNL     1     -41.231  24.036   1.295  0.00  0.00    -0.446 OA
ATOM      3  O   UNL     1     -37.062  23.378   3.784  0.00  0.00    -0.449 OA
ATOM      4  O   UNL     1     -34.677  21.387   1.333  0.00  0.00    -0.250 OA
ATOM      5  O   UNL     1     -39.626  24.514  -0.301  0.00  0.00    -0.245 OA
ATOM      6  O   UNL     1     -36.640  25.552   3.112  0.00  0.00    -0.245 OA
ATOM      7  C   UNL     1     -36.998  20.193   0.410  0.00  0.00    +0.200 C 
ATOM      8  C   UNL     1     -38.482  20.324   0.021  0.00  0.00    +0.173 C 
ATOM      9  C   UNL     1     -35.661  23.030   3.807  0.00  0.00    +0.180 C 
ATOM     10  C   UNL     1     -41.561  25.431   1.500  0.00  0.00    +0.200 C 
ATOM     11  C   UNL     1     -35.563  21.523   3.570  0.00  0.00    +0.153 C 
ATOM     12  C   UNL     1     -41.008  25.860   2.873  0.00  0.00    +0.173 C 
ATOM     13  C   UNL     1     -36.519  18.741   0.375  0.00  0.00    +0.050 C 
ATOM     14  C   UNL     1     -35.616  21.201   2.096  0.00  0.00    +0.321 C 
ATOM     15  C   UNL     1     -38.891  21.768  -0.092  0.00  0.00    +0.013 C 
ATOM     16  C   UNL     1     -35.097  23.400   5.175  0.00  0.00    +0.048 C 
ATOM     17  C   UNL     1     -43.081  25.537   1.429  0.00  0.00    +0.050 C 
ATOM     18  C   UNL     1     -39.505  25.761   2.910  0.00  0.00    +0.013 C 
ATOM     19  C   UNL     1     -39.913  22.303   0.588  0.00  0.00    +0.080 C 
ATOM     20  C   UNL     1     -38.865  24.750   3.515  0.00  0.00    +0.080 C 
ATOM     21  C   UNL     1     -40.220  23.741   0.435  0.00  0.00    +0.341 C 
ATOM     22  C   UNL     1     -37.394  24.651   3.439  0.00  0.00    +0.341 C 
ENDROOT
BRANCH   8  23
ATOM     23  O   UNL     1     -38.711  19.734  -1.256  0.00  0.00    -0.377 OA
ATOM     24  H   UNL     1     -39.655  19.793  -1.476  0.00  0.00    +0.211 HD
ENDBRANCH   8  23
BRANCH  12  25
ATOM     25  O   UNL     1     -41.353  27.213   3.153  0.00  0.00    -0.377 OA
ATOM     26  H   UNL     1     -41.222  27.391   4.098  0.00  0.00    +0.211 HD
ENDBRANCH  12  25
TORSDOF 2
ENDMDL
MODEL 5
REMARK VINA RESULT:      -6.0      3.586      7.402
REMARK  Name = 58599709
REMARK  2 active torsions:
REMARK  status: ('A' for Active; 'I' for Inactive)
REMARK    1  A    between atoms: C_8  and  O_23
REMARK    2  A    between atoms: C_12  and  O_25
REMARK                            x       y       z     vdW  Elec       q    Type
REMARK                         _______ _______ _______ _____ _____    ______ ____
ROOT
ATOM      1  O   UNL     1     -32.638  27.807   1.780  0.00  0.00    -0.449 OA
ATOM      2  O   UNL     1     -35.135  22.867   2.222  0.00  0.00    -0.446 OA
ATOM      3  O   UNL     1     -33.005  26.420   4.839  0.00  0.00    -0.449 OA
ATOM      4  O   UNL     1     -33.507  29.728   2.725  0.00  0.00    -0.250 OA
ATOM      5  O   UNL     1     -36.677  24.585   2.064  0.00  0.00    -0.245 OA
ATOM      6  O   UNL     1     -34.996  26.366   6.018  0.00  0.00    -0.245 OA
ATOM      7  C   UNL     1     -33.288  28.077   0.513  0.00  0.00    +0.200 C 
ATOM      8  C   UNL     1     -33.614  26.733  -0.165  0.00  0.00    +0.173 C 
ATOM      9  C   UNL     1     -32.796  27.824   5.103  0.00  0.00    +0.180 C 
ATOM     10  C   UNL     1     -35.930  22.132   3.185  0.00  0.00    +0.200 C 
ATOM     11  C   UNL     1     -31.941  28.379   3.965  0.00  0.00    +0.153 C 
ATOM     12  C   UNL     1     -35.240  22.238   4.559  0.00  0.00    +0.173 C 
ATOM     13  C   UNL     1     -32.336  28.930  -0.325  0.00  0.00    +0.050 C 
ATOM     14  C   UNL     1     -32.793  28.734   2.769  0.00  0.00    +0.321 C 
ATOM     15  C   UNL     1     -34.671  25.979   0.598  0.00  0.00    +0.013 C 
ATOM     16  C   UNL     1     -32.070  27.957   6.438  0.00  0.00    +0.048 C 
ATOM     17  C   UNL     1     -36.005  20.693   2.684  0.00  0.00    +0.050 C 
ATOM     18  C   UNL     1     -35.193  23.666   5.036  0.00  0.00    +0.013 C 
ATOM     19  C   UNL     1     -34.508  24.728   1.047  0.00  0.00    +0.080 C 
ATOM     20  C   UNL     1     -34.082  24.413   4.968  0.00  0.00    +0.080 C 
ATOM     21  C   UNL     1     -35.593  24.081   1.814  0.00  0.00    +0.341 C 
ATOM     22  C   UNL     1     -34.117  25.835   5.360  0.00  0.00    +0.341 C 
ENDROOT
BRANCH   8  23
ATOM     23  O   UNL     1     -34.133  26.954  -1.473  0.00  0.00    -0.377 OA
ATOM     24  H   UNL     1     -33.431  26.815  -2.129  0.00  0.00    +0.211 HD
ENDBRANCH   8  23
BRANCH  12  25
ATOM     25  O   UNL     1     -35.950  21.485   5.537  0.00  0.00    -0.377 OA
ATOM     26  H   UNL     1     -36.611  20.925   5.097  0.00  0.00    +0.211 HD
ENDBRANCH  12  25
TORSDOF 2
ENDMDL
MODEL 6
REMARK VINA RESULT:      -6.0      3.345      5.275
REMARK  Name = 58599709
REMARK  2 active torsions:
REMARK  status: ('A' for Active; 'I' for Inactive)
REMARK    1  A    between atoms: C_8  and  O_23
REMARK    2  A    between atoms: C_12  and  O_25
REMARK                            x       y       z     vdW  Elec       q    Type
REMARK                         _______ _______ _______ _____ _____    ______ ____
ROOT
ATOM      1  O   UNL     1     -34.809  22.678   2.015  0.00  0.00    -0.449 OA
ATOM      2  O   UNL     1     -32.895  26.625   5.420  0.00  0.00    -0.446 OA
ATOM      3  O   UNL     1     -33.044  25.251   0.719  0.00  0.00    -0.449 OA
ATOM      4  O   UNL     1     -36.354  23.112   0.354  0.00  0.00    -0.250 OA
ATOM      5  O   UNL     1     -35.115  26.980   4.875  0.00  0.00    -0.245 OA
ATOM      6  O   UNL     1     -33.884  27.385   0.408  0.00  0.00    -0.245 OA
ATOM      7  C   UNL     1     -35.849  22.305   2.953  0.00  0.00    +0.200 C 
ATOM      8  C   UNL     1     -35.376  22.661   4.375  0.00  0.00    +0.173 C 
ATOM      9  C   UNL     1     -33.776  24.714  -0.404  0.00  0.00    +0.180 C 
ATOM     10  C   UNL     1     -32.573  28.037   5.376  0.00  0.00    +0.200 C 
ATOM     11  C   UNL     1     -33.996  23.226  -0.135  0.00  0.00    +0.153 C 
ATOM     12  C   UNL     1     -31.727  28.299   4.116  0.00  0.00    +0.173 C 
ATOM     13  C   UNL     1     -36.107  20.807   2.790  0.00  0.00    +0.050 C 
ATOM     14  C   UNL     1     -35.200  23.007   0.750  0.00  0.00    +0.321 C 
ATOM     15  C   UNL     1     -35.280  24.152   4.560  0.00  0.00    +0.013 C 
ATOM     16  C   UNL     1     -32.938  24.917  -1.663  0.00  0.00    +0.048 C 
ATOM     17  C   UNL     1     -31.813  28.353   6.660  0.00  0.00    +0.050 C 
ATOM     18  C   UNL     1     -32.507  27.994   2.863  0.00  0.00    +0.013 C 
ATOM     19  C   UNL     1     -34.166  24.777   4.963  0.00  0.00    +0.080 C 
ATOM     20  C   UNL     1     -32.323  26.870   2.156  0.00  0.00    +0.080 C 
ATOM     21  C   UNL     1     -34.159  26.250   5.086  0.00  0.00    +0.341 C 
ATOM     22  C   UNL     1     -33.181  26.576   0.991  0.00  0.00    +0.341 C 
ENDROOT
BRANCH   8  23
ATOM     23  O   UNL     1     -36.312  22.189   5.339  0.00  0.00    -0.377 OA
ATOM     24  H   UNL     1     -37.166  22.631   5.205  0.00  0.00    +0.211 HD
ENDBRANCH   8  23
BRANCH  12  25
ATOM     25  O   UNL     1     -31.334  29.666   4.050  0.00  0.00    -0.377 OA
ATOM     26  H   UNL     1     -31.315  30.041   4.946  0.00  0.00    +0.211 HD
ENDBRANCH  12  25
TORSDOF 2
ENDMDL
MODEL 7
REMARK VINA RESULT:      -6.0      1.694      2.082
REMARK  Name = 58599709
REMARK  2 active torsions:
REMARK  status: ('A' for Active; 'I' for Inactive)
REMARK    1  A    between atoms: C_8  and  O_23
REMARK    2  A    between atoms: C_12  and  O_25
REMARK                            x       y       z     vdW  Elec       q    Type
REMARK                         _______ _______ _______ _____ _____    ______ ____
ROOT
ATOM      1  O   UNL     1     -36.984  19.180  -1.121  0.00  0.00    -0.449 OA
ATOM      2  O   UNL     1     -35.093  22.709   2.727  0.00  0.00    -0.446 OA
ATOM      3  O   UNL     1     -39.074  21.522   0.129  0.00  0.00    -0.449 OA
ATOM      4  O   UNL     1     -38.682  17.671  -0.697  0.00  0.00    -0.250 OA
ATOM      5  O   UNL     1     -35.704  20.683   3.662  0.00  0.00    -0.245 OA
ATOM      6  O   UNL     1     -40.066  21.408   2.217  0.00  0.00    -0.245 OA
ATOM      7  C   UNL     1     -35.967  18.202  -0.794  0.00  0.00    +0.200 C 
ATOM      8  C   UNL     1     -34.747  18.941  -0.213  0.00  0.00    +0.173 C 
ATOM      9  C   UNL     1     -39.951  20.519  -0.429  0.00  0.00    +0.180 C 
ATOM     10  C   UNL     1     -35.604  23.473   3.846  0.00  0.00    +0.200 C 
ATOM     11  C   UNL     1     -39.203  19.852  -1.582  0.00  0.00    +0.153 C 
ATOM     12  C   UNL     1     -36.888  24.193   3.392  0.00  0.00    +0.173 C 
ATOM     13  C   UNL     1     -35.623  17.442  -2.076  0.00  0.00    +0.050 C 
ATOM     14  C   UNL     1     -38.284  18.765  -1.078  0.00  0.00    +0.321 C 
ATOM     15  C   UNL     1     -35.066  19.550   1.126  0.00  0.00    +0.013 C 
ATOM     16  C   UNL     1     -41.213  21.211  -0.931  0.00  0.00    +0.048 C 
ATOM     17  C   UNL     1     -34.503  24.450   4.248  0.00  0.00    +0.050 C 
ATOM     18  C   UNL     1     -37.962  23.205   3.016  0.00  0.00    +0.013 C 
ATOM     19  C   UNL     1     -34.902  20.849   1.406  0.00  0.00    +0.080 C 
ATOM     20  C   UNL     1     -38.260  22.914   1.742  0.00  0.00    +0.080 C 
ATOM     21  C   UNL     1     -35.272  21.361   2.742  0.00  0.00    +0.341 C 
ATOM     22  C   UNL     1     -39.254  21.868   1.432  0.00  0.00    +0.341 C 
ENDROOT
BRANCH   8  23
ATOM     23  O   UNL     1     -33.672  18.029  -0.003  0.00  0.00    -0.377 OA
ATOM     24  H   UNL     1     -33.165  18.301   0.779  0.00  0.00    +0.211 HD
ENDBRANCH   8  23
BRANCH  12  25
ATOM     25  O   UNL     1     -37.405  25.007   4.440  0.00  0.00    -0.377 OA
ATOM     26  H   UNL     1     -38.369  25.079   4.348  0.00  0.00    +0.211 HD
ENDBRANCH  12  25
TORSDOF 2
ENDMDL
MODEL 8
REMARK VINA RESULT:      -5.9      1.617      6.109
REMARK  Name = 58599709
REMARK  2 active torsions:
REMARK  status: ('A' for Active; 'I' for Inactive)
REMARK    1  A    between atoms: C_8  and  O_23
REMARK    2  A    between atoms: C_12  and  O_25
REMARK                            x       y       z     vdW  Elec       q    Type
REMARK                         _______ _______ _______ _____ _____    ______ ____
ROOT
ATOM      1  O   UNL     1     -35.481  23.609   3.230  0.00  0.00    -0.449 OA
ATOM      2  O   UNL     1     -39.988  26.169   1.236  0.00  0.00    -0.446 OA
ATOM      3  O   UNL     1     -37.557  21.915   1.169  0.00  0.00    -0.449 OA
ATOM      4  O   UNL     1     -35.610  21.763   4.612  0.00  0.00    -0.250 OA
ATOM      5  O   UNL     1     -40.347  25.365   3.375  0.00  0.00    -0.245 OA
ATOM      6  O   UNL     1     -39.607  21.049   1.804  0.00  0.00    -0.245 OA
ATOM      7  C   UNL     1     -35.408  24.512   4.360  0.00  0.00    +0.200 C 
ATOM      8  C   UNL     1     -36.058  25.850   3.959  0.00  0.00    +0.173 C 
ATOM      9  C   UNL     1     -36.819  20.886   1.863  0.00  0.00    +0.180 C 
ATOM     10  C   UNL     1     -41.326  25.831   0.795  0.00  0.00    +0.200 C 
ATOM     11  C   UNL     1     -35.454  21.469   2.225  0.00  0.00    +0.153 C 
ATOM     12  C   UNL     1     -41.228  24.622  -0.156  0.00  0.00    +0.173 C 
ATOM     13  C   UNL     1     -33.934  24.676   4.730  0.00  0.00    +0.050 C 
ATOM     14  C   UNL     1     -35.528  22.273   3.502  0.00  0.00    +0.321 C 
ATOM     15  C   UNL     1     -37.541  25.695   3.752  0.00  0.00    +0.013 C 
ATOM     16  C   UNL     1     -36.665  19.693   0.926  0.00  0.00    +0.048 C 
ATOM     17  C   UNL     1     -41.885  27.069   0.103  0.00  0.00    +0.050 C 
ATOM     18  C   UNL     1     -40.687  23.410   0.557  0.00  0.00    +0.013 C 
ATOM     19  C   UNL     1     -38.170  26.040   2.621  0.00  0.00    +0.080 C 
ATOM     20  C   UNL     1     -39.418  22.999   0.419  0.00  0.00    +0.080 C 
ATOM     21  C   UNL     1     -39.627  25.821   2.500  0.00  0.00    +0.341 C 
ATOM     22  C   UNL     1     -38.915  21.863   1.215  0.00  0.00    +0.341 C 
ENDROOT
BRANCH   8  23
ATOM     23  O   UNL     1     -35.888  26.811   4.997  0.00  0.00    -0.377 OA
ATOM     24  H   UNL     1     -36.597  26.708   5.653  0.00  0.00    +0.211 HD
ENDBRANCH   8  23
BRANCH  12  25
ATOM     25  O   UNL     1     -42.513  24.279  -0.665  0.00  0.00    -0.377 OA
ATOM     26  H   UNL     1     -42.867  25.024  -1.177  0.00  0.00    +0.211 HD
ENDBRANCH  12  25
TORSDOF 2
ENDMDL
MODEL 9
REMARK VINA RESULT:      -5.8      2.214      2.439
REMARK  Name = 58599709
REMARK  2 active torsions:
REMARK  status: ('A' for Active; 'I' for Inactive)
REMARK    1  A    between atoms: C_8  and  O_23
REMARK    2  A    between atoms: C_12  and  O_25
REMARK                            x       y       z     vdW  Elec       q    Type
REMARK                         _______ _______ _______ _____ _____    ______ ____
ROOT
ATOM      1  O   UNL     1     -36.900  21.659  -0.355  0.00  0.00    -0.449 OA
ATOM      2  O   UNL     1     -35.102  24.680   3.943  0.00  0.00    -0.446 OA
ATOM      3  O   UNL     1     -36.550  24.999  -0.727  0.00  0.00    -0.449 OA
ATOM      4  O   UNL     1     -38.998  21.939  -1.279  0.00  0.00    -0.250 OA
ATOM      5  O   UNL     1     -37.368  24.246   4.102  0.00  0.00    -0.245 OA
ATOM      6  O   UNL     1     -38.022  26.569   0.125  0.00  0.00    -0.245 OA
ATOM      7  C   UNL     1     -37.372  20.605   0.520  0.00  0.00    +0.200 C 
ATOM      8  C   UNL     1     -36.538  20.634   1.814  0.00  0.00    +0.173 C 
ATOM      9  C   UNL     1     -37.453  24.612  -1.785  0.00  0.00    +0.180 C 
ATOM     10  C   UNL     1     -35.239  26.026   4.460  0.00  0.00    +0.200 C 
ATOM     11  C   UNL     1     -37.122  23.168  -2.161  0.00  0.00    +0.153 C 
ATOM     12  C   UNL     1     -35.024  27.013   3.296  0.00  0.00    +0.173 C 
ATOM     13  C   UNL     1     -37.228  19.280  -0.229  0.00  0.00    +0.050 C 
ATOM     14  C   UNL     1     -37.802  22.195  -1.228  0.00  0.00    +0.321 C 
ATOM     15  C   UNL     1     -36.814  21.880   2.613  0.00  0.00    +0.013 C 
ATOM     16  C   UNL     1     -37.228  25.544  -2.972  0.00  0.00    +0.048 C 
ATOM     17  C   UNL     1     -34.189  26.185   5.555  0.00  0.00    +0.050 C 
ATOM     18  C   UNL     1     -36.083  26.845   2.237  0.00  0.00    +0.013 C 
ATOM     19  C   UNL     1     -35.861  22.736   3.002  0.00  0.00    +0.080 C 
ATOM     20  C   UNL     1     -35.855  26.198   1.086  0.00  0.00    +0.080 C 
ATOM     21  C   UNL     1     -36.234  23.950   3.758  0.00  0.00    +0.341 C 
ATOM     22  C   UNL     1     -36.954  25.979   0.125  0.00  0.00    +0.341 C 
ENDROOT
BRANCH   8  23
ATOM     23  O   UNL     1     -36.880  19.530   2.647  0.00  0.00    -0.377 OA
ATOM     24  H   UNL     1     -37.491  18.943   2.172  0.00  0.00    +0.211 HD
ENDBRANCH   8  23
BRANCH  12  25
ATOM     25  O   UNL     1     -35.094  28.358   3.758  0.00  0.00    -0.377 OA
ATOM     26  H   UNL     1     -34.777  28.956   3.062  0.00  0.00    +0.211 HD
ENDBRANCH  12  25
TORSDOF 2
ENDMDL
