MODEL 1
REMARK VINA RESULT:      -6.5      0.000      0.000
REMARK  Name = 5281294
REMARK  8 active torsions:
REMARK  status: ('A' for Active; 'I' for Inactive)
REMARK    1  A    between atoms: C_2  and  C_3
REMARK    2  A    between atoms: C_2  and  C_16
REMARK    3  A    between atoms: C_4  and  O_9
REMARK    4  A    between atoms: C_6  and  O_11
REMARK    5  A    between atoms: C_7  and  O_13
REMARK    6  A    between atoms: C_15  and  C_17
REMARK    7  A    between atoms: C_20  and  O_23
REMARK    8  A    between atoms: C_21  and  O_25
REMARK                            x       y       z     vdW  Elec       q    Type
REMARK                         _______ _______ _______ _____ _____    ______ ____
ROOT
ATOM      1  O   UNL     1     -37.620  21.279   2.178  0.00  0.00    -0.286 OA
ATOM      2  C   UNL     1     -36.562  21.688   2.643  0.00  0.00    +0.199 C 
ENDROOT
BRANCH   2   3
ATOM      3  C   UNL     1     -36.541  22.947   3.427  0.00  0.00    +0.076 C 
ATOM      4  C   UNL     1     -37.357  24.000   3.061  0.00  0.00    +0.174 C 
ATOM      5  C   UNL     1     -35.692  23.024   4.514  0.00  0.00    +0.010 C 
ATOM      6  C   UNL     1     -37.323  25.175   3.812  0.00  0.00    +0.202 C 
ATOM      7  C   UNL     1     -36.474  25.275   4.913  0.00  0.00    +0.171 C 
ATOM      8  C   UNL     1     -35.658  24.200   5.265  0.00  0.00    +0.040 C 
BRANCH   4   9
ATOM      9  O   UNL     1     -38.190  23.909   1.984  0.00  0.00    -0.503 OA
ATOM     10  H   UNL     1     -38.305  24.647   1.418  0.00  0.00    +0.292 HD
ENDBRANCH   4   9
BRANCH   6  11
ATOM     11  O   UNL     1     -38.120  26.228   3.470  0.00  0.00    -0.501 OA
ATOM     12  H   UNL     1     -38.524  26.256   2.625  0.00  0.00    +0.292 HD
ENDBRANCH   6  11
BRANCH   7  13
ATOM     13  O   UNL     1     -36.430  26.417   5.655  0.00  0.00    -0.503 OA
ATOM     14  H   UNL     1     -36.962  27.151   5.417  0.00  0.00    +0.292 HD
ENDBRANCH   7  13
ENDBRANCH   2   3
BRANCH   2  16
ATOM     15  C   UNL     1     -34.748  20.762   1.254  0.00  0.00    +0.003 C 
ATOM     16  C   UNL     1     -35.277  20.952   2.483  0.00  0.00    +0.042 C 
BRANCH  15  17
ATOM     17  C   UNL     1     -33.512  20.047   0.975  0.00  0.00    +0.003 C 
ATOM     18  C   UNL     1     -32.525  20.642   0.188  0.00  0.00    +0.040 C 
ATOM     19  C   UNL     1     -33.314  18.768   1.493  0.00  0.00    +0.003 C 
ATOM     20  C   UNL     1     -31.339  19.957  -0.079  0.00  0.00    +0.167 C 
ATOM     21  C   UNL     1     -31.141  18.677   0.439  0.00  0.00    +0.167 C 
ATOM     22  C   UNL     1     -32.128  18.082   1.225  0.00  0.00    +0.040 C 
BRANCH  20  23
ATOM     23  O   UNL     1     -30.383  20.547  -0.849  0.00  0.00    -0.503 OA
ATOM     24  H   UNL     1     -30.484  20.577  -1.781  0.00  0.00    +0.292 HD
ENDBRANCH  20  23
BRANCH  21  25
ATOM     25  O   UNL     1     -29.987  18.000   0.186  0.00  0.00    -0.503 OA
ATOM     26  H   UNL     1     -29.872  17.130   0.517  0.00  0.00    +0.292 HD
ENDBRANCH  21  25
ENDBRANCH  15  17
ENDBRANCH   2  16
TORSDOF 8
ENDMDL
MODEL 2
REMARK VINA RESULT:      -6.5      0.630      1.468
REMARK  Name = 5281294
REMARK  8 active torsions:
REMARK  status: ('A' for Active; 'I' for Inactive)
REMARK    1  A    between atoms: C_2  and  C_3
REMARK    2  A    between atoms: C_2  and  C_16
REMARK    3  A    between atoms: C_4  and  O_9
REMARK    4  A    between atoms: C_6  and  O_11
REMARK    5  A    between atoms: C_7  and  O_13
REMARK    6  A    between atoms: C_15  and  C_17
REMARK    7  A    between atoms: C_20  and  O_23
REMARK    8  A    between atoms: C_21  and  O_25
REMARK                            x       y       z     vdW  Elec       q    Type
REMARK                         _______ _______ _______ _____ _____    ______ ____
ROOT
ATOM      1  O   UNL     1     -37.415  21.248   2.263  0.00  0.00    -0.286 OA
ATOM      2  C   UNL     1     -36.404  21.929   2.399  0.00  0.00    +0.199 C 
ENDROOT
BRANCH   2   3
ATOM      3  C   UNL     1     -36.450  23.150   3.240  0.00  0.00    +0.076 C 
ATOM      4  C   UNL     1     -37.345  24.159   2.942  0.00  0.00    +0.174 C 
ATOM      5  C   UNL     1     -35.581  23.238   4.310  0.00  0.00    +0.010 C 
ATOM      6  C   UNL     1     -37.373  25.300   3.746  0.00  0.00    +0.202 C 
ATOM      7  C   UNL     1     -36.505  25.409   4.831  0.00  0.00    +0.171 C 
ATOM      8  C   UNL     1     -35.608  24.378   5.114  0.00  0.00    +0.040 C 
BRANCH   4   9
ATOM      9  O   UNL     1     -38.197  24.059   1.881  0.00  0.00    -0.503 OA
ATOM     10  H   UNL     1     -38.159  23.311   1.319  0.00  0.00    +0.292 HD
ENDBRANCH   4   9
BRANCH   6  11
ATOM     11  O   UNL     1     -38.249  26.309   3.471  0.00  0.00    -0.501 OA
ATOM     12  H   UNL     1     -38.239  26.722   2.630  0.00  0.00    +0.292 HD
ENDBRANCH   6  11
BRANCH   7  13
ATOM     13  O   UNL     1     -36.520  26.517   5.623  0.00  0.00    -0.503 OA
ATOM     14  H   UNL     1     -36.145  26.484   6.481  0.00  0.00    +0.292 HD
ENDBRANCH   7  13
ENDBRANCH   2   3
BRANCH   2  16
ATOM     15  C   UNL     1     -34.746  20.269   1.643  0.00  0.00    +0.003 C 
ATOM     16  C   UNL     1     -35.101  21.567   1.777  0.00  0.00    +0.042 C 
BRANCH  15  17
ATOM     17  C   UNL     1     -33.496  19.797   1.067  0.00  0.00    +0.003 C 
ATOM     18  C   UNL     1     -33.084  18.481   1.280  0.00  0.00    +0.040 C 
ATOM     19  C   UNL     1     -32.710  20.660   0.305  0.00  0.00    +0.003 C 
ATOM     20  C   UNL     1     -31.886  18.028   0.728  0.00  0.00    +0.167 C 
ATOM     21  C   UNL     1     -31.099  18.891  -0.036  0.00  0.00    +0.167 C 
ATOM     22  C   UNL     1     -31.511  20.207  -0.247  0.00  0.00    +0.040 C 
BRANCH  20  23
ATOM     23  O   UNL     1     -31.493  16.742   0.941  0.00  0.00    -0.503 OA
ATOM     24  H   UNL     1     -30.717  16.566   1.439  0.00  0.00    +0.292 HD
ENDBRANCH  20  23
BRANCH  21  25
ATOM     25  O   UNL     1     -29.928  18.460  -0.581  0.00  0.00    -0.503 OA
ATOM     26  H   UNL     1     -29.120  18.870  -0.341  0.00  0.00    +0.292 HD
ENDBRANCH  21  25
ENDBRANCH  15  17
ENDBRANCH   2  16
TORSDOF 8
ENDMDL
MODEL 3
REMARK VINA RESULT:      -6.3      2.283      3.160
REMARK  Name = 5281294
REMARK  8 active torsions:
REMARK  status: ('A' for Active; 'I' for Inactive)
REMARK    1  A    between atoms: C_2  and  C_3
REMARK    2  A    between atoms: C_2  and  C_16
REMARK    3  A    between atoms: C_4  and  O_9
REMARK    4  A    between atoms: C_6  and  O_11
REMARK    5  A    between atoms: C_7  and  O_13
REMARK    6  A    between atoms: C_15  and  C_17
REMARK    7  A    between atoms: C_20  and  O_23
REMARK    8  A    between atoms: C_21  and  O_25
REMARK                            x       y       z     vdW  Elec       q    Type
REMARK                         _______ _______ _______ _____ _____    ______ ____
ROOT
ATOM      1  O   UNL     1     -36.001  22.199   6.302  0.00  0.00    -0.286 OA
ATOM      2  C   UNL     1     -35.582  22.483   5.186  0.00  0.00    +0.199 C 
ENDROOT
BRANCH   2   3
ATOM      3  C   UNL     1     -35.464  23.906   4.785  0.00  0.00    +0.076 C 
ATOM      4  C   UNL     1     -36.541  24.553   4.212  0.00  0.00    +0.174 C 
ATOM      5  C   UNL     1     -34.259  24.546   5.004  0.00  0.00    +0.010 C 
ATOM      6  C   UNL     1     -36.410  25.893   3.844  0.00  0.00    +0.202 C 
ATOM      7  C   UNL     1     -35.203  26.558   4.055  0.00  0.00    +0.171 C 
ATOM      8  C   UNL     1     -34.127  25.886   4.634  0.00  0.00    +0.040 C 
BRANCH   4   9
ATOM      9  O   UNL     1     -37.725  23.908   4.003  0.00  0.00    -0.503 OA
ATOM     10  H   UNL     1     -38.381  23.904   4.672  0.00  0.00    +0.292 HD
ENDBRANCH   4   9
BRANCH   6  11
ATOM     11  O   UNL     1     -37.460  26.552   3.277  0.00  0.00    -0.501 OA
ATOM     12  H   UNL     1     -37.305  27.230   2.649  0.00  0.00    +0.292 HD
ENDBRANCH   6  11
BRANCH   7  13
ATOM     13  O   UNL     1     -35.060  27.865   3.699  0.00  0.00    -0.503 OA
ATOM     14  H   UNL     1     -34.437  28.107   3.042  0.00  0.00    +0.292 HD
ENDBRANCH   7  13
ENDBRANCH   2   3
BRANCH   2  16
ATOM     15  C   UNL     1     -35.802  21.310   3.029  0.00  0.00    +0.003 C 
ATOM     16  C   UNL     1     -35.149  21.450   4.204  0.00  0.00    +0.042 C 
BRANCH  15  17
ATOM     17  C   UNL     1     -35.480  20.329   2.003  0.00  0.00    +0.003 C 
ATOM     18  C   UNL     1     -36.477  19.867   1.143  0.00  0.00    +0.040 C 
ATOM     19  C   UNL     1     -34.176  19.851   1.881  0.00  0.00    +0.003 C 
ATOM     20  C   UNL     1     -36.169  18.927   0.160  0.00  0.00    +0.167 C 
ATOM     21  C   UNL     1     -34.864  18.448   0.037  0.00  0.00    +0.167 C 
ATOM     22  C   UNL     1     -33.868  18.910   0.897  0.00  0.00    +0.040 C 
BRANCH  20  23
ATOM     23  O   UNL     1     -37.149  18.482  -0.675  0.00  0.00    -0.503 OA
ATOM     24  H   UNL     1     -37.649  17.722  -0.446  0.00  0.00    +0.292 HD
ENDBRANCH  20  23
BRANCH  21  25
ATOM     25  O   UNL     1     -34.551  17.532  -0.920  0.00  0.00    -0.503 OA
ATOM     26  H   UNL     1     -34.575  17.772  -1.826  0.00  0.00    +0.292 HD
ENDBRANCH  21  25
ENDBRANCH  15  17
ENDBRANCH   2  16
TORSDOF 8
ENDMDL
MODEL 4
REMARK VINA RESULT:      -6.2      1.688      2.282
REMARK  Name = 5281294
REMARK  8 active torsions:
REMARK  status: ('A' for Active; 'I' for Inactive)
REMARK    1  A    between atoms: C_2  and  C_3
REMARK    2  A    between atoms: C_2  and  C_16
REMARK    3  A    between atoms: C_4  and  O_9
REMARK    4  A    between atoms: C_6  and  O_11
REMARK    5  A    between atoms: C_7  and  O_13
REMARK    6  A    between atoms: C_15  and  C_17
REMARK    7  A    between atoms: C_20  and  O_23
REMARK    8  A    between atoms: C_21  and  O_25
REMARK                            x       y       z     vdW  Elec       q    Type
REMARK                         _______ _______ _______ _____ _____    ______ ____
ROOT
ATOM      1  O   UNL     1     -38.087  22.808   2.623  0.00  0.00    -0.286 OA
ATOM      2  C   UNL     1     -36.951  22.545   3.002  0.00  0.00    +0.199 C 
ENDROOT
BRANCH   2   3
ATOM      3  C   UNL     1     -36.205  23.529   3.824  0.00  0.00    +0.076 C 
ATOM      4  C   UNL     1     -36.849  24.649   4.311  0.00  0.00    +0.174 C 
ATOM      5  C   UNL     1     -34.869  23.285   4.080  0.00  0.00    +0.010 C 
ATOM      6  C   UNL     1     -36.130  25.562   5.085  0.00  0.00    +0.202 C 
ATOM      7  C   UNL     1     -34.781  25.336   5.354  0.00  0.00    +0.171 C 
ATOM      8  C   UNL     1     -34.150  24.198   4.852  0.00  0.00    +0.040 C 
BRANCH   4   9
ATOM      9  O   UNL     1     -38.169  24.877   4.051  0.00  0.00    -0.503 OA
ATOM     10  H   UNL     1     -38.477  25.752   3.923  0.00  0.00    +0.292 HD
ENDBRANCH   4   9
BRANCH   6  11
ATOM     11  O   UNL     1     -36.745  26.675   5.577  0.00  0.00    -0.501 OA
ATOM     12  H   UNL     1     -36.271  27.269   6.124  0.00  0.00    +0.292 HD
ENDBRANCH   6  11
BRANCH   7  13
ATOM     13  O   UNL     1     -34.066  26.219   6.106  0.00  0.00    -0.503 OA
ATOM     14  H   UNL     1     -33.614  26.928   5.693  0.00  0.00    +0.292 HD
ENDBRANCH   7  13
ENDBRANCH   2   3
BRANCH   2  16
ATOM     15  C   UNL     1     -35.758  21.024   1.472  0.00  0.00    +0.003 C 
ATOM     16  C   UNL     1     -36.282  21.250   2.698  0.00  0.00    +0.042 C 
BRANCH  15  17
ATOM     17  C   UNL     1     -35.098  19.795   1.057  0.00  0.00    +0.003 C 
ATOM     18  C   UNL     1     -33.865  19.445   1.609  0.00  0.00    +0.040 C 
ATOM     19  C   UNL     1     -35.697  18.969   0.107  0.00  0.00    +0.003 C 
ATOM     20  C   UNL     1     -33.233  18.268   1.212  0.00  0.00    +0.167 C 
ATOM     21  C   UNL     1     -33.831  17.440   0.261  0.00  0.00    +0.167 C 
ATOM     22  C   UNL     1     -35.063  17.791  -0.291  0.00  0.00    +0.040 C 
BRANCH  20  23
ATOM     23  O   UNL     1     -32.029  17.935   1.757  0.00  0.00    -0.503 OA
ATOM     24  H   UNL     1     -31.322  17.669   1.202  0.00  0.00    +0.292 HD
ENDBRANCH  20  23
BRANCH  21  25
ATOM     25  O   UNL     1     -33.224  16.288  -0.134  0.00  0.00    -0.503 OA
ATOM     26  H   UNL     1     -32.326  16.299  -0.404  0.00  0.00    +0.292 HD
ENDBRANCH  21  25
ENDBRANCH  15  17
ENDBRANCH   2  16
TORSDOF 8
ENDMDL
MODEL 5
REMARK VINA RESULT:      -6.1      4.176      7.591
REMARK  Name = 5281294
REMARK  8 active torsions:
REMARK  status: ('A' for Active; 'I' for Inactive)
REMARK    1  A    between atoms: C_2  and  C_3
REMARK    2  A    between atoms: C_2  and  C_16
REMARK    3  A    between atoms: C_4  and  O_9
REMARK    4  A    between atoms: C_6  and  O_11
REMARK    5  A    between atoms: C_7  and  O_13
REMARK    6  A    between atoms: C_15  and  C_17
REMARK    7  A    between atoms: C_20  and  O_23
REMARK    8  A    between atoms: C_21  and  O_25
REMARK                            x       y       z     vdW  Elec       q    Type
REMARK                         _______ _______ _______ _____ _____    ______ ____
ROOT
ATOM      1  O   UNL     1     -36.643  25.744   2.748  0.00  0.00    -0.286 OA
ATOM      2  C   UNL     1     -35.835  25.564   3.652  0.00  0.00    +0.199 C 
ENDROOT
BRANCH   2   3
ATOM      3  C   UNL     1     -35.684  24.212   4.244  0.00  0.00    +0.076 C 
ATOM      4  C   UNL     1     -35.772  23.093   3.439  0.00  0.00    +0.174 C 
ATOM      5  C   UNL     1     -35.456  24.118   5.604  0.00  0.00    +0.010 C 
ATOM      6  C   UNL     1     -35.625  21.831   4.015  0.00  0.00    +0.202 C 
ATOM      7  C   UNL     1     -35.395  21.712   5.385  0.00  0.00    +0.171 C 
ATOM      8  C   UNL     1     -35.310  22.855   6.180  0.00  0.00    +0.040 C 
BRANCH   4   9
ATOM      9  O   UNL     1     -35.998  23.202   2.098  0.00  0.00    -0.503 OA
ATOM     10  H   UNL     1     -35.650  22.561   1.511  0.00  0.00    +0.292 HD
ENDBRANCH   4   9
BRANCH   6  11
ATOM     11  O   UNL     1     -35.708  20.712   3.240  0.00  0.00    -0.501 OA
ATOM     12  H   UNL     1     -36.413  20.615   2.630  0.00  0.00    +0.292 HD
ENDBRANCH   6  11
BRANCH   7  13
ATOM     13  O   UNL     1     -35.251  20.486   5.961  0.00  0.00    -0.503 OA
ATOM     14  H   UNL     1     -34.687  20.379   6.701  0.00  0.00    +0.292 HD
ENDBRANCH   7  13
ENDBRANCH   2   3
BRANCH   2  16
ATOM     15  C   UNL     1     -33.648  26.684   3.848  0.00  0.00    +0.003 C 
ATOM     16  C   UNL     1     -34.959  26.649   4.174  0.00  0.00    +0.042 C 
BRANCH  15  17
ATOM     17  C   UNL     1     -32.695  27.683   4.309  0.00  0.00    +0.003 C 
ATOM     18  C   UNL     1     -32.510  27.890   5.677  0.00  0.00    +0.040 C 
ATOM     19  C   UNL     1     -31.969  28.433   3.385  0.00  0.00    +0.003 C 
ATOM     20  C   UNL     1     -31.597  28.847   6.119  0.00  0.00    +0.167 C 
ATOM     21  C   UNL     1     -30.870  29.598   5.195  0.00  0.00    +0.167 C 
ATOM     22  C   UNL     1     -31.056  29.391   3.828  0.00  0.00    +0.040 C 
BRANCH  20  23
ATOM     23  O   UNL     1     -31.425  29.042   7.456  0.00  0.00    -0.503 OA
ATOM     24  H   UNL     1     -30.801  29.673   7.760  0.00  0.00    +0.292 HD
ENDBRANCH  20  23
BRANCH  21  25
ATOM     25  O   UNL     1     -29.975  30.534   5.615  0.00  0.00    -0.503 OA
ATOM     26  H   UNL     1     -29.057  30.398   5.483  0.00  0.00    +0.292 HD
ENDBRANCH  21  25
ENDBRANCH  15  17
ENDBRANCH   2  16
TORSDOF 8
ENDMDL
MODEL 6
REMARK VINA RESULT:      -6.1      3.585      7.193
REMARK  Name = 5281294
REMARK  8 active torsions:
REMARK  status: ('A' for Active; 'I' for Inactive)
REMARK    1  A    between atoms: C_2  and  C_3
REMARK    2  A    between atoms: C_2  and  C_16
REMARK    3  A    between atoms: C_4  and  O_9
REMARK    4  A    between atoms: C_6  and  O_11
REMARK    5  A    between atoms: C_7  and  O_13
REMARK    6  A    between atoms: C_15  and  C_17
REMARK    7  A    between atoms: C_20  and  O_23
REMARK    8  A    between atoms: C_21  and  O_25
REMARK                            x       y       z     vdW  Elec       q    Type
REMARK                         _______ _______ _______ _____ _____    ______ ____
ROOT
ATOM      1  O   UNL     1     -35.772  22.769   6.215  0.00  0.00    -0.286 OA
ATOM      2  C   UNL     1     -35.433  23.076   5.078  0.00  0.00    +0.199 C 
ENDROOT
BRANCH   2   3
ATOM      3  C   UNL     1     -36.007  22.350   3.919  0.00  0.00    +0.076 C 
ATOM      4  C   UNL     1     -37.164  22.811   3.321  0.00  0.00    +0.174 C 
ATOM      5  C   UNL     1     -35.354  21.218   3.470  0.00  0.00    +0.010 C 
ATOM      6  C   UNL     1     -37.687  22.114   2.231  0.00  0.00    +0.202 C 
ATOM      7  C   UNL     1     -37.044  20.970   1.762  0.00  0.00    +0.171 C 
ATOM      8  C   UNL     1     -35.877  20.521   2.380  0.00  0.00    +0.040 C 
BRANCH   4   9
ATOM      9  O   UNL     1     -37.798  23.930   3.776  0.00  0.00    -0.503 OA
ATOM     10  H   UNL     1     -38.115  24.568   3.168  0.00  0.00    +0.292 HD
ENDBRANCH   4   9
BRANCH   6  11
ATOM     11  O   UNL     1     -38.828  22.551   1.624  0.00  0.00    -0.501 OA
ATOM     12  H   UNL     1     -39.583  22.756   2.139  0.00  0.00    +0.292 HD
ENDBRANCH   6  11
BRANCH   7  13
ATOM     13  O   UNL     1     -37.544  20.279   0.699  0.00  0.00    -0.503 OA
ATOM     14  H   UNL     1     -37.004  19.664   0.244  0.00  0.00    +0.292 HD
ENDBRANCH   7  13
ENDBRANCH   2   3
BRANCH   2  16
ATOM     15  C   UNL     1     -34.471  25.292   5.571  0.00  0.00    +0.003 C 
ATOM     16  C   UNL     1     -34.479  24.184   4.796  0.00  0.00    +0.042 C 
BRANCH  15  17
ATOM     17  C   UNL     1     -33.598  26.440   5.382  0.00  0.00    +0.003 C 
ATOM     18  C   UNL     1     -32.962  27.021   6.480  0.00  0.00    +0.040 C 
ATOM     19  C   UNL     1     -33.397  26.961   4.104  0.00  0.00    +0.003 C 
ATOM     20  C   UNL     1     -32.125  28.121   6.299  0.00  0.00    +0.167 C 
ATOM     21  C   UNL     1     -31.923  28.642   5.021  0.00  0.00    +0.167 C 
ATOM     22  C   UNL     1     -32.560  28.062   3.923  0.00  0.00    +0.040 C 
BRANCH  20  23
ATOM     23  O   UNL     1     -31.510  28.681   7.378  0.00  0.00    -0.503 OA
ATOM     24  H   UNL     1     -31.938  28.682   8.212  0.00  0.00    +0.292 HD
ENDBRANCH  20  23
BRANCH  21  25
ATOM     25  O   UNL     1     -31.108  29.716   4.832  0.00  0.00    -0.503 OA
ATOM     26  H   UNL     1     -30.356  29.642   4.276  0.00  0.00    +0.292 HD
ENDBRANCH  21  25
ENDBRANCH  15  17
ENDBRANCH   2  16
TORSDOF 8
ENDMDL
MODEL 7
REMARK VINA RESULT:      -6.1      1.615      2.646
REMARK  Name = 5281294
REMARK  8 active torsions:
REMARK  status: ('A' for Active; 'I' for Inactive)
REMARK    1  A    between atoms: C_2  and  C_3
REMARK    2  A    between atoms: C_2  and  C_16
REMARK    3  A    between atoms: C_4  and  O_9
REMARK    4  A    between atoms: C_6  and  O_11
REMARK    5  A    between atoms: C_7  and  O_13
REMARK    6  A    between atoms: C_15  and  C_17
REMARK    7  A    between atoms: C_20  and  O_23
REMARK    8  A    between atoms: C_21  and  O_25
REMARK                            x       y       z     vdW  Elec       q    Type
REMARK                         _______ _______ _______ _____ _____    ______ ____
ROOT
ATOM      1  O   UNL     1     -37.041  20.676   1.795  0.00  0.00    -0.286 OA
ATOM      2  C   UNL     1     -35.941  21.194   1.950  0.00  0.00    +0.199 C 
ENDROOT
BRANCH   2   3
ATOM      3  C   UNL     1     -35.778  22.291   2.935  0.00  0.00    +0.076 C 
ATOM      4  C   UNL     1     -35.572  21.996   4.268  0.00  0.00    +0.174 C 
ATOM      5  C   UNL     1     -35.839  23.593   2.476  0.00  0.00    +0.010 C 
ATOM      6  C   UNL     1     -35.419  23.042   5.178  0.00  0.00    +0.202 C 
ATOM      7  C   UNL     1     -35.478  24.364   4.737  0.00  0.00    +0.171 C 
ATOM      8  C   UNL     1     -35.688  24.640   3.387  0.00  0.00    +0.040 C 
BRANCH   4   9
ATOM      9  O   UNL     1     -35.514  20.705   4.707  0.00  0.00    -0.503 OA
ATOM     10  H   UNL     1     -35.076  20.503   5.510  0.00  0.00    +0.292 HD
ENDBRANCH   4   9
BRANCH   6  11
ATOM     11  O   UNL     1     -35.214  22.775   6.500  0.00  0.00    -0.501 OA
ATOM     12  H   UNL     1     -35.692  22.087   6.919  0.00  0.00    +0.292 HD
ENDBRANCH   6  11
BRANCH   7  13
ATOM     13  O   UNL     1     -35.332  25.395   5.615  0.00  0.00    -0.503 OA
ATOM     14  H   UNL     1     -34.512  25.846   5.677  0.00  0.00    +0.292 HD
ENDBRANCH   7  13
ENDBRANCH   2   3
BRANCH   2  16
ATOM     15  C   UNL     1     -34.047  19.653   1.614  0.00  0.00    +0.003 C 
ATOM     16  C   UNL     1     -34.730  20.746   1.208  0.00  0.00    +0.042 C 
BRANCH  15  17
ATOM     17  C   UNL     1     -32.845  19.132   0.979  0.00  0.00    +0.003 C 
ATOM     18  C   UNL     1     -32.587  17.761   0.996  0.00  0.00    +0.040 C 
ATOM     19  C   UNL     1     -31.953  20.003   0.356  0.00  0.00    +0.003 C 
ATOM     20  C   UNL     1     -31.436  17.261   0.387  0.00  0.00    +0.167 C 
ATOM     21  C   UNL     1     -30.542  18.132  -0.237  0.00  0.00    +0.167 C 
ATOM     22  C   UNL     1     -30.800  19.503  -0.252  0.00  0.00    +0.040 C 
BRANCH  20  23
ATOM     23  O   UNL     1     -31.193  15.921   0.409  0.00  0.00    -0.503 OA
ATOM     24  H   UNL     1     -30.366  15.590   0.114  0.00  0.00    +0.292 HD
ENDBRANCH  20  23
BRANCH  21  25
ATOM     25  O   UNL     1     -29.416  17.656  -0.836  0.00  0.00    -0.503 OA
ATOM     26  H   UNL     1     -29.467  17.257  -1.682  0.00  0.00    +0.292 HD
ENDBRANCH  21  25
ENDBRANCH  15  17
ENDBRANCH   2  16
TORSDOF 8
ENDMDL
MODEL 8
REMARK VINA RESULT:      -6.1      5.114      7.666
REMARK  Name = 5281294
REMARK  8 active torsions:
REMARK  status: ('A' for Active; 'I' for Inactive)
REMARK    1  A    between atoms: C_2  and  C_3
REMARK    2  A    between atoms: C_2  and  C_16
REMARK    3  A    between atoms: C_4  and  O_9
REMARK    4  A    between atoms: C_6  and  O_11
REMARK    5  A    between atoms: C_7  and  O_13
REMARK    6  A    between atoms: C_15  and  C_17
REMARK    7  A    between atoms: C_20  and  O_23
REMARK    8  A    between atoms: C_21  and  O_25
REMARK                            x       y       z     vdW  Elec       q    Type
REMARK                         _______ _______ _______ _____ _____    ______ ____
ROOT
ATOM      1  O   UNL     1     -33.665  29.176   4.094  0.00  0.00    -0.286 OA
ATOM      2  C   UNL     1     -32.968  28.167   4.081  0.00  0.00    +0.199 C 
ENDROOT
BRANCH   2   3
ATOM      3  C   UNL     1     -31.545  28.251   4.492  0.00  0.00    +0.076 C 
ATOM      4  C   UNL     1     -31.222  28.524   5.807  0.00  0.00    +0.174 C 
ATOM      5  C   UNL     1     -30.576  28.051   3.528  0.00  0.00    +0.010 C 
ATOM      6  C   UNL     1     -29.878  28.598   6.173  0.00  0.00    +0.202 C 
ATOM      7  C   UNL     1     -28.883  28.399   5.216  0.00  0.00    +0.171 C 
ATOM      8  C   UNL     1     -29.231  28.126   3.894  0.00  0.00    +0.040 C 
BRANCH   4   9
ATOM      9  O   UNL     1     -32.191  28.719   6.748  0.00  0.00    -0.503 OA
ATOM     10  H   UNL     1     -32.119  28.307   7.586  0.00  0.00    +0.292 HD
ENDBRANCH   4   9
BRANCH   6  11
ATOM     11  O   UNL     1     -29.535  28.865   7.466  0.00  0.00    -0.501 OA
ATOM     12  H   UNL     1     -28.866  28.362   7.887  0.00  0.00    +0.292 HD
ENDBRANCH   6  11
BRANCH   7  13
ATOM     13  O   UNL     1     -27.567  28.470   5.559  0.00  0.00    -0.503 OA
ATOM     14  H   UNL     1     -27.223  29.253   5.943  0.00  0.00    +0.292 HD
ENDBRANCH   7  13
ENDBRANCH   2   3
BRANCH   2  16
ATOM     15  C   UNL     1     -34.033  26.013   4.634  0.00  0.00    +0.003 C 
ATOM     16  C   UNL     1     -33.499  26.829   3.698  0.00  0.00    +0.042 C 
BRANCH  15  17
ATOM     17  C   UNL     1     -34.566  24.683   4.381  0.00  0.00    +0.003 C 
ATOM     18  C   UNL     1     -35.023  23.901   5.443  0.00  0.00    +0.040 C 
ATOM     19  C   UNL     1     -34.619  24.190   3.078  0.00  0.00    +0.003 C 
ATOM     20  C   UNL     1     -35.534  22.627   5.200  0.00  0.00    +0.167 C 
ATOM     21  C   UNL     1     -35.588  22.133   3.896  0.00  0.00    +0.167 C 
ATOM     22  C   UNL     1     -35.130  22.914   2.836  0.00  0.00    +0.040 C 
BRANCH  20  23
ATOM     23  O   UNL     1     -35.977  21.872   6.244  0.00  0.00    -0.503 OA
ATOM     24  H   UNL     1     -35.376  21.588   6.905  0.00  0.00    +0.292 HD
ENDBRANCH  20  23
BRANCH  21  25
ATOM     25  O   UNL     1     -36.086  20.891   3.647  0.00  0.00    -0.503 OA
ATOM     26  H   UNL     1     -35.918  20.188   4.245  0.00  0.00    +0.292 HD
ENDBRANCH  21  25
ENDBRANCH  15  17
ENDBRANCH   2  16
TORSDOF 8
ENDMDL
MODEL 9
REMARK VINA RESULT:      -6.0      1.368      7.815
REMARK  Name = 5281294
REMARK  8 active torsions:
REMARK  status: ('A' for Active; 'I' for Inactive)
REMARK    1  A    between atoms: C_2  and  C_3
REMARK    2  A    between atoms: C_2  and  C_16
REMARK    3  A    between atoms: C_4  and  O_9
REMARK    4  A    between atoms: C_6  and  O_11
REMARK    5  A    between atoms: C_7  and  O_13
REMARK    6  A    between atoms: C_15  and  C_17
REMARK    7  A    between atoms: C_20  and  O_23
REMARK    8  A    between atoms: C_21  and  O_25
REMARK                            x       y       z     vdW  Elec       q    Type
REMARK                         _______ _______ _______ _____ _____    ______ ____
ROOT
ATOM      1  O   UNL     1     -35.612  20.190   0.186  0.00  0.00    -0.286 OA
ATOM      2  C   UNL     1     -34.682  20.846   0.642  0.00  0.00    +0.199 C 
ENDROOT
BRANCH   2   3
ATOM      3  C   UNL     1     -33.286  20.401   0.409  0.00  0.00    +0.076 C 
ATOM      4  C   UNL     1     -32.855  19.190   0.916  0.00  0.00    +0.174 C 
ATOM      5  C   UNL     1     -32.452  21.228  -0.318  0.00  0.00    +0.010 C 
ATOM      6  C   UNL     1     -31.539  18.790   0.685  0.00  0.00    +0.202 C 
ATOM      7  C   UNL     1     -30.679  19.608  -0.046  0.00  0.00    +0.171 C 
ATOM      8  C   UNL     1     -31.135  20.827  -0.549  0.00  0.00    +0.040 C 
BRANCH   4   9
ATOM      9  O   UNL     1     -33.691  18.385   1.633  0.00  0.00    -0.503 OA
ATOM     10  H   UNL     1     -33.790  17.484   1.396  0.00  0.00    +0.292 HD
ENDBRANCH   4   9
BRANCH   6  11
ATOM     11  O   UNL     1     -31.091  17.598   1.175  0.00  0.00    -0.501 OA
ATOM     12  H   UNL     1     -30.879  17.515   2.083  0.00  0.00    +0.292 HD
ENDBRANCH   6  11
BRANCH   7  13
ATOM     13  O   UNL     1     -29.391  19.230  -0.279  0.00  0.00    -0.503 OA
ATOM     14  H   UNL     1     -28.708  19.872  -0.283  0.00  0.00    +0.292 HD
ENDBRANCH   7  13
ENDBRANCH   2   3
BRANCH   2  16
ATOM     15  C   UNL     1     -35.478  22.081   2.621  0.00  0.00    +0.003 C 
ATOM     16  C   UNL     1     -34.888  22.108   1.405  0.00  0.00    +0.042 C 
BRANCH  15  17
ATOM     17  C   UNL     1     -35.745  23.247   3.450  0.00  0.00    +0.003 C 
ATOM     18  C   UNL     1     -36.787  24.113   3.118  0.00  0.00    +0.040 C 
ATOM     19  C   UNL     1     -34.958  23.500   4.573  0.00  0.00    +0.003 C 
ATOM     20  C   UNL     1     -37.043  25.231   3.912  0.00  0.00    +0.167 C 
ATOM     21  C   UNL     1     -36.257  25.484   5.036  0.00  0.00    +0.167 C 
ATOM     22  C   UNL     1     -35.214  24.619   5.366  0.00  0.00    +0.040 C 
BRANCH  20  23
ATOM     23  O   UNL     1     -38.064  26.071   3.579  0.00  0.00    -0.503 OA
ATOM     24  H   UNL     1     -38.434  26.637   4.228  0.00  0.00    +0.292 HD
ENDBRANCH  20  23
BRANCH  21  25
ATOM     25  O   UNL     1     -36.498  26.572   5.819  0.00  0.00    -0.503 OA
ATOM     26  H   UNL     1     -37.076  27.247   5.520  0.00  0.00    +0.292 HD
ENDBRANCH  21  25
ENDBRANCH  15  17
ENDBRANCH   2  16
TORSDOF 8
ENDMDL
