MODEL 1
REMARK VINA RESULT:      -5.9      0.000      0.000
REMARK  Name = 5351
REMARK  10 active torsions:
REMARK  status: ('A' for Active; 'I' for Inactive)
REMARK    1  A    between atoms: S_1  and  C_4
REMARK    2  A    between atoms: S_1  and  C_17
REMARK    3  A    between atoms: C_7  and  N_10
REMARK    4  A    between atoms: N_10  and  C_12
REMARK    5  A    between atoms: C_12  and  S_13
REMARK    6  A    between atoms: S_13  and  O_15
REMARK    7  A    between atoms: C_20  and  N_23
REMARK    8  A    between atoms: N_23  and  C_25
REMARK    9  A    between atoms: C_25  and  S_26
REMARK   10  A    between atoms: S_26  and  O_28
REMARK                            x       y       z     vdW  Elec       q    Type
REMARK                         _______ _______ _______ _____ _____    ______ ____
ROOT
ATOM      1  S   UNL     1     -36.352  23.197   3.953  0.00  0.00    +0.027 S 
ATOM      2  O   UNL     1     -36.254  22.531   5.244  0.00  0.00    -0.164 OA
ATOM      3  O   UNL     1     -37.663  23.467   3.376  0.00  0.00    -0.164 OA
ENDROOT
BRANCH   1   4
ATOM      4  C   UNL     1     -35.524  22.185   2.757  0.00  0.00    +0.110 C 
ATOM      5  C   UNL     1     -34.900  22.790   1.682  0.00  0.00    +0.020 C 
ATOM      6  C   UNL     1     -35.521  20.813   2.925  0.00  0.00    +0.020 C 
ATOM      7  C   UNL     1     -34.233  20.607   0.891  0.00  0.00    +0.046 C 
ATOM      8  C   UNL     1     -34.249  21.994   0.741  0.00  0.00    +0.016 C 
ATOM      9  C   UNL     1     -34.870  20.017   1.984  0.00  0.00    +0.016 C 
BRANCH   7  10
ATOM     10  N   UNL     1     -33.574  19.802  -0.060  0.00  0.00    -0.314 N 
ATOM     11  H   UNL     1     -34.071  19.503  -0.856  0.00  0.00    +0.148 HD
BRANCH  10  12
ATOM     12  C   UNL     1     -32.206  19.403   0.089  0.00  0.00    +0.235 C 
BRANCH  12  13
ATOM     13  S   UNL     1     -32.216  17.599   0.309  0.00  0.00    -0.033 S 
ATOM     14  O   UNL     1     -33.645  17.143   0.319  0.00  0.00    -0.079 OA
BRANCH  13  15
ATOM     15  O   UNL     1     -31.728  17.698   1.840  0.00  0.00    -0.277 OA
ATOM     16  H   UNL     1     -31.651  18.630   2.095  0.00  0.00    +0.242 HD
ENDBRANCH  13  15
ENDBRANCH  12  13
ENDBRANCH  10  12
ENDBRANCH   7  10
ENDBRANCH   1   4
BRANCH   1  17
ATOM     17  C   UNL     1     -35.477  24.700   4.108  0.00  0.00    +0.110 C 
ATOM     18  C   UNL     1     -35.829  25.796   3.320  0.00  0.00    +0.020 C 
ATOM     19  C   UNL     1     -34.427  24.805   5.020  0.00  0.00    +0.020 C 
ATOM     20  C   UNL     1     -34.079  27.102   4.356  0.00  0.00    +0.046 C 
ATOM     21  C   UNL     1     -35.129  26.998   3.444  0.00  0.00    +0.016 C 
ATOM     22  C   UNL     1     -33.728  26.006   5.143  0.00  0.00    +0.016 C 
BRANCH  20  23
ATOM     23  N   UNL     1     -33.372  28.317   4.483  0.00  0.00    -0.314 N 
ATOM     24  H   UNL     1     -33.875  29.162   4.470  0.00  0.00    +0.148 HD
BRANCH  23  25
ATOM     25  C   UNL     1     -31.948  28.361   4.632  0.00  0.00    +0.235 C 
BRANCH  25  26
ATOM     26  S   UNL     1     -31.626  28.883   6.343  0.00  0.00    -0.033 S 
ATOM     27  O   UNL     1     -30.536  29.914   6.314  0.00  0.00    -0.079 OA
BRANCH  26  28
ATOM     28  O   UNL     1     -30.951  27.476   6.735  0.00  0.00    -0.277 OA
ATOM     29  H   UNL     1     -30.230  27.628   7.367  0.00  0.00    +0.242 HD
ENDBRANCH  26  28
ENDBRANCH  25  26
ENDBRANCH  23  25
ENDBRANCH  20  23
ENDBRANCH   1  17
TORSDOF 10
ENDMDL
MODEL 2
REMARK VINA RESULT:      -5.9      4.010      7.986
REMARK  Name = 5351
REMARK  10 active torsions:
REMARK  status: ('A' for Active; 'I' for Inactive)
REMARK    1  A    between atoms: S_1  and  C_4
REMARK    2  A    between atoms: S_1  and  C_17
REMARK    3  A    between atoms: C_7  and  N_10
REMARK    4  A    between atoms: N_10  and  C_12
REMARK    5  A    between atoms: C_12  and  S_13
REMARK    6  A    between atoms: S_13  and  O_15
REMARK    7  A    between atoms: C_20  and  N_23
REMARK    8  A    between atoms: N_23  and  C_25
REMARK    9  A    between atoms: C_25  and  S_26
REMARK   10  A    between atoms: S_26  and  O_28
REMARK                            x       y       z     vdW  Elec       q    Type
REMARK                         _______ _______ _______ _____ _____    ______ ____
ROOT
ATOM      1  S   UNL     1     -35.886  23.349   3.824  0.00  0.00    +0.027 S 
ATOM      2  O   UNL     1     -36.143  22.618   5.056  0.00  0.00    -0.164 OA
ATOM      3  O   UNL     1     -35.182  22.695   2.728  0.00  0.00    -0.164 OA
ENDROOT
BRANCH   1   4
ATOM      4  C   UNL     1     -34.894  24.761   4.229  0.00  0.00    +0.110 C 
ATOM      5  C   UNL     1     -34.228  25.427   3.217  0.00  0.00    +0.020 C 
ATOM      6  C   UNL     1     -34.807  25.164   5.548  0.00  0.00    +0.020 C 
ATOM      7  C   UNL     1     -33.346  26.961   4.862  0.00  0.00    +0.046 C 
ATOM      8  C   UNL     1     -33.447  26.537   3.536  0.00  0.00    +0.016 C 
ATOM      9  C   UNL     1     -34.026  26.274   5.867  0.00  0.00    +0.016 C 
BRANCH   7  10
ATOM     10  N   UNL     1     -32.558  28.085   5.184  0.00  0.00    -0.314 N 
ATOM     11  H   UNL     1     -32.504  28.828   4.539  0.00  0.00    +0.148 HD
BRANCH  10  12
ATOM     12  C   UNL     1     -31.831  28.184   6.414  0.00  0.00    +0.235 C 
BRANCH  12  13
ATOM     13  S   UNL     1     -30.084  28.410   5.964  0.00  0.00    -0.033 S 
ATOM     14  O   UNL     1     -29.900  27.909   4.561  0.00  0.00    -0.079 OA
BRANCH  13  15
ATOM     15  O   UNL     1     -29.589  27.248   6.962  0.00  0.00    -0.277 OA
ATOM     16  H   UNL     1     -30.349  26.714   7.238  0.00  0.00    +0.242 HD
ENDBRANCH  13  15
ENDBRANCH  12  13
ENDBRANCH  10  12
ENDBRANCH   7  10
ENDBRANCH   1   4
BRANCH   1  17
ATOM     17  C   UNL     1     -37.437  23.909   3.251  0.00  0.00    +0.110 C 
ATOM     18  C   UNL     1     -38.314  23.018   2.632  0.00  0.00    +0.020 C 
ATOM     19  C   UNL     1     -37.800  25.246   3.414  0.00  0.00    +0.020 C 
ATOM     20  C   UNL     1     -39.918  24.803   2.337  0.00  0.00    +0.046 C 
ATOM     21  C   UNL     1     -39.555  23.466   2.174  0.00  0.00    +0.016 C 
ATOM     22  C   UNL     1     -39.041  25.692   2.956  0.00  0.00    +0.016 C 
BRANCH  20  23
ATOM     23  N   UNL     1     -41.172  25.255   1.876  0.00  0.00    -0.314 N 
ATOM     24  H   UNL     1     -41.798  24.604   1.485  0.00  0.00    +0.148 HD
BRANCH  23  25
ATOM     25  C   UNL     1     -41.566  26.630   1.958  0.00  0.00    +0.235 C 
BRANCH  25  26
ATOM     26  S   UNL     1     -42.585  26.784   3.456  0.00  0.00    -0.033 S 
ATOM     27  O   UNL     1     -43.736  27.692   3.140  0.00  0.00    -0.079 OA
BRANCH  26  28
ATOM     28  O   UNL     1     -41.474  27.660   4.223  0.00  0.00    -0.277 OA
ATOM     29  H   UNL     1     -40.856  27.070   4.681  0.00  0.00    +0.242 HD
ENDBRANCH  26  28
ENDBRANCH  25  26
ENDBRANCH  23  25
ENDBRANCH  20  23
ENDBRANCH   1  17
TORSDOF 10
ENDMDL
MODEL 3
REMARK VINA RESULT:      -5.9      0.826      8.181
REMARK  Name = 5351
REMARK  10 active torsions:
REMARK  status: ('A' for Active; 'I' for Inactive)
REMARK    1  A    between atoms: S_1  and  C_4
REMARK    2  A    between atoms: S_1  and  C_17
REMARK    3  A    between atoms: C_7  and  N_10
REMARK    4  A    between atoms: N_10  and  C_12
REMARK    5  A    between atoms: C_12  and  S_13
REMARK    6  A    between atoms: S_13  and  O_15
REMARK    7  A    between atoms: C_20  and  N_23
REMARK    8  A    between atoms: N_23  and  C_25
REMARK    9  A    between atoms: C_25  and  S_26
REMARK   10  A    between atoms: S_26  and  O_28
REMARK                            x       y       z     vdW  Elec       q    Type
REMARK                         _______ _______ _______ _____ _____    ______ ____
ROOT
ATOM      1  S   UNL     1     -36.266  23.523   4.182  0.00  0.00    +0.027 S 
ATOM      2  O   UNL     1     -37.529  23.972   3.613  0.00  0.00    -0.164 OA
ATOM      3  O   UNL     1     -36.254  22.855   5.477  0.00  0.00    -0.164 OA
ENDROOT
BRANCH   1   4
ATOM      4  C   UNL     1     -35.230  24.945   4.390  0.00  0.00    +0.110 C 
ATOM      5  C   UNL     1     -35.203  25.907   3.397  0.00  0.00    +0.020 C 
ATOM      6  C   UNL     1     -34.473  25.062   5.540  0.00  0.00    +0.020 C 
ATOM      7  C   UNL     1     -33.614  27.164   4.715  0.00  0.00    +0.046 C 
ATOM      8  C   UNL     1     -34.387  27.026   3.561  0.00  0.00    +0.016 C 
ATOM      9  C   UNL     1     -33.657  26.181   5.704  0.00  0.00    +0.016 C 
BRANCH   7  10
ATOM     10  N   UNL     1     -32.791  28.297   4.880  0.00  0.00    -0.314 N 
ATOM     11  H   UNL     1     -32.735  28.954   4.148  0.00  0.00    +0.148 HD
BRANCH  10  12
ATOM     12  C   UNL     1     -32.033  28.526   6.074  0.00  0.00    +0.235 C 
BRANCH  12  13
ATOM     13  S   UNL     1     -30.284  28.537   5.579  0.00  0.00    -0.033 S 
ATOM     14  O   UNL     1     -30.167  27.801   4.277  0.00  0.00    -0.079 OA
BRANCH  13  15
ATOM     15  O   UNL     1     -29.859  27.519   6.750  0.00  0.00    -0.277 OA
ATOM     16  H   UNL     1     -30.648  27.242   7.240  0.00  0.00    +0.242 HD
ENDBRANCH  13  15
ENDBRANCH  12  13
ENDBRANCH  10  12
ENDBRANCH   7  10
ENDBRANCH   1   4
BRANCH   1  17
ATOM     17  C   UNL     1     -35.536  22.475   2.993  0.00  0.00    +0.110 C 
ATOM     18  C   UNL     1     -34.943  23.020   1.853  0.00  0.00    +0.020 C 
ATOM     19  C   UNL     1     -35.544  21.093   3.182  0.00  0.00    +0.020 C 
ATOM     20  C   UNL     1     -34.367  20.800   1.091  0.00  0.00    +0.046 C 
ATOM     21  C   UNL     1     -34.358  22.182   0.902  0.00  0.00    +0.016 C 
ATOM     22  C   UNL     1     -34.959  20.256   2.230  0.00  0.00    +0.016 C 
BRANCH  20  23
ATOM     23  N   UNL     1     -33.775  19.952   0.131  0.00  0.00    -0.314 N 
ATOM     24  H   UNL     1     -34.340  19.569  -0.577  0.00  0.00    +0.148 HD
BRANCH  23  25
ATOM     25  C   UNL     1     -32.379  19.631   0.152  0.00  0.00    +0.235 C 
BRANCH  25  26
ATOM     26  S   UNL     1     -32.269  17.818   0.224  0.00  0.00    -0.033 S 
ATOM     27  O   UNL     1     -33.643  17.263  -0.007  0.00  0.00    -0.079 OA
BRANCH  26  28
ATOM     28  O   UNL     1     -32.006  17.813   1.811  0.00  0.00    -0.277 OA
ATOM     29  H   UNL     1     -31.889  18.725   2.122  0.00  0.00    +0.242 HD
ENDBRANCH  26  28
ENDBRANCH  25  26
ENDBRANCH  23  25
ENDBRANCH  20  23
ENDBRANCH   1  17
TORSDOF 10
ENDMDL
MODEL 4
REMARK VINA RESULT:      -5.9      0.476      8.355
REMARK  Name = 5351
REMARK  10 active torsions:
REMARK  status: ('A' for Active; 'I' for Inactive)
REMARK    1  A    between atoms: S_1  and  C_4
REMARK    2  A    between atoms: S_1  and  C_17
REMARK    3  A    between atoms: C_7  and  N_10
REMARK    4  A    between atoms: N_10  and  C_12
REMARK    5  A    between atoms: C_12  and  S_13
REMARK    6  A    between atoms: S_13  and  O_15
REMARK    7  A    between atoms: C_20  and  N_23
REMARK    8  A    between atoms: N_23  and  C_25
REMARK    9  A    between atoms: C_25  and  S_26
REMARK   10  A    between atoms: S_26  and  O_28
REMARK                            x       y       z     vdW  Elec       q    Type
REMARK                         _______ _______ _______ _____ _____    ______ ____
ROOT
ATOM      1  S   UNL     1     -36.313  23.319   4.015  0.00  0.00    +0.027 S 
ATOM      2  O   UNL     1     -37.631  23.627   3.478  0.00  0.00    -0.164 OA
ATOM      3  O   UNL     1     -36.194  22.708   5.333  0.00  0.00    -0.164 OA
ENDROOT
BRANCH   1   4
ATOM      4  C   UNL     1     -35.407  24.838   4.130  0.00  0.00    +0.110 C 
ATOM      5  C   UNL     1     -34.432  24.966   5.102  0.00  0.00    +0.020 C 
ATOM      6  C   UNL     1     -35.696  25.861   3.247  0.00  0.00    +0.020 C 
ATOM      7  C   UNL     1     -33.994  27.206   4.310  0.00  0.00    +0.046 C 
ATOM      8  C   UNL     1     -33.719  26.161   5.192  0.00  0.00    +0.016 C 
ATOM      9  C   UNL     1     -34.983  27.055   3.337  0.00  0.00    +0.016 C 
BRANCH   7  10
ATOM     10  N   UNL     1     -33.272  28.414   4.401  0.00  0.00    -0.314 N 
ATOM     11  H   UNL     1     -33.724  29.211   4.764  0.00  0.00    +0.148 HD
BRANCH  10  12
ATOM     12  C   UNL     1     -31.906  28.524   3.985  0.00  0.00    +0.235 C 
BRANCH  12  13
ATOM     13  S   UNL     1     -30.953  28.990   5.462  0.00  0.00    -0.033 S 
ATOM     14  O   UNL     1     -30.578  27.730   6.185  0.00  0.00    -0.079 OA
BRANCH  13  15
ATOM     15  O   UNL     1     -32.242  29.607   6.201  0.00  0.00    -0.277 OA
ATOM     16  H   UNL     1     -31.959  30.098   6.988  0.00  0.00    +0.242 HD
ENDBRANCH  13  15
ENDBRANCH  12  13
ENDBRANCH  10  12
ENDBRANCH   7  10
ENDBRANCH   1   4
BRANCH   1  17
ATOM     17  C   UNL     1     -35.530  22.295   2.839  0.00  0.00    +0.110 C 
ATOM     18  C   UNL     1     -35.479  20.915   3.040  0.00  0.00    +0.020 C 
ATOM     19  C   UNL     1     -34.956  22.855   1.697  0.00  0.00    +0.020 C 
ATOM     20  C   UNL     1     -34.279  20.656   0.957  0.00  0.00    +0.046 C 
ATOM     21  C   UNL     1     -34.853  20.096   2.099  0.00  0.00    +0.016 C 
ATOM     22  C   UNL     1     -34.331  22.035   0.757  0.00  0.00    +0.016 C 
BRANCH  20  23
ATOM     23  N   UNL     1     -33.648  19.829   0.005  0.00  0.00    -0.314 N 
ATOM     24  H   UNL     1     -34.162  19.529  -0.778  0.00  0.00    +0.148 HD
BRANCH  23  25
ATOM     25  C   UNL     1     -32.284  19.411   0.140  0.00  0.00    +0.235 C 
BRANCH  25  26
ATOM     26  S   UNL     1     -32.315  17.603   0.318  0.00  0.00    -0.033 S 
ATOM     27  O   UNL     1     -33.746  17.177   0.459  0.00  0.00    -0.079 OA
BRANCH  26  28
ATOM     28  O   UNL     1     -31.678  17.653   1.794  0.00  0.00    -0.277 OA
ATOM     29  H   UNL     1     -30.710  17.692   1.728  0.00  0.00    +0.242 HD
ENDBRANCH  26  28
ENDBRANCH  25  26
ENDBRANCH  23  25
ENDBRANCH  20  23
ENDBRANCH   1  17
TORSDOF 10
ENDMDL
MODEL 5
REMARK VINA RESULT:      -5.9      4.047      6.506
REMARK  Name = 5351
REMARK  10 active torsions:
REMARK  status: ('A' for Active; 'I' for Inactive)
REMARK    1  A    between atoms: S_1  and  C_4
REMARK    2  A    between atoms: S_1  and  C_17
REMARK    3  A    between atoms: C_7  and  N_10
REMARK    4  A    between atoms: N_10  and  C_12
REMARK    5  A    between atoms: C_12  and  S_13
REMARK    6  A    between atoms: S_13  and  O_15
REMARK    7  A    between atoms: C_20  and  N_23
REMARK    8  A    between atoms: N_23  and  C_25
REMARK    9  A    between atoms: C_25  and  S_26
REMARK   10  A    between atoms: S_26  and  O_28
REMARK                            x       y       z     vdW  Elec       q    Type
REMARK                         _______ _______ _______ _____ _____    ______ ____
ROOT
ATOM      1  S   UNL     1     -35.935  23.403   3.790  0.00  0.00    +0.027 S 
ATOM      2  O   UNL     1     -35.272  22.747   2.671  0.00  0.00    -0.164 OA
ATOM      3  O   UNL     1     -36.228  22.646   5.000  0.00  0.00    -0.164 OA
ENDROOT
BRANCH   1   4
ATOM      4  C   UNL     1     -37.508  23.985   3.220  0.00  0.00    +0.110 C 
ATOM      5  C   UNL     1     -37.847  25.310   3.422  0.00  0.00    +0.020 C 
ATOM      6  C   UNL     1     -38.362  23.102   2.587  0.00  0.00    +0.020 C 
ATOM      7  C   UNL     1     -39.962  24.894   2.331  0.00  0.00    +0.046 C 
ATOM      8  C   UNL     1     -39.085  25.769   2.974  0.00  0.00    +0.016 C 
ATOM      9  C   UNL     1     -39.600  23.561   2.139  0.00  0.00    +0.016 C 
BRANCH   7  10
ATOM     10  N   UNL     1     -41.214  25.359   1.878  0.00  0.00    -0.314 N 
ATOM     11  H   UNL     1     -41.578  24.998   1.036  0.00  0.00    +0.148 HD
BRANCH  10  12
ATOM     12  C   UNL     1     -41.975  26.337   2.596  0.00  0.00    +0.235 C 
BRANCH  12  13
ATOM     13  S   UNL     1     -42.149  27.769   1.489  0.00  0.00    -0.033 S 
ATOM     14  O   UNL     1     -40.830  27.990   0.810  0.00  0.00    -0.079 OA
BRANCH  13  15
ATOM     15  O   UNL     1     -42.244  28.810   2.712  0.00  0.00    -0.277 OA
ATOM     16  H   UNL     1     -42.381  29.705   2.366  0.00  0.00    +0.242 HD
ENDBRANCH  13  15
ENDBRANCH  12  13
ENDBRANCH  10  12
ENDBRANCH   7  10
ENDBRANCH   1   4
BRANCH   1  17
ATOM     17  C   UNL     1     -34.950  24.783   4.205  0.00  0.00    +0.110 C 
ATOM     18  C   UNL     1     -34.273  25.483   3.205  0.00  0.00    +0.020 C 
ATOM     19  C   UNL     1     -34.840  25.187   5.535  0.00  0.00    +0.020 C 
ATOM     20  C   UNL     1     -33.376  26.990   4.868  0.00  0.00    +0.046 C 
ATOM     21  C   UNL     1     -33.486  26.586   3.537  0.00  0.00    +0.016 C 
ATOM     22  C   UNL     1     -34.052  26.290   5.866  0.00  0.00    +0.016 C 
BRANCH  20  23
ATOM     23  N   UNL     1     -32.582  28.106   5.203  0.00  0.00    -0.314 N 
ATOM     24  H   UNL     1     -32.545  28.868   4.581  0.00  0.00    +0.148 HD
BRANCH  23  25
ATOM     25  C   UNL     1     -31.828  28.170   6.420  0.00  0.00    +0.235 C 
BRANCH  25  26
ATOM     26  S   UNL     1     -30.093  28.420   5.937  0.00  0.00    -0.033 S 
ATOM     27  O   UNL     1     -29.920  27.886   4.546  0.00  0.00    -0.079 OA
BRANCH  26  28
ATOM     28  O   UNL     1     -29.559  27.295   6.956  0.00  0.00    -0.277 OA
ATOM     29  H   UNL     1     -29.133  27.723   7.716  0.00  0.00    +0.242 HD
ENDBRANCH  26  28
ENDBRANCH  25  26
ENDBRANCH  23  25
ENDBRANCH  20  23
ENDBRANCH   1  17
TORSDOF 10
ENDMDL
MODEL 6
REMARK VINA RESULT:      -5.9      1.075      1.818
REMARK  Name = 5351
REMARK  10 active torsions:
REMARK  status: ('A' for Active; 'I' for Inactive)
REMARK    1  A    between atoms: S_1  and  C_4
REMARK    2  A    between atoms: S_1  and  C_17
REMARK    3  A    between atoms: C_7  and  N_10
REMARK    4  A    between atoms: N_10  and  C_12
REMARK    5  A    between atoms: C_12  and  S_13
REMARK    6  A    between atoms: S_13  and  O_15
REMARK    7  A    between atoms: C_20  and  N_23
REMARK    8  A    between atoms: N_23  and  C_25
REMARK    9  A    between atoms: C_25  and  S_26
REMARK   10  A    between atoms: S_26  and  O_28
REMARK                            x       y       z     vdW  Elec       q    Type
REMARK                         _______ _______ _______ _____ _____    ______ ____
ROOT
ATOM      1  S   UNL     1     -36.264  23.677   4.246  0.00  0.00    +0.027 S 
ATOM      2  O   UNL     1     -36.264  23.026   5.549  0.00  0.00    -0.164 OA
ATOM      3  O   UNL     1     -37.524  24.103   3.651  0.00  0.00    -0.164 OA
ENDROOT
BRANCH   1   4
ATOM      4  C   UNL     1     -35.564  22.546   3.076  0.00  0.00    +0.110 C 
ATOM      5  C   UNL     1     -35.593  21.191   3.351  0.00  0.00    +0.020 C 
ATOM      6  C   UNL     1     -35.004  23.042   1.914  0.00  0.00    +0.020 C 
ATOM      7  C   UNL     1     -34.471  20.781   1.251  0.00  0.00    +0.046 C 
ATOM      8  C   UNL     1     -35.042  20.301   2.431  0.00  0.00    +0.016 C 
ATOM      9  C   UNL     1     -34.453  22.152   0.993  0.00  0.00    +0.016 C 
BRANCH   7  10
ATOM     10  N   UNL     1     -33.915  19.880   0.320  0.00  0.00    -0.314 N 
ATOM     11  H   UNL     1     -33.513  20.238  -0.506  0.00  0.00    +0.148 HD
BRANCH  10  12
ATOM     12  C   UNL     1     -33.913  18.463   0.531  0.00  0.00    +0.235 C 
BRANCH  12  13
ATOM     13  S   UNL     1     -32.289  18.050   1.236  0.00  0.00    -0.033 S 
ATOM     14  O   UNL     1     -31.275  18.980   0.637  0.00  0.00    -0.079 OA
BRANCH  13  15
ATOM     15  O   UNL     1     -32.201  16.657   0.435  0.00  0.00    -0.277 OA
ATOM     16  H   UNL     1     -31.596  16.754  -0.316  0.00  0.00    +0.242 HD
ENDBRANCH  13  15
ENDBRANCH  12  13
ENDBRANCH  10  12
ENDBRANCH   7  10
ENDBRANCH   1   4
BRANCH   1  17
ATOM     17  C   UNL     1     -35.204  25.057   4.385  0.00  0.00    +0.110 C 
ATOM     18  C   UNL     1     -34.428  25.226   5.532  0.00  0.00    +0.020 C 
ATOM     19  C   UNL     1     -35.133  25.989   3.351  0.00  0.00    +0.020 C 
ATOM     20  C   UNL     1     -33.508  27.262   4.609  0.00  0.00    +0.046 C 
ATOM     21  C   UNL     1     -33.580  26.329   5.644  0.00  0.00    +0.016 C 
ATOM     22  C   UNL     1     -34.285  27.092   3.463  0.00  0.00    +0.016 C 
BRANCH  20  23
ATOM     23  N   UNL     1     -32.650  28.376   4.720  0.00  0.00    -0.314 N 
ATOM     24  H   UNL     1     -32.501  28.941   3.929  0.00  0.00    +0.148 HD
BRANCH  23  25
ATOM     25  C   UNL     1     -31.991  28.714   5.946  0.00  0.00    +0.235 C 
BRANCH  25  26
ATOM     26  S   UNL     1     -30.207  28.568   5.628  0.00  0.00    -0.033 S 
ATOM     27  O   UNL     1     -30.028  27.804   4.349  0.00  0.00    -0.079 OA
BRANCH  26  28
ATOM     28  O   UNL     1     -29.989  27.536   6.843  0.00  0.00    -0.277 OA
ATOM     29  H   UNL     1     -30.811  27.047   7.003  0.00  0.00    +0.242 HD
ENDBRANCH  26  28
ENDBRANCH  25  26
ENDBRANCH  23  25
ENDBRANCH  20  23
ENDBRANCH   1  17
TORSDOF 10
ENDMDL
MODEL 7
REMARK VINA RESULT:      -5.8      3.788      5.798
REMARK  Name = 5351
REMARK  10 active torsions:
REMARK  status: ('A' for Active; 'I' for Inactive)
REMARK    1  A    between atoms: S_1  and  C_4
REMARK    2  A    between atoms: S_1  and  C_17
REMARK    3  A    between atoms: C_7  and  N_10
REMARK    4  A    between atoms: N_10  and  C_12
REMARK    5  A    between atoms: C_12  and  S_13
REMARK    6  A    between atoms: S_13  and  O_15
REMARK    7  A    between atoms: C_20  and  N_23
REMARK    8  A    between atoms: N_23  and  C_25
REMARK    9  A    between atoms: C_25  and  S_26
REMARK   10  A    between atoms: S_26  and  O_28
REMARK                            x       y       z     vdW  Elec       q    Type
REMARK                         _______ _______ _______ _____ _____    ______ ____
ROOT
ATOM      1  S   UNL     1     -33.518  28.743   3.180  0.00  0.00    +0.027 S 
ATOM      2  O   UNL     1     -34.411  29.868   3.420  0.00  0.00    -0.164 OA
ATOM      3  O   UNL     1     -33.144  28.396   1.816  0.00  0.00    -0.164 OA
ENDROOT
BRANCH   1   4
ATOM      4  C   UNL     1     -34.294  27.288   3.828  0.00  0.00    +0.110 C 
ATOM      5  C   UNL     1     -33.669  26.588   4.843  0.00  0.00    +0.020 C 
ATOM      6  C   UNL     1     -35.508  26.884   3.303  0.00  0.00    +0.020 C 
ATOM      7  C   UNL     1     -35.505  25.017   4.837  0.00  0.00    +0.046 C 
ATOM      8  C   UNL     1     -34.279  25.443   5.352  0.00  0.00    +0.016 C 
ATOM      9  C   UNL     1     -36.118  25.738   3.812  0.00  0.00    +0.016 C 
BRANCH   7  10
ATOM     10  N   UNL     1     -36.123  23.860   5.353  0.00  0.00    -0.314 N 
ATOM     11  H   UNL     1     -36.974  23.953   5.841  0.00  0.00    +0.148 HD
BRANCH  10  12
ATOM     12  C   UNL     1     -35.557  22.553   5.194  0.00  0.00    +0.235 C 
BRANCH  12  13
ATOM     13  S   UNL     1     -35.729  22.129   3.434  0.00  0.00    -0.033 S 
ATOM     14  O   UNL     1     -37.149  22.393   3.032  0.00  0.00    -0.079 OA
BRANCH  13  15
ATOM     15  O   UNL     1     -35.591  20.550   3.715  0.00  0.00    -0.277 OA
ATOM     16  H   UNL     1     -34.662  20.333   3.892  0.00  0.00    +0.242 HD
ENDBRANCH  13  15
ENDBRANCH  12  13
ENDBRANCH  10  12
ENDBRANCH   7  10
ENDBRANCH   1   4
BRANCH   1  17
ATOM     17  C   UNL     1     -32.072  29.058   4.106  0.00  0.00    +0.110 C 
ATOM     18  C   UNL     1     -30.851  28.519   3.697  0.00  0.00    +0.020 C 
ATOM     19  C   UNL     1     -32.136  29.848   5.253  0.00  0.00    +0.020 C 
ATOM     20  C   UNL     1     -29.759  29.561   5.584  0.00  0.00    +0.046 C 
ATOM     21  C   UNL     1     -29.695  28.771   4.437  0.00  0.00    +0.016 C 
ATOM     22  C   UNL     1     -30.979  30.099   5.992  0.00  0.00    +0.016 C 
BRANCH  20  23
ATOM     23  N   UNL     1     -28.590  29.817   6.331  0.00  0.00    -0.314 N 
ATOM     24  H   UNL     1     -28.594  30.558   6.979  0.00  0.00    +0.148 HD
BRANCH  23  25
ATOM     25  C   UNL     1     -27.400  29.035   6.181  0.00  0.00    +0.235 C 
BRANCH  25  26
ATOM     26  S   UNL     1     -27.442  27.777   7.493  0.00  0.00    -0.033 S 
ATOM     27  O   UNL     1     -28.465  26.747   7.111  0.00  0.00    -0.079 OA
BRANCH  26  28
ATOM     28  O   UNL     1     -28.133  28.777   8.546  0.00  0.00    -0.277 OA
ATOM     29  H   UNL     1     -27.471  29.405   8.878  0.00  0.00    +0.242 HD
ENDBRANCH  26  28
ENDBRANCH  25  26
ENDBRANCH  23  25
ENDBRANCH  20  23
ENDBRANCH   1  17
TORSDOF 10
ENDMDL
MODEL 8
REMARK VINA RESULT:      -5.8      3.758      8.769
REMARK  Name = 5351
REMARK  10 active torsions:
REMARK  status: ('A' for Active; 'I' for Inactive)
REMARK    1  A    between atoms: S_1  and  C_4
REMARK    2  A    between atoms: S_1  and  C_17
REMARK    3  A    between atoms: C_7  and  N_10
REMARK    4  A    between atoms: N_10  and  C_12
REMARK    5  A    between atoms: C_12  and  S_13
REMARK    6  A    between atoms: S_13  and  O_15
REMARK    7  A    between atoms: C_20  and  N_23
REMARK    8  A    between atoms: N_23  and  C_25
REMARK    9  A    between atoms: C_25  and  S_26
REMARK   10  A    between atoms: S_26  and  O_28
REMARK                            x       y       z     vdW  Elec       q    Type
REMARK                         _______ _______ _______ _____ _____    ______ ____
ROOT
ATOM      1  S   UNL     1     -33.547  28.758   3.142  0.00  0.00    +0.027 S 
ATOM      2  O   UNL     1     -33.128  28.452   1.781  0.00  0.00    -0.164 OA
ATOM      3  O   UNL     1     -34.413  29.903   3.391  0.00  0.00    -0.164 OA
ENDROOT
BRANCH   1   4
ATOM      4  C   UNL     1     -32.089  29.069   4.100  0.00  0.00    +0.110 C 
ATOM      5  C   UNL     1     -30.906  28.449   3.742  0.00  0.00    +0.020 C 
ATOM      6  C   UNL     1     -32.166  29.923   5.183  0.00  0.00    +0.020 C 
ATOM      7  C   UNL     1     -29.814  29.553   5.594  0.00  0.00    +0.046 C 
ATOM      8  C   UNL     1     -29.758  28.693   4.495  0.00  0.00    +0.016 C 
ATOM      9  C   UNL     1     -31.019  30.167   5.937  0.00  0.00    +0.016 C 
BRANCH   7  10
ATOM     10  N   UNL     1     -28.654  29.800   6.355  0.00  0.00    -0.314 N 
ATOM     11  H   UNL     1     -28.675  30.511   7.037  0.00  0.00    +0.148 HD
BRANCH  10  12
ATOM     12  C   UNL     1     -27.443  29.055   6.172  0.00  0.00    +0.235 C 
BRANCH  12  13
ATOM     13  S   UNL     1     -27.417  27.787   7.474  0.00  0.00    -0.033 S 
ATOM     14  O   UNL     1     -28.424  26.735   7.114  0.00  0.00    -0.079 OA
BRANCH  13  15
ATOM     15  O   UNL     1     -28.102  28.763   8.555  0.00  0.00    -0.277 OA
ATOM     16  H   UNL     1     -28.143  28.315   9.414  0.00  0.00    +0.242 HD
ENDBRANCH  13  15
ENDBRANCH  12  13
ENDBRANCH  10  12
ENDBRANCH   7  10
ENDBRANCH   1   4
BRANCH   1  17
ATOM     17  C   UNL     1     -34.316  27.317   3.756  0.00  0.00    +0.110 C 
ATOM     18  C   UNL     1     -33.709  26.583   4.775  0.00  0.00    +0.020 C 
ATOM     19  C   UNL     1     -35.538  26.900   3.228  0.00  0.00    +0.020 C 
ATOM     20  C   UNL     1     -35.547  25.013   4.739  0.00  0.00    +0.046 C 
ATOM     21  C   UNL     1     -34.325  25.430   5.267  0.00  0.00    +0.016 C 
ATOM     22  C   UNL     1     -36.153  25.747   3.720  0.00  0.00    +0.016 C 
BRANCH  20  23
ATOM     23  N   UNL     1     -36.170  23.849   5.236  0.00  0.00    -0.314 N 
ATOM     24  H   UNL     1     -37.039  23.933   5.690  0.00  0.00    +0.148 HD
BRANCH  23  25
ATOM     25  C   UNL     1     -35.582  22.550   5.101  0.00  0.00    +0.235 C 
BRANCH  25  26
ATOM     26  S   UNL     1     -35.741  22.093   3.348  0.00  0.00    -0.033 S 
ATOM     27  O   UNL     1     -37.161  22.342   2.934  0.00  0.00    -0.079 OA
BRANCH  26  28
ATOM     28  O   UNL     1     -35.595  20.521   3.657  0.00  0.00    -0.277 OA
ATOM     29  H   UNL     1     -36.290  20.034   3.187  0.00  0.00    +0.242 HD
ENDBRANCH  26  28
ENDBRANCH  25  26
ENDBRANCH  23  25
ENDBRANCH  20  23
ENDBRANCH   1  17
TORSDOF 10
ENDMDL
MODEL 9
REMARK VINA RESULT:      -5.8      1.183      1.639
REMARK  Name = 5351
REMARK  10 active torsions:
REMARK  status: ('A' for Active; 'I' for Inactive)
REMARK    1  A    between atoms: S_1  and  C_4
REMARK    2  A    between atoms: S_1  and  C_17
REMARK    3  A    between atoms: C_7  and  N_10
REMARK    4  A    between atoms: N_10  and  C_12
REMARK    5  A    between atoms: C_12  and  S_13
REMARK    6  A    between atoms: S_13  and  O_15
REMARK    7  A    between atoms: C_20  and  N_23
REMARK    8  A    between atoms: N_23  and  C_25
REMARK    9  A    between atoms: C_25  and  S_26
REMARK   10  A    between atoms: S_26  and  O_28
REMARK                            x       y       z     vdW  Elec       q    Type
REMARK                         _______ _______ _______ _____ _____    ______ ____
ROOT
ATOM      1  S   UNL     1     -36.475  23.778   2.786  0.00  0.00    +0.027 S 
ATOM      2  O   UNL     1     -37.378  23.206   3.775  0.00  0.00    -0.164 OA
ATOM      3  O   UNL     1     -37.019  24.473   1.627  0.00  0.00    -0.164 OA
ENDROOT
BRANCH   1   4
ATOM      4  C   UNL     1     -35.503  22.457   2.114  0.00  0.00    +0.110 C 
ATOM      5  C   UNL     1     -35.514  21.227   2.745  0.00  0.00    +0.020 C 
ATOM      6  C   UNL     1     -34.754  22.686   0.975  0.00  0.00    +0.020 C 
ATOM      7  C   UNL     1     -33.986  20.398   1.067  0.00  0.00    +0.046 C 
ATOM      8  C   UNL     1     -34.748  20.188   2.217  0.00  0.00    +0.016 C 
ATOM      9  C   UNL     1     -33.989  21.648   0.447  0.00  0.00    +0.016 C 
BRANCH   7  10
ATOM     10  N   UNL     1     -33.213  19.347   0.532  0.00  0.00    -0.314 N 
ATOM     11  H   UNL     1     -32.749  19.487  -0.325  0.00  0.00    +0.148 HD
BRANCH  10  12
ATOM     12  C   UNL     1     -33.078  18.082   1.192  0.00  0.00    +0.235 C 
BRANCH  12  13
ATOM     13  S   UNL     1     -33.123  16.814  -0.110  0.00  0.00    -0.033 S 
ATOM     14  O   UNL     1     -34.330  15.955   0.124  0.00  0.00    -0.079 OA
BRANCH  13  15
ATOM     15  O   UNL     1     -31.849  16.034   0.488  0.00  0.00    -0.277 OA
ATOM     16  H   UNL     1     -32.000  15.078   0.432  0.00  0.00    +0.242 HD
ENDBRANCH  13  15
ENDBRANCH  12  13
ENDBRANCH  10  12
ENDBRANCH   7  10
ENDBRANCH   1   4
BRANCH   1  17
ATOM     17  C   UNL     1     -35.416  24.859   3.654  0.00  0.00    +0.110 C 
ATOM     18  C   UNL     1     -34.484  25.630   2.958  0.00  0.00    +0.020 C 
ATOM     19  C   UNL     1     -35.501  24.954   5.043  0.00  0.00    +0.020 C 
ATOM     20  C   UNL     1     -33.722  26.590   5.042  0.00  0.00    +0.046 C 
ATOM     21  C   UNL     1     -33.637  26.496   3.653  0.00  0.00    +0.016 C 
ATOM     22  C   UNL     1     -34.654  25.819   5.737  0.00  0.00    +0.016 C 
BRANCH  20  23
ATOM     23  N   UNL     1     -32.868  27.466   5.744  0.00  0.00    -0.314 N 
ATOM     24  H   UNL     1     -32.797  27.378   6.722  0.00  0.00    +0.148 HD
BRANCH  23  25
ATOM     25  C   UNL     1     -32.098  28.477   5.083  0.00  0.00    +0.235 C 
BRANCH  25  26
ATOM     26  S   UNL     1     -30.722  28.888   6.198  0.00  0.00    -0.033 S 
ATOM     27  O   UNL     1     -29.883  27.656   6.368  0.00  0.00    -0.079 OA
BRANCH  26  28
ATOM     28  O   UNL     1     -31.685  28.998   7.482  0.00  0.00    -0.277 OA
ATOM     29  H   UNL     1     -31.497  29.822   7.958  0.00  0.00    +0.242 HD
ENDBRANCH  26  28
ENDBRANCH  25  26
ENDBRANCH  23  25
ENDBRANCH  20  23
ENDBRANCH   1  17
TORSDOF 10
ENDMDL
