MODEL 1
REMARK VINA RESULT:      -6.9      0.000      0.000
REMARK  Name = 52944699
REMARK  1 active torsions:
REMARK  status: ('A' for Active; 'I' for Inactive)
REMARK    1  A    between atoms: C_23  and  N_29
REMARK                            x       y       z     vdW  Elec       q    Type
REMARK                         _______ _______ _______ _____ _____    ______ ____
ROOT
ATOM      1  O   UNL     1     -37.113  23.370   4.032  0.00  0.00    -0.355 OA
ATOM      2  O   UNL     1     -36.218  22.717  -0.159  0.00  0.00    -0.274 OA
ATOM      3  O   UNL     1     -40.273  21.149   1.774  0.00  0.00    -0.274 OA
ATOM      4  O   UNL     1     -40.117  22.645  -2.553  0.00  0.00    -0.252 OA
ATOM      5  N   UNL     1     -36.115  21.254   2.480  0.00  0.00    -0.304 N 
ATOM      6  N   UNL     1     -40.159  21.846  -0.400  0.00  0.00    -0.239 N 
ATOM      7  N   UNL     1     -38.155  22.589  -1.360  0.00  0.00    -0.239 N 
ATOM      8  C   UNL     1     -37.509  21.736   2.259  0.00  0.00    +0.117 C 
ATOM      9  C   UNL     1     -38.048  21.439   0.825  0.00  0.00    +0.161 C 
ATOM     10  C   UNL     1     -37.543  23.241   2.666  0.00  0.00    +0.134 C 
ATOM     11  C   UNL     1     -37.749  19.963   0.467  0.00  0.00    +0.047 C 
ATOM     12  C   UNL     1     -35.610  21.488   3.844  0.00  0.00    +0.120 C 
ATOM     13  C   UNL     1     -35.561  20.236   1.703  0.00  0.00    +0.044 C 
ATOM     14  C   UNL     1     -36.313  19.590   0.703  0.00  0.00    -0.006 C 
ATOM     15  C   UNL     1     -35.752  22.969   4.191  0.00  0.00    +0.135 C 
ATOM     16  C   UNL     1     -39.585  21.488   0.810  0.00  0.00    +0.239 C 
ATOM     17  C   UNL     1     -37.382  22.323  -0.242  0.00  0.00    +0.239 C 
ATOM     18  C   UNL     1     -38.912  23.906   2.604  0.00  0.00    +0.034 C 
ATOM     19  C   UNL     1     -34.215  19.831   1.832  0.00  0.00    +0.016 C 
ATOM     20  C   UNL     1     -35.761  18.550  -0.069  0.00  0.00    +0.021 C 
ATOM     21  C   UNL     1     -35.356  23.236   5.637  0.00  0.00    +0.034 C 
ATOM     22  C   UNL     1     -39.515  22.365  -1.514  0.00  0.00    +0.312 C 
ATOM     23  C   UNL     1     -34.441  18.160   0.105  0.00  0.00    +0.143 C 
ATOM     24  C   UNL     1     -33.664  18.809   1.051  0.00  0.00    +0.025 C 
ATOM     25  H   UNL     1     -41.131  21.718  -0.477  0.00  0.00    +0.159 HD
ATOM     26  H   UNL     1     -37.687  22.980  -2.133  0.00  0.00    +0.159 HD
ENDROOT
BRANCH  23  29
ATOM     27  O   UNL     1     -33.796  17.282  -1.927  0.00  0.00    -0.126 OA
ATOM     28  O   UNL     1     -33.507  16.064  -0.124  0.00  0.00    -0.126 OA
ATOM     29  N   UNL     1     -33.888  17.120  -0.686  0.00  0.00    +0.058 N 
ENDBRANCH  23  29
TORSDOF 1
ENDMDL
MODEL 2
REMARK VINA RESULT:      -6.9      2.506      3.419
REMARK  Name = 52944699
REMARK  1 active torsions:
REMARK  status: ('A' for Active; 'I' for Inactive)
REMARK    1  A    between atoms: C_23  and  N_29
REMARK                            x       y       z     vdW  Elec       q    Type
REMARK                         _______ _______ _______ _____ _____    ______ ____
ROOT
ATOM      1  O   UNL     1     -35.212  25.838   0.410  0.00  0.00    -0.355 OA
ATOM      2  O   UNL     1     -36.789  21.942  -0.650  0.00  0.00    -0.274 OA
ATOM      3  O   UNL     1     -37.230  23.667   3.761  0.00  0.00    -0.274 OA
ATOM      4  O   UNL     1     -40.495  21.061   1.884  0.00  0.00    -0.252 OA
ATOM      5  N   UNL     1     -34.379  23.171   0.691  0.00  0.00    -0.304 N 
ATOM      6  N   UNL     1     -38.820  22.318   2.826  0.00  0.00    -0.239 N 
ATOM      7  N   UNL     1     -38.588  21.444   0.664  0.00  0.00    -0.239 N 
ATOM      8  C   UNL     1     -35.607  23.639   1.399  0.00  0.00    +0.117 C 
ATOM      9  C   UNL     1     -36.613  22.490   1.720  0.00  0.00    +0.161 C 
ATOM     10  C   UNL     1     -36.204  24.807   0.556  0.00  0.00    +0.134 C 
ATOM     11  C   UNL     1     -35.844  21.305   2.353  0.00  0.00    +0.047 C 
ATOM     12  C   UNL     1     -33.402  24.239   0.422  0.00  0.00    +0.120 C 
ATOM     13  C   UNL     1     -33.953  21.845   0.765  0.00  0.00    +0.044 C 
ATOM     14  C   UNL     1     -34.642  20.899   1.548  0.00  0.00    -0.006 C 
ATOM     15  C   UNL     1     -34.085  25.376  -0.335  0.00  0.00    +0.135 C 
ATOM     16  C   UNL     1     -37.569  22.916   2.847  0.00  0.00    +0.239 C 
ATOM     17  C   UNL     1     -37.321  21.967   0.460  0.00  0.00    +0.239 C 
ATOM     18  C   UNL     1     -37.421  25.495   1.161  0.00  0.00    +0.034 C 
ATOM     19  C   UNL     1     -32.851  21.361   0.027  0.00  0.00    +0.016 C 
ATOM     20  C   UNL     1     -34.202  19.565   1.639  0.00  0.00    +0.021 C 
ATOM     21  C   UNL     1     -33.142  26.556  -0.527  0.00  0.00    +0.034 C 
ATOM     22  C   UNL     1     -39.372  21.561   1.803  0.00  0.00    +0.312 C 
ATOM     23  C   UNL     1     -33.096  19.132   0.920  0.00  0.00    +0.143 C 
ATOM     24  C   UNL     1     -32.426  20.030   0.105  0.00  0.00    +0.025 C 
ATOM     25  H   UNL     1     -39.378  22.446   3.625  0.00  0.00    +0.159 HD
ATOM     26  H   UNL     1     -38.974  20.929  -0.081  0.00  0.00    +0.159 HD
ENDROOT
BRANCH  23  29
ATOM     27  O   UNL     1     -31.607  17.518   1.624  0.00  0.00    -0.126 OA
ATOM     28  O   UNL     1     -33.359  16.887   0.461  0.00  0.00    -0.126 OA
ATOM     29  N   UNL     1     -32.667  17.783   1.006  0.00  0.00    +0.058 N 
ENDBRANCH  23  29
TORSDOF 1
ENDMDL
MODEL 3
REMARK VINA RESULT:      -6.8      4.640      7.793
REMARK  Name = 52944699
REMARK  1 active torsions:
REMARK  status: ('A' for Active; 'I' for Inactive)
REMARK    1  A    between atoms: C_23  and  N_29
REMARK                            x       y       z     vdW  Elec       q    Type
REMARK                         _______ _______ _______ _____ _____    ______ ____
ROOT
ATOM      1  O   UNL     1     -37.751  26.769   0.038  0.00  0.00    -0.355 OA
ATOM      2  O   UNL     1     -34.256  24.682   1.527  0.00  0.00    -0.274 OA
ATOM      3  O   UNL     1     -38.449  24.375   3.753  0.00  0.00    -0.274 OA
ATOM      4  O   UNL     1     -35.562  20.822   3.608  0.00  0.00    -0.252 OA
ATOM      5  N   UNL     1     -35.831  27.205   2.040  0.00  0.00    -0.304 N 
ATOM      6  N   UNL     1     -36.969  22.634   3.717  0.00  0.00    -0.239 N 
ATOM      7  N   UNL     1     -34.891  22.796   2.646  0.00  0.00    -0.239 N 
ATOM      8  C   UNL     1     -36.755  26.039   2.146  0.00  0.00    +0.117 C 
ATOM      9  C   UNL     1     -36.184  24.871   3.009  0.00  0.00    +0.161 C 
ATOM     10  C   UNL     1     -37.154  25.637   0.694  0.00  0.00    +0.134 C 
ATOM     11  C   UNL     1     -35.621  25.447   4.332  0.00  0.00    +0.047 C 
ATOM     12  C   UNL     1     -36.378  28.332   1.265  0.00  0.00    +0.120 C 
ATOM     13  C   UNL     1     -34.833  27.436   2.986  0.00  0.00    +0.044 C 
ATOM     14  C   UNL     1     -34.683  26.599   4.109  0.00  0.00    -0.006 C 
ATOM     15  C   UNL     1     -36.816  27.838  -0.112  0.00  0.00    +0.135 C 
ATOM     16  C   UNL     1     -37.321  23.957   3.493  0.00  0.00    +0.239 C 
ATOM     17  C   UNL     1     -35.040  24.129   2.299  0.00  0.00    +0.239 C 
ATOM     18  C   UNL     1     -38.178  24.515   0.583  0.00  0.00    +0.034 C 
ATOM     19  C   UNL     1     -33.888  28.477   2.854  0.00  0.00    +0.016 C 
ATOM     20  C   UNL     1     -33.688  26.842   5.075  0.00  0.00    +0.021 C 
ATOM     21  C   UNL     1     -37.501  28.945  -0.903  0.00  0.00    +0.034 C 
ATOM     22  C   UNL     1     -35.786  22.007   3.354  0.00  0.00    +0.312 C 
ATOM     23  C   UNL     1     -32.794  27.893   4.924  0.00  0.00    +0.143 C 
ATOM     24  C   UNL     1     -32.889  28.706   3.806  0.00  0.00    +0.025 C 
ATOM     25  H   UNL     1     -37.632  22.079   4.184  0.00  0.00    +0.159 HD
ATOM     26  H   UNL     1     -34.056  22.360   2.360  0.00  0.00    +0.159 HD
ENDROOT
BRANCH  23  29
ATOM     27  O   UNL     1     -32.093  28.693   6.970  0.00  0.00    -0.126 OA
ATOM     28  O   UNL     1     -30.611  27.750   5.654  0.00  0.00    -0.126 OA
ATOM     29  N   UNL     1     -31.786  28.123   5.895  0.00  0.00    +0.058 N 
ENDBRANCH  23  29
TORSDOF 1
ENDMDL
MODEL 4
REMARK VINA RESULT:      -6.7      3.810      6.596
REMARK  Name = 52944699
REMARK  1 active torsions:
REMARK  status: ('A' for Active; 'I' for Inactive)
REMARK    1  A    between atoms: C_23  and  N_29
REMARK                            x       y       z     vdW  Elec       q    Type
REMARK                         _______ _______ _______ _____ _____    ______ ____
ROOT
ATOM      1  O   UNL     1     -36.875  21.141   1.725  0.00  0.00    -0.355 OA
ATOM      2  O   UNL     1     -37.711  24.465   4.379  0.00  0.00    -0.274 OA
ATOM      3  O   UNL     1     -39.194  24.481  -0.141  0.00  0.00    -0.274 OA
ATOM      4  O   UNL     1     -41.686  26.396   3.191  0.00  0.00    -0.252 OA
ATOM      5  N   UNL     1     -35.776  23.682   2.199  0.00  0.00    -0.304 N 
ATOM      6  N   UNL     1     -40.393  25.480   1.529  0.00  0.00    -0.239 N 
ATOM      7  N   UNL     1     -39.647  25.499   3.750  0.00  0.00    -0.239 N 
ATOM      8  C   UNL     1     -37.164  23.567   1.665  0.00  0.00    +0.117 C 
ATOM      9  C   UNL     1     -38.058  24.805   1.989  0.00  0.00    +0.161 C 
ATOM     10  C   UNL     1     -37.736  22.205   2.166  0.00  0.00    +0.134 C 
ATOM     11  C   UNL     1     -37.277  26.096   1.647  0.00  0.00    +0.047 C 
ATOM     12  C   UNL     1     -34.910  22.540   1.861  0.00  0.00    +0.120 C 
ATOM     13  C   UNL     1     -35.205  24.920   2.492  0.00  0.00    +0.044 C 
ATOM     14  C   UNL     1     -35.903  26.120   2.254  0.00  0.00    -0.006 C 
ATOM     15  C   UNL     1     -35.578  21.243   2.314  0.00  0.00    +0.135 C 
ATOM     16  C   UNL     1     -39.255  24.867   1.027  0.00  0.00    +0.239 C 
ATOM     17  C   UNL     1     -38.443  24.871   3.476  0.00  0.00    +0.239 C 
ATOM     18  C   UNL     1     -39.123  21.848   1.648  0.00  0.00    +0.034 C 
ATOM     19  C   UNL     1     -33.931  25.046   3.086  0.00  0.00    +0.016 C 
ATOM     20  C   UNL     1     -35.320  27.371   2.531  0.00  0.00    +0.021 C 
ATOM     21  C   UNL     1     -34.774  20.026   1.875  0.00  0.00    +0.034 C 
ATOM     22  C   UNL     1     -40.640  25.843   2.845  0.00  0.00    +0.312 C 
ATOM     23  C   UNL     1     -34.053  27.457   3.091  0.00  0.00    +0.143 C 
ATOM     24  C   UNL     1     -33.361  26.291   3.377  0.00  0.00    +0.025 C 
ATOM     25  H   UNL     1     -41.104  25.680   0.879  0.00  0.00    +0.159 HD
ATOM     26  H   UNL     1     -39.817  25.727   4.693  0.00  0.00    +0.159 HD
ENDROOT
BRANCH  23  29
ATOM     27  O   UNL     1     -33.524  29.624   2.510  0.00  0.00    -0.126 OA
ATOM     28  O   UNL     1     -32.940  28.904   4.499  0.00  0.00    -0.126 OA
ATOM     29  N   UNL     1     -33.479  28.721   3.380  0.00  0.00    +0.058 N 
ENDBRANCH  23  29
TORSDOF 1
ENDMDL
MODEL 5
REMARK VINA RESULT:      -6.7      4.375      8.973
REMARK  Name = 52944699
REMARK  1 active torsions:
REMARK  status: ('A' for Active; 'I' for Inactive)
REMARK    1  A    between atoms: C_23  and  N_29
REMARK                            x       y       z     vdW  Elec       q    Type
REMARK                         _______ _______ _______ _____ _____    ______ ____
ROOT
ATOM      1  O   UNL     1     -38.556  24.487  -1.374  0.00  0.00    -0.355 OA
ATOM      2  O   UNL     1     -37.858  27.127   1.993  0.00  0.00    -0.274 OA
ATOM      3  O   UNL     1     -38.498  22.454   2.611  0.00  0.00    -0.274 OA
ATOM      4  O   UNL     1     -35.646  24.842   5.283  0.00  0.00    -0.252 OA
ATOM      5  N   UNL     1     -40.139  25.759   0.566  0.00  0.00    -0.304 N 
ATOM      6  N   UNL     1     -37.125  23.676   3.968  0.00  0.00    -0.239 N 
ATOM      7  N   UNL     1     -36.833  25.984   3.682  0.00  0.00    -0.239 N 
ATOM      8  C   UNL     1     -39.151  24.722   0.985  0.00  0.00    +0.117 C 
ATOM      9  C   UNL     1     -38.677  24.878   2.463  0.00  0.00    +0.161 C 
ATOM     10  C   UNL     1     -38.002  24.733  -0.069  0.00  0.00    +0.134 C 
ATOM     11  C   UNL     1     -39.913  25.081   3.373  0.00  0.00    +0.047 C 
ATOM     12  C   UNL     1     -40.628  25.595  -0.814  0.00  0.00    +0.120 C 
ATOM     13  C   UNL     1     -40.915  26.448   1.497  0.00  0.00    +0.044 C 
ATOM     14  C   UNL     1     -40.828  26.163   2.874  0.00  0.00    -0.006 C 
ATOM     15  C   UNL     1     -39.439  25.536  -1.771  0.00  0.00    +0.135 C 
ATOM     16  C   UNL     1     -38.089  23.555   2.979  0.00  0.00    +0.239 C 
ATOM     17  C   UNL     1     -37.754  26.093   2.653  0.00  0.00    +0.239 C 
ATOM     18  C   UNL     1     -36.926  23.671   0.124  0.00  0.00    +0.034 C 
ATOM     19  C   UNL     1     -41.784  27.498   1.131  0.00  0.00    +0.016 C 
ATOM     20  C   UNL     1     -41.624  26.845   3.813  0.00  0.00    +0.021 C 
ATOM     21  C   UNL     1     -39.893  25.245  -3.195  0.00  0.00    +0.034 C 
ATOM     22  C   UNL     1     -36.488  24.837   4.383  0.00  0.00    +0.312 C 
ATOM     23  C   UNL     1     -42.489  27.854   3.412  0.00  0.00    +0.143 C 
ATOM     24  C   UNL     1     -42.562  28.187   2.069  0.00  0.00    +0.025 C 
ATOM     25  H   UNL     1     -36.863  22.847   4.427  0.00  0.00    +0.159 HD
ATOM     26  H   UNL     1     -36.373  26.813   3.948  0.00  0.00    +0.159 HD
ENDROOT
BRANCH  23  29
ATOM     27  O   UNL     1     -44.517  28.346   4.394  0.00  0.00    -0.126 OA
ATOM     28  O   UNL     1     -42.717  29.341   5.160  0.00  0.00    -0.126 OA
ATOM     29  N   UNL     1     -43.278  28.546   4.367  0.00  0.00    +0.058 N 
ENDBRANCH  23  29
TORSDOF 1
ENDMDL
MODEL 6
REMARK VINA RESULT:      -6.5      3.501      7.936
REMARK  Name = 52944699
REMARK  1 active torsions:
REMARK  status: ('A' for Active; 'I' for Inactive)
REMARK    1  A    between atoms: C_23  and  N_29
REMARK                            x       y       z     vdW  Elec       q    Type
REMARK                         _______ _______ _______ _____ _____    ______ ____
ROOT
ATOM      1  O   UNL     1     -37.138  21.268   1.133  0.00  0.00    -0.355 OA
ATOM      2  O   UNL     1     -37.155  25.600   0.974  0.00  0.00    -0.274 OA
ATOM      3  O   UNL     1     -36.440  23.282   5.067  0.00  0.00    -0.274 OA
ATOM      4  O   UNL     1     -34.331  27.249   4.175  0.00  0.00    -0.252 OA
ATOM      5  N   UNL     1     -38.982  23.309   1.700  0.00  0.00    -0.304 N 
ATOM      6  N   UNL     1     -35.443  25.290   4.624  0.00  0.00    -0.239 N 
ATOM      7  N   UNL     1     -35.820  26.446   2.621  0.00  0.00    -0.239 N 
ATOM      8  C   UNL     1     -37.734  23.196   2.510  0.00  0.00    +0.117 C 
ATOM      9  C   UNL     1     -37.298  24.542   3.168  0.00  0.00    +0.161 C 
ATOM     10  C   UNL     1     -36.653  22.539   1.598  0.00  0.00    +0.134 C 
ATOM     11  C   UNL     1     -38.525  25.194   3.851  0.00  0.00    +0.047 C 
ATOM     12  C   UNL     1     -39.429  22.035   1.111  0.00  0.00    +0.120 C 
ATOM     13  C   UNL     1     -39.904  24.332   1.915  0.00  0.00    +0.044 C 
ATOM     14  C   UNL     1     -39.716  25.281   2.939  0.00  0.00    -0.006 C 
ATOM     15  C   UNL     1     -38.289  21.421   0.301  0.00  0.00    +0.135 C 
ATOM     16  C   UNL     1     -36.351  24.279   4.350  0.00  0.00    +0.239 C 
ATOM     17  C   UNL     1     -36.752  25.543   2.137  0.00  0.00    +0.239 C 
ATOM     18  C   UNL     1     -35.319  22.246   2.271  0.00  0.00    +0.034 C 
ATOM     19  C   UNL     1     -41.041  24.513   1.099  0.00  0.00    +0.016 C 
ATOM     20  C   UNL     1     -40.656  26.303   3.171  0.00  0.00    +0.021 C 
ATOM     21  C   UNL     1     -38.666  20.043  -0.225  0.00  0.00    +0.034 C 
ATOM     22  C   UNL     1     -35.153  26.395   3.837  0.00  0.00    +0.312 C 
ATOM     23  C   UNL     1     -41.777  26.433   2.363  0.00  0.00    +0.143 C 
ATOM     24  C   UNL     1     -41.965  25.541   1.319  0.00  0.00    +0.025 C 
ATOM     25  H   UNL     1     -34.950  25.216   5.472  0.00  0.00    +0.159 HD
ATOM     26  H   UNL     1     -35.607  27.211   2.039  0.00  0.00    +0.159 HD
ENDROOT
BRANCH  23  29
ATOM     27  O   UNL     1     -43.923  27.277   2.326  0.00  0.00    -0.126 OA
ATOM     28  O   UNL     1     -42.305  28.566   3.061  0.00  0.00    -0.126 OA
ATOM     29  N   UNL     1     -42.713  27.474   2.594  0.00  0.00    +0.058 N 
ENDBRANCH  23  29
TORSDOF 1
ENDMDL
MODEL 7
REMARK VINA RESULT:      -6.5      3.716      6.677
REMARK  Name = 52944699
REMARK  1 active torsions:
REMARK  status: ('A' for Active; 'I' for Inactive)
REMARK    1  A    between atoms: C_23  and  N_29
REMARK                            x       y       z     vdW  Elec       q    Type
REMARK                         _______ _______ _______ _____ _____    ______ ____
ROOT
ATOM      1  O   UNL     1     -34.602  24.715   5.667  0.00  0.00    -0.355 OA
ATOM      2  O   UNL     1     -38.363  25.357   3.607  0.00  0.00    -0.274 OA
ATOM      3  O   UNL     1     -35.436  21.821   2.357  0.00  0.00    -0.274 OA
ATOM      4  O   UNL     1     -39.985  21.346   2.118  0.00  0.00    -0.252 OA
ATOM      5  N   UNL     1     -35.419  25.939   3.275  0.00  0.00    -0.304 N 
ATOM      6  N   UNL     1     -37.707  21.627   2.192  0.00  0.00    -0.239 N 
ATOM      7  N   UNL     1     -39.147  23.380   2.779  0.00  0.00    -0.239 N 
ATOM      8  C   UNL     1     -35.595  24.468   3.448  0.00  0.00    +0.117 C 
ATOM      9  C   UNL     1     -36.734  23.871   2.563  0.00  0.00    +0.161 C 
ATOM     10  C   UNL     1     -35.755  24.202   4.976  0.00  0.00    +0.134 C 
ATOM     11  C   UNL     1     -36.579  24.397   1.115  0.00  0.00    +0.047 C 
ATOM     12  C   UNL     1     -34.318  26.506   4.071  0.00  0.00    +0.120 C 
ATOM     13  C   UNL     1     -35.850  26.598   2.124  0.00  0.00    +0.044 C 
ATOM     14  C   UNL     1     -36.433  25.891   1.054  0.00  0.00    -0.006 C 
ATOM     15  C   UNL     1     -34.508  26.134   5.541  0.00  0.00    +0.135 C 
ATOM     16  C   UNL     1     -36.545  22.355   2.396  0.00  0.00    +0.239 C 
ATOM     17  C   UNL     1     -38.131  24.279   3.059  0.00  0.00    +0.239 C 
ATOM     18  C   UNL     1     -35.854  22.736   5.379  0.00  0.00    +0.034 C 
ATOM     19  C   UNL     1     -35.780  28.000   1.981  0.00  0.00    +0.016 C 
ATOM     20  C   UNL     1     -36.851  26.552  -0.117  0.00  0.00    +0.021 C 
ATOM     21  C   UNL     1     -33.327  26.596   6.384  0.00  0.00    +0.034 C 
ATOM     22  C   UNL     1     -39.013  22.073   2.334  0.00  0.00    +0.312 C 
ATOM     23  C   UNL     1     -36.741  27.930  -0.232  0.00  0.00    +0.143 C 
ATOM     24  C   UNL     1     -36.212  28.657   0.823  0.00  0.00    +0.025 C 
ATOM     25  H   UNL     1     -37.592  20.690   1.915  0.00  0.00    +0.159 HD
ATOM     26  H   UNL     1     -40.067  23.705   2.908  0.00  0.00    +0.159 HD
ENDROOT
BRANCH  23  29
ATOM     27  O   UNL     1     -36.842  29.785  -1.599  0.00  0.00    -0.126 OA
ATOM     28  O   UNL     1     -37.888  27.962  -2.232  0.00  0.00    -0.126 OA
ATOM     29  N   UNL     1     -37.177  28.590  -1.410  0.00  0.00    +0.058 N 
ENDBRANCH  23  29
TORSDOF 1
ENDMDL
MODEL 8
REMARK VINA RESULT:      -6.4      2.553      6.537
REMARK  Name = 52944699
REMARK  1 active torsions:
REMARK  status: ('A' for Active; 'I' for Inactive)
REMARK    1  A    between atoms: C_23  and  N_29
REMARK                            x       y       z     vdW  Elec       q    Type
REMARK                         _______ _______ _______ _____ _____    ______ ____
ROOT
ATOM      1  O   UNL     1     -35.970  21.633  -2.792  0.00  0.00    -0.355 OA
ATOM      2  O   UNL     1     -32.974  21.514   0.339  0.00  0.00    -0.274 OA
ATOM      3  O   UNL     1     -36.087  17.962  -0.236  0.00  0.00    -0.274 OA
ATOM      4  O   UNL     1     -31.794  17.168   1.149  0.00  0.00    -0.252 OA
ATOM      5  N   UNL     1     -35.896  22.172  -0.037  0.00  0.00    -0.304 N 
ATOM      6  N   UNL     1     -33.957  17.596   0.509  0.00  0.00    -0.239 N 
ATOM      7  N   UNL     1     -32.434  19.349   0.821  0.00  0.00    -0.239 N 
ATOM      8  C   UNL     1     -35.657  20.782  -0.523  0.00  0.00    +0.117 C 
ATOM      9  C   UNL     1     -34.813  19.916   0.465  0.00  0.00    +0.161 C 
ATOM     10  C   UNL     1     -35.059  20.895  -1.959  0.00  0.00    +0.134 C 
ATOM     11  C   UNL     1     -35.388  20.074   1.893  0.00  0.00    +0.047 C 
ATOM     12  C   UNL     1     -36.729  22.985  -0.940  0.00  0.00    +0.120 C 
ATOM     13  C   UNL     1     -35.825  22.496   1.317  0.00  0.00    +0.044 C 
ATOM     14  C   UNL     1     -35.566  21.512   2.291  0.00  0.00    -0.006 C 
ATOM     15  C   UNL     1     -36.118  22.979  -2.339  0.00  0.00    +0.135 C 
ATOM     16  C   UNL     1     -35.021  18.421   0.177  0.00  0.00    +0.239 C 
ATOM     17  C   UNL     1     -33.339  20.349   0.504  0.00  0.00    +0.239 C 
ATOM     18  C   UNL     1     -34.827  19.573  -2.678  0.00  0.00    +0.034 C 
ATOM     19  C   UNL     1     -35.954  23.820   1.788  0.00  0.00    +0.016 C 
ATOM     20  C   UNL     1     -35.513  21.834   3.660  0.00  0.00    +0.021 C 
ATOM     21  C   UNL     1     -37.012  23.707  -3.335  0.00  0.00    +0.034 C 
ATOM     22  C   UNL     1     -32.672  17.982   0.860  0.00  0.00    +0.312 C 
ATOM     23  C   UNL     1     -35.671  23.144   4.088  0.00  0.00    +0.143 C 
ATOM     24  C   UNL     1     -35.883  24.141   3.149  0.00  0.00    +0.025 C 
ATOM     25  H   UNL     1     -34.133  16.628   0.492  0.00  0.00    +0.159 HD
ATOM     26  H   UNL     1     -31.520  19.639   1.044  0.00  0.00    +0.159 HD
ENDROOT
BRANCH  23  29
ATOM     27  O   UNL     1     -35.928  22.592   6.312  0.00  0.00    -0.126 OA
ATOM     28  O   UNL     1     -35.219  24.608   5.812  0.00  0.00    -0.126 OA
ATOM     29  N   UNL     1     -35.603  23.463   5.469  0.00  0.00    +0.058 N 
ENDBRANCH  23  29
TORSDOF 1
ENDMDL
MODEL 9
REMARK VINA RESULT:      -6.4      2.943      6.477
REMARK  Name = 52944699
REMARK  1 active torsions:
REMARK  status: ('A' for Active; 'I' for Inactive)
REMARK    1  A    between atoms: C_23  and  N_29
REMARK                            x       y       z     vdW  Elec       q    Type
REMARK                         _______ _______ _______ _____ _____    ______ ____
ROOT
ATOM      1  O   UNL     1     -39.424  22.744   0.769  0.00  0.00    -0.355 OA
ATOM      2  O   UNL     1     -35.237  23.794   0.371  0.00  0.00    -0.274 OA
ATOM      3  O   UNL     1     -36.585  19.839   2.645  0.00  0.00    -0.274 OA
ATOM      4  O   UNL     1     -32.723  19.975   0.186  0.00  0.00    -0.252 OA
ATOM      5  N   UNL     1     -37.476  23.955   2.389  0.00  0.00    -0.304 N 
ATOM      6  N   UNL     1     -34.634  19.947   1.460  0.00  0.00    -0.239 N 
ATOM      7  N   UNL     1     -33.955  21.904   0.365  0.00  0.00    -0.239 N 
ATOM      8  C   UNL     1     -37.310  22.531   1.977  0.00  0.00    +0.117 C 
ATOM      9  C   UNL     1     -35.824  22.053   1.976  0.00  0.00    +0.161 C 
ATOM     10  C   UNL     1     -38.046  22.360   0.612  0.00  0.00    +0.134 C 
ATOM     11  C   UNL     1     -35.153  22.485   3.302  0.00  0.00    +0.047 C 
ATOM     12  C   UNL     1     -38.877  24.404   2.437  0.00  0.00    +0.120 C 
ATOM     13  C   UNL     1     -36.513  24.611   3.155  0.00  0.00    +0.044 C 
ATOM     14  C   UNL     1     -35.360  23.941   3.609  0.00  0.00    -0.006 C 
ATOM     15  C   UNL     1     -39.546  24.130   1.091  0.00  0.00    +0.135 C 
ATOM     16  C   UNL     1     -35.755  20.519   2.042  0.00  0.00    +0.239 C 
ATOM     17  C   UNL     1     -35.016  22.669   0.822  0.00  0.00    +0.239 C 
ATOM     18  C   UNL     1     -38.079  20.942   0.058  0.00  0.00    +0.034 C 
ATOM     19  C   UNL     1     -36.603  25.983   3.475  0.00  0.00    +0.016 C 
ATOM     20  C   UNL     1     -34.396  24.596   4.399  0.00  0.00    +0.021 C 
ATOM     21  C   UNL     1     -41.030  24.466   1.135  0.00  0.00    +0.034 C 
ATOM     22  C   UNL     1     -33.696  20.572   0.651  0.00  0.00    +0.312 C 
ATOM     23  C   UNL     1     -34.534  25.940   4.717  0.00  0.00    +0.143 C 
ATOM     24  C   UNL     1     -35.636  26.637   4.246  0.00  0.00    +0.025 C 
ATOM     25  H   UNL     1     -34.488  18.991   1.640  0.00  0.00    +0.159 HD
ATOM     26  H   UNL     1     -33.313  22.357  -0.228  0.00  0.00    +0.159 HD
ENDROOT
BRANCH  23  29
ATOM     27  O   UNL     1     -32.573  27.136   4.928  0.00  0.00    -0.126 OA
ATOM     28  O   UNL     1     -33.686  26.623   6.750  0.00  0.00    -0.126 OA
ATOM     29  N   UNL     1     -33.551  26.597   5.501  0.00  0.00    +0.058 N 
ENDBRANCH  23  29
TORSDOF 1
ENDMDL
