MODEL 1
REMARK VINA RESULT:      -8.0      0.000      0.000
REMARK  Name = 196156
REMARK  8 active torsions:
REMARK  status: ('A' for Active; 'I' for Inactive)
REMARK    1  A    between atoms: O_1  and  P_2
REMARK    2  A    between atoms: O_1  and  C_19
REMARK    3  A    between atoms: P_2  and  O_4
REMARK    4  A    between atoms: P_2  and  O_6
REMARK    5  A    between atoms: O_6  and  C_9
REMARK    6  A    between atoms: C_19  and  C_22
REMARK    7  A    between atoms: C_21  and  O_35
REMARK    8  A    between atoms: C_24  and  N_27
REMARK                            x       y       z     vdW  Elec       q    Type
REMARK                         _______ _______ _______ _____ _____    ______ ____
ROOT
ATOM      1  O   UNL     1     -36.530  22.566   1.841  0.00  0.00    -0.261 OA
ENDROOT
BRANCH   1   2
ATOM      2  P   UNL     1     -36.890  21.074   1.325  0.00  0.00    +0.531 P 
ATOM      3  O   UNL     1     -37.167  20.961  -0.147  0.00  0.00    -0.215 OA
BRANCH   2   4
ATOM      4  O   UNL     1     -38.141  20.633   2.254  0.00  0.00    -0.293 OA
ATOM      5  H   UNL     1     -38.424  19.738   2.011  0.00  0.00    +0.223 HD
ENDBRANCH   2   4
BRANCH   2   6
ATOM      6  O   UNL     1     -35.687  20.132   1.862  0.00  0.00    -0.402 OA
BRANCH   6   9
ATOM      7  O   UNL     1     -31.587  17.774   1.230  0.00  0.00    -0.421 OA
ATOM      8  O   UNL     1     -29.629  16.630   0.936  0.00  0.00    -0.244 OA
ATOM      9  C   UNL     1     -34.434  20.082   1.333  0.00  0.00    +0.152 C 
ATOM     10  C   UNL     1     -31.838  19.989   0.233  0.00  0.00    +0.031 C 
ATOM     11  C   UNL     1     -33.633  18.964   1.539  0.00  0.00    +0.075 C 
ATOM     12  C   UNL     1     -32.351  18.933   0.988  0.00  0.00    +0.151 C 
ATOM     13  C   UNL     1     -33.949  21.153   0.584  0.00  0.00    +0.038 C 
ATOM     14  C   UNL     1     -32.661  21.108   0.038  0.00  0.00    +0.006 C 
ATOM     15  C   UNL     1     -30.478  19.872  -0.309  0.00  0.00    -0.012 C 
ATOM     16  C   UNL     1     -29.775  18.758  -0.063  0.00  0.00    +0.078 C 
ATOM     17  C   UNL     1     -29.898  20.991  -1.125  0.00  0.00    +0.031 C 
ATOM     18  C   UNL     1     -30.302  17.635   0.732  0.00  0.00    +0.346 C 
ENDBRANCH   6   9
ENDBRANCH   2   6
ENDBRANCH   1   2
BRANCH   1  19
ATOM     19  C   UNL     1     -36.784  22.935   3.186  0.00  0.00    +0.187 C 
BRANCH  19  22
ATOM     20  O   UNL     1     -34.549  23.699   3.593  0.00  0.00    -0.335 OA
ATOM     21  C   UNL     1     -35.737  22.938   5.497  0.00  0.00    +0.144 C 
ATOM     22  C   UNL     1     -35.519  22.718   4.007  0.00  0.00    +0.174 C 
ATOM     23  C   UNL     1     -35.467  24.414   5.670  0.00  0.00    +0.083 C 
ATOM     24  C   UNL     1     -34.387  24.674   4.632  0.00  0.00    +0.202 C 
BRANCH  24  27
ATOM     25  O   UNL     1     -32.730  26.874   5.354  0.00  0.00    -0.252 OA
ATOM     26  O   UNL     1     -34.826  29.654   2.350  0.00  0.00    -0.270 OA
ATOM     27  N   UNL     1     -34.464  25.989   4.067  0.00  0.00    -0.219 N 
ATOM     28  N   UNL     1     -33.784  28.250   3.851  0.00  0.00    -0.236 N 
ATOM     29  C   UNL     1     -35.417  26.232   3.085  0.00  0.00    +0.071 C 
ATOM     30  C   UNL     1     -33.597  27.018   4.490  0.00  0.00    +0.315 C 
ATOM     31  C   UNL     1     -35.593  27.412   2.477  0.00  0.00    +0.047 C 
ATOM     32  C   UNL     1     -34.716  28.547   2.869  0.00  0.00    +0.250 C 
ATOM     33  C   UNL     1     -36.625  27.652   1.423  0.00  0.00    +0.037 C 
ATOM     34  H   UNL     1     -33.191  28.983   4.131  0.00  0.00    +0.159 HD
ENDBRANCH  24  27
BRANCH  21  35
ATOM     35  O   UNL     1     -34.782  22.184   6.243  0.00  0.00    -0.382 OA
ATOM     36  H   UNL     1     -33.934  22.653   6.250  0.00  0.00    +0.210 HD
ENDBRANCH  21  35
ENDBRANCH  19  22
ENDBRANCH   1  19
TORSDOF 8
ENDMDL
MODEL 2
REMARK VINA RESULT:      -7.9      2.059      3.618
REMARK  Name = 196156
REMARK  8 active torsions:
REMARK  status: ('A' for Active; 'I' for Inactive)
REMARK    1  A    between atoms: O_1  and  P_2
REMARK    2  A    between atoms: O_1  and  C_19
REMARK    3  A    between atoms: P_2  and  O_4
REMARK    4  A    between atoms: P_2  and  O_6
REMARK    5  A    between atoms: O_6  and  C_9
REMARK    6  A    between atoms: C_19  and  C_22
REMARK    7  A    between atoms: C_21  and  O_35
REMARK    8  A    between atoms: C_24  and  N_27
REMARK                            x       y       z     vdW  Elec       q    Type
REMARK                         _______ _______ _______ _____ _____    ______ ____
ROOT
ATOM      1  O   UNL     1     -39.277  23.037   1.067  0.00  0.00    -0.261 OA
ENDROOT
BRANCH   1   2
ATOM      2  P   UNL     1     -38.976  21.465   1.315  0.00  0.00    +0.531 P 
ATOM      3  O   UNL     1     -38.955  20.619   0.075  0.00  0.00    -0.215 OA
BRANCH   2   4
ATOM      4  O   UNL     1     -40.108  21.017   2.383  0.00  0.00    -0.293 OA
ATOM      5  H   UNL     1     -39.727  20.386   3.013  0.00  0.00    +0.223 HD
ENDBRANCH   2   4
BRANCH   2   6
ATOM      6  O   UNL     1     -37.613  21.421   2.189  0.00  0.00    -0.402 OA
BRANCH   6   9
ATOM      7  O   UNL     1     -33.666  18.789   1.679  0.00  0.00    -0.421 OA
ATOM      8  O   UNL     1     -31.782  17.515   1.443  0.00  0.00    -0.244 OA
ATOM      9  C   UNL     1     -36.360  21.277   1.680  0.00  0.00    +0.152 C 
ATOM     10  C   UNL     1     -33.761  20.989   0.622  0.00  0.00    +0.031 C 
ATOM     11  C   UNL     1     -35.635  20.115   1.927  0.00  0.00    +0.075 C 
ATOM     12  C   UNL     1     -34.350  19.989   1.395  0.00  0.00    +0.151 C 
ATOM     13  C   UNL     1     -35.797  22.294   0.911  0.00  0.00    +0.038 C 
ATOM     14  C   UNL     1     -34.507  22.153   0.385  0.00  0.00    +0.006 C 
ATOM     15  C   UNL     1     -32.404  20.771   0.103  0.00  0.00    -0.012 C 
ATOM     16  C   UNL     1     -31.777  19.621   0.388  0.00  0.00    +0.078 C 
ATOM     17  C   UNL     1     -31.743  21.828  -0.733  0.00  0.00    +0.031 C 
ATOM     18  C   UNL     1     -32.386  18.556   1.203  0.00  0.00    +0.346 C 
ENDBRANCH   6   9
ENDBRANCH   2   6
ENDBRANCH   1   2
BRANCH   1  19
ATOM     19  C   UNL     1     -39.214  23.953   2.147  0.00  0.00    +0.187 C 
BRANCH  19  22
ATOM     20  O   UNL     1     -38.600  26.234   2.552  0.00  0.00    -0.335 OA
ATOM     21  C   UNL     1     -38.471  25.520   0.295  0.00  0.00    +0.144 C 
ATOM     22  C   UNL     1     -39.248  25.372   1.596  0.00  0.00    +0.174 C 
ATOM     23  C   UNL     1     -37.074  25.850   0.765  0.00  0.00    +0.083 C 
ATOM     24  C   UNL     1     -37.333  26.657   2.028  0.00  0.00    +0.202 C 
BRANCH  24  27
ATOM     25  O   UNL     1     -35.220  28.482   2.584  0.00  0.00    -0.252 OA
ATOM     26  O   UNL     1     -33.531  25.777   5.897  0.00  0.00    -0.270 OA
ATOM     27  N   UNL     1     -36.320  26.471   3.024  0.00  0.00    -0.219 N 
ATOM     28  N   UNL     1     -34.388  27.123   4.234  0.00  0.00    -0.236 N 
ATOM     29  C   UNL     1     -36.353  25.314   3.793  0.00  0.00    +0.071 C 
ATOM     30  C   UNL     1     -35.310  27.435   3.228  0.00  0.00    +0.315 C 
ATOM     31  C   UNL     1     -35.469  25.019   4.754  0.00  0.00    +0.047 C 
ATOM     32  C   UNL     1     -34.373  25.986   5.029  0.00  0.00    +0.250 C 
ATOM     33  C   UNL     1     -35.522  23.768   5.570  0.00  0.00    +0.037 C 
ATOM     34  H   UNL     1     -33.673  27.781   4.393  0.00  0.00    +0.159 HD
ENDBRANCH  24  27
BRANCH  21  35
ATOM     35  O   UNL     1     -38.994  26.611  -0.461  0.00  0.00    -0.382 OA
ATOM     36  H   UNL     1     -38.317  26.936  -1.073  0.00  0.00    +0.210 HD
ENDBRANCH  21  35
ENDBRANCH  19  22
ENDBRANCH   1  19
TORSDOF 8
ENDMDL
MODEL 3
REMARK VINA RESULT:      -7.7      3.981      7.110
REMARK  Name = 196156
REMARK  8 active torsions:
REMARK  status: ('A' for Active; 'I' for Inactive)
REMARK    1  A    between atoms: O_1  and  P_2
REMARK    2  A    between atoms: O_1  and  C_19
REMARK    3  A    between atoms: P_2  and  O_4
REMARK    4  A    between atoms: P_2  and  O_6
REMARK    5  A    between atoms: O_6  and  C_9
REMARK    6  A    between atoms: C_19  and  C_22
REMARK    7  A    between atoms: C_21  and  O_35
REMARK    8  A    between atoms: C_24  and  N_27
REMARK                            x       y       z     vdW  Elec       q    Type
REMARK                         _______ _______ _______ _____ _____    ______ ____
ROOT
ATOM      1  O   UNL     1     -37.438  27.413   1.887  0.00  0.00    -0.261 OA
ENDROOT
BRANCH   1   2
ATOM      2  P   UNL     1     -36.029  28.076   1.442  0.00  0.00    +0.531 P 
ATOM      3  O   UNL     1     -36.016  29.578   1.409  0.00  0.00    -0.215 OA
BRANCH   2   4
ATOM      4  O   UNL     1     -35.716  27.396   0.006  0.00  0.00    -0.293 OA
ATOM      5  H   UNL     1     -35.474  28.084  -0.632  0.00  0.00    +0.223 HD
ENDBRANCH   2   4
BRANCH   2   6
ATOM      6  O   UNL     1     -34.916  27.410   2.412  0.00  0.00    -0.402 OA
BRANCH   6   9
ATOM      7  O   UNL     1     -35.127  22.653   2.106  0.00  0.00    -0.421 OA
ATOM      8  O   UNL     1     -35.225  20.374   1.942  0.00  0.00    -0.244 OA
ATOM      9  C   UNL     1     -35.033  26.201   3.025  0.00  0.00    +0.152 C 
ATOM     10  C   UNL     1     -35.277  23.700   4.307  0.00  0.00    +0.031 C 
ATOM     11  C   UNL     1     -35.022  25.032   2.272  0.00  0.00    +0.075 C 
ATOM     12  C   UNL     1     -35.144  23.802   2.922  0.00  0.00    +0.151 C 
ATOM     13  C   UNL     1     -35.165  26.131   4.412  0.00  0.00    +0.038 C 
ATOM     14  C   UNL     1     -35.286  24.890   5.049  0.00  0.00    +0.006 C 
ATOM     15  C   UNL     1     -35.400  22.365   4.907  0.00  0.00    -0.012 C 
ATOM     16  C   UNL     1     -35.380  21.289   4.107  0.00  0.00    +0.078 C 
ATOM     17  C   UNL     1     -35.544  22.222   6.394  0.00  0.00    +0.031 C 
ATOM     18  C   UNL     1     -35.240  21.381   2.643  0.00  0.00    +0.346 C 
ENDBRANCH   6   9
ENDBRANCH   2   6
ENDBRANCH   1   2
BRANCH   1  19
ATOM     19  C   UNL     1     -38.162  26.602   0.977  0.00  0.00    +0.187 C 
BRANCH  19  22
ATOM     20  O   UNL     1     -39.931  24.985   0.967  0.00  0.00    -0.335 OA
ATOM     21  C   UNL     1     -39.329  25.836   3.096  0.00  0.00    +0.144 C 
ATOM     22  C   UNL     1     -39.477  26.186   1.622  0.00  0.00    +0.174 C 
ATOM     23  C   UNL     1     -38.999  24.362   3.068  0.00  0.00    +0.083 C 
ATOM     24  C   UNL     1     -39.784  23.873   1.861  0.00  0.00    +0.202 C 
BRANCH  24  27
ATOM     25  O   UNL     1     -40.407  21.112   2.176  0.00  0.00    -0.252 OA
ATOM     26  O   UNL     1     -37.185  19.867  -0.859  0.00  0.00    -0.270 OA
ATOM     27  N   UNL     1     -39.135  22.795   1.176  0.00  0.00    -0.219 N 
ATOM     28  N   UNL     1     -38.796  20.505   0.660  0.00  0.00    -0.236 N 
ATOM     29  C   UNL     1     -38.117  23.098   0.280  0.00  0.00    +0.071 C 
ATOM     30  C   UNL     1     -39.514  21.454   1.398  0.00  0.00    +0.315 C 
ATOM     31  C   UNL     1     -37.431  22.187  -0.423  0.00  0.00    +0.047 C 
ATOM     32  C   UNL     1     -37.774  20.751  -0.244  0.00  0.00    +0.250 C 
ATOM     33  C   UNL     1     -36.339  22.535  -1.382  0.00  0.00    +0.037 C 
ATOM     34  H   UNL     1     -39.043  19.563   0.800  0.00  0.00    +0.159 HD
ENDBRANCH  24  27
BRANCH  21  35
ATOM     35  O   UNL     1     -40.570  26.039   3.770  0.00  0.00    -0.382 OA
ATOM     36  H   UNL     1     -40.750  26.989   3.837  0.00  0.00    +0.210 HD
ENDBRANCH  21  35
ENDBRANCH  19  22
ENDBRANCH   1  19
TORSDOF 8
ENDMDL
MODEL 4
REMARK VINA RESULT:      -7.5      1.707      2.878
REMARK  Name = 196156
REMARK  8 active torsions:
REMARK  status: ('A' for Active; 'I' for Inactive)
REMARK    1  A    between atoms: O_1  and  P_2
REMARK    2  A    between atoms: O_1  and  C_19
REMARK    3  A    between atoms: P_2  and  O_4
REMARK    4  A    between atoms: P_2  and  O_6
REMARK    5  A    between atoms: O_6  and  C_9
REMARK    6  A    between atoms: C_19  and  C_22
REMARK    7  A    between atoms: C_21  and  O_35
REMARK    8  A    between atoms: C_24  and  N_27
REMARK                            x       y       z     vdW  Elec       q    Type
REMARK                         _______ _______ _______ _____ _____    ______ ____
ROOT
ATOM      1  O   UNL     1     -36.035  21.809   1.476  0.00  0.00    -0.261 OA
ENDROOT
BRANCH   1   2
ATOM      2  P   UNL     1     -35.972  20.191   1.442  0.00  0.00    +0.531 P 
ATOM      3  O   UNL     1     -36.261  19.573   0.105  0.00  0.00    -0.215 OA
BRANCH   2   4
ATOM      4  O   UNL     1     -37.010  19.738   2.601  0.00  0.00    -0.293 OA
ATOM      5  H   UNL     1     -36.593  19.069   3.164  0.00  0.00    +0.223 HD
ENDBRANCH   2   4
BRANCH   2   6
ATOM      6  O   UNL     1     -34.531  19.804   2.072  0.00  0.00    -0.402 OA
BRANCH   6   9
ATOM      7  O   UNL     1     -31.029  16.774   0.925  0.00  0.00    -0.421 OA
ATOM      8  O   UNL     1     -29.357  15.310   0.385  0.00  0.00    -0.244 OA
ATOM      9  C   UNL     1     -33.410  19.529   1.353  0.00  0.00    +0.152 C 
ATOM     10  C   UNL     1     -31.084  18.970  -0.142  0.00  0.00    +0.031 C 
ATOM     11  C   UNL     1     -32.776  18.299   1.490  0.00  0.00    +0.075 C 
ATOM     12  C   UNL     1     -31.626  18.038   0.743  0.00  0.00    +0.151 C 
ATOM     13  C   UNL     1     -32.891  20.481   0.476  0.00  0.00    +0.038 C 
ATOM     14  C   UNL     1     -31.737  20.205  -0.266  0.00  0.00    +0.006 C 
ATOM     15  C   UNL     1     -29.870  18.611  -0.888  0.00  0.00    -0.012 C 
ATOM     16  C   UNL     1     -29.324  17.402  -0.695  0.00  0.00    +0.078 C 
ATOM     17  C   UNL     1     -29.263  19.592  -1.847  0.00  0.00    +0.031 C 
ATOM     18  C   UNL     1     -29.885  16.407   0.236  0.00  0.00    +0.346 C 
ENDBRANCH   6   9
ENDBRANCH   2   6
ENDBRANCH   1   2
BRANCH   1  19
ATOM     19  C   UNL     1     -37.121  22.493   0.873  0.00  0.00    +0.187 C 
BRANCH  19  22
ATOM     20  O   UNL     1     -37.644  22.855   3.184  0.00  0.00    -0.335 OA
ATOM     21  C   UNL     1     -39.129  23.847   1.625  0.00  0.00    +0.144 C 
ATOM     22  C   UNL     1     -38.243  22.638   1.891  0.00  0.00    +0.174 C 
ATOM     23  C   UNL     1     -38.439  24.954   2.388  0.00  0.00    +0.083 C 
ATOM     24  C   UNL     1     -37.858  24.216   3.584  0.00  0.00    +0.202 C 
BRANCH  24  27
ATOM     25  O   UNL     1     -36.213  23.131   5.639  0.00  0.00    -0.252 OA
ATOM     26  O   UNL     1     -33.132  26.515   5.190  0.00  0.00    -0.270 OA
ATOM     27  N   UNL     1     -36.620  24.779   4.036  0.00  0.00    -0.219 N 
ATOM     28  N   UNL     1     -34.684  24.825   5.405  0.00  0.00    -0.236 N 
ATOM     29  C   UNL     1     -36.167  25.948   3.438  0.00  0.00    +0.071 C 
ATOM     30  C   UNL     1     -35.872  24.167   5.065  0.00  0.00    +0.315 C 
ATOM     31  C   UNL     1     -35.030  26.575   3.766  0.00  0.00    +0.047 C 
ATOM     32  C   UNL     1     -34.186  25.991   4.842  0.00  0.00    +0.250 C 
ATOM     33  C   UNL     1     -34.561  27.833   3.110  0.00  0.00    +0.037 C 
ATOM     34  H   UNL     1     -34.146  24.417   6.120  0.00  0.00    +0.159 HD
ENDBRANCH  24  27
BRANCH  21  35
ATOM     35  O   UNL     1     -40.429  23.625   2.171  0.00  0.00    -0.382 OA
ATOM     36  H   UNL     1     -40.381  22.936   2.850  0.00  0.00    +0.210 HD
ENDBRANCH  21  35
ENDBRANCH  19  22
ENDBRANCH   1  19
TORSDOF 8
ENDMDL
MODEL 5
REMARK VINA RESULT:      -7.5      4.776     11.344
REMARK  Name = 196156
REMARK  8 active torsions:
REMARK  status: ('A' for Active; 'I' for Inactive)
REMARK    1  A    between atoms: O_1  and  P_2
REMARK    2  A    between atoms: O_1  and  C_19
REMARK    3  A    between atoms: P_2  and  O_4
REMARK    4  A    between atoms: P_2  and  O_6
REMARK    5  A    between atoms: O_6  and  C_9
REMARK    6  A    between atoms: C_19  and  C_22
REMARK    7  A    between atoms: C_21  and  O_35
REMARK    8  A    between atoms: C_24  and  N_27
REMARK                            x       y       z     vdW  Elec       q    Type
REMARK                         _______ _______ _______ _____ _____    ______ ____
ROOT
ATOM      1  O   UNL     1     -36.427  28.155   1.877  0.00  0.00    -0.261 OA
ENDROOT
BRANCH   1   2
ATOM      2  P   UNL     1     -35.743  29.577   1.512  0.00  0.00    +0.531 P 
ATOM      3  O   UNL     1     -34.429  29.483   0.790  0.00  0.00    -0.215 OA
BRANCH   2   4
ATOM      4  O   UNL     1     -35.642  30.336   2.939  0.00  0.00    -0.293 OA
ATOM      5  H   UNL     1     -36.042  29.784   3.628  0.00  0.00    +0.223 HD
ENDBRANCH   2   4
BRANCH   2   6
ATOM      6  O   UNL     1     -36.887  30.416   0.732  0.00  0.00    -0.402 OA
BRANCH   6   9
ATOM      7  O   UNL     1     -39.573  34.068   2.222  0.00  0.00    -0.421 OA
ATOM      8  O   UNL     1     -40.870  35.807   2.943  0.00  0.00    -0.244 OA
ATOM      9  C   UNL     1     -37.084  31.758   0.838  0.00  0.00    +0.152 C 
ATOM     10  C   UNL     1     -37.483  34.543   1.050  0.00  0.00    +0.031 C 
ATOM     11  C   UNL     1     -38.220  32.250   1.472  0.00  0.00    +0.075 C 
ATOM     12  C   UNL     1     -38.403  33.631   1.569  0.00  0.00    +0.151 C 
ATOM     13  C   UNL     1     -36.147  32.646   0.310  0.00  0.00    +0.038 C 
ATOM     14  C   UNL     1     -36.344  34.028   0.414  0.00  0.00    +0.006 C 
ATOM     15  C   UNL     1     -37.755  35.979   1.197  0.00  0.00    -0.012 C 
ATOM     16  C   UNL     1     -38.876  36.366   1.823  0.00  0.00    +0.078 C 
ATOM     17  C   UNL     1     -36.785  36.985   0.650  0.00  0.00    +0.031 C 
ATOM     18  C   UNL     1     -39.856  35.416   2.375  0.00  0.00    +0.346 C 
ENDBRANCH   6   9
ENDBRANCH   2   6
ENDBRANCH   1   2
BRANCH   1  19
ATOM     19  C   UNL     1     -35.616  27.025   2.153  0.00  0.00    +0.187 C 
BRANCH  19  22
ATOM     20  O   UNL     1     -35.853  25.802   4.201  0.00  0.00    -0.335 OA
ATOM     21  C   UNL     1     -33.791  26.936   3.913  0.00  0.00    +0.144 C 
ATOM     22  C   UNL     1     -35.287  27.002   3.640  0.00  0.00    +0.174 C 
ATOM     23  C   UNL     1     -33.512  25.451   3.938  0.00  0.00    +0.083 C 
ATOM     24  C   UNL     1     -34.797  24.886   4.522  0.00  0.00    +0.202 C 
BRANCH  24  27
ATOM     25  O   UNL     1     -35.807  22.708   6.054  0.00  0.00    -0.252 OA
ATOM     26  O   UNL     1     -35.979  19.973   2.361  0.00  0.00    -0.270 OA
ATOM     27  N   UNL     1     -35.119  23.589   4.005  0.00  0.00    -0.219 N 
ATOM     28  N   UNL     1     -35.888  21.354   4.204  0.00  0.00    -0.236 N 
ATOM     29  C   UNL     1     -34.930  23.352   2.649  0.00  0.00    +0.071 C 
ATOM     30  C   UNL     1     -35.616  22.569   4.844  0.00  0.00    +0.315 C 
ATOM     31  C   UNL     1     -35.191  22.188   2.039  0.00  0.00    +0.047 C 
ATOM     32  C   UNL     1     -35.719  21.065   2.858  0.00  0.00    +0.250 C 
ATOM     33  C   UNL     1     -34.981  21.955   0.578  0.00  0.00    +0.037 C 
ATOM     34  H   UNL     1     -36.235  20.628   4.770  0.00  0.00    +0.159 HD
ENDBRANCH  24  27
BRANCH  21  35
ATOM     35  O   UNL     1     -33.506  27.501   5.192  0.00  0.00    -0.382 OA
ATOM     36  H   UNL     1     -34.186  28.154   5.416  0.00  0.00    +0.210 HD
ENDBRANCH  21  35
ENDBRANCH  19  22
ENDBRANCH   1  19
TORSDOF 8
ENDMDL
MODEL 6
REMARK VINA RESULT:      -7.5      3.342      6.014
REMARK  Name = 196156
REMARK  8 active torsions:
REMARK  status: ('A' for Active; 'I' for Inactive)
REMARK    1  A    between atoms: O_1  and  P_2
REMARK    2  A    between atoms: O_1  and  C_19
REMARK    3  A    between atoms: P_2  and  O_4
REMARK    4  A    between atoms: P_2  and  O_6
REMARK    5  A    between atoms: O_6  and  C_9
REMARK    6  A    between atoms: C_19  and  C_22
REMARK    7  A    between atoms: C_21  and  O_35
REMARK    8  A    between atoms: C_24  and  N_27
REMARK                            x       y       z     vdW  Elec       q    Type
REMARK                         _______ _______ _______ _____ _____    ______ ____
ROOT
ATOM      1  O   UNL     1     -36.782  21.241  -1.285  0.00  0.00    -0.261 OA
ENDROOT
BRANCH   1   2
ATOM      2  P   UNL     1     -35.468  22.175  -1.433  0.00  0.00    +0.531 P 
ATOM      3  O   UNL     1     -35.745  23.646  -1.559  0.00  0.00    -0.215 OA
BRANCH   2   4
ATOM      4  O   UNL     1     -34.691  21.553  -2.711  0.00  0.00    -0.293 OA
ATOM      5  H   UNL     1     -33.781  21.333  -2.460  0.00  0.00    +0.223 HD
ENDBRANCH   2   4
BRANCH   2   6
ATOM      6  O   UNL     1     -34.511  21.769  -0.191  0.00  0.00    -0.402 OA
BRANCH   6   9
ATOM      7  O   UNL     1     -34.905  25.082   3.220  0.00  0.00    -0.421 OA
ATOM      8  O   UNL     1     -35.092  26.682   4.843  0.00  0.00    -0.244 OA
ATOM      9  C   UNL     1     -34.739  22.087   1.112  0.00  0.00    +0.152 C 
ATOM     10  C   UNL     1     -35.214  22.734   3.816  0.00  0.00    +0.031 C 
ATOM     11  C   UNL     1     -34.711  23.416   1.522  0.00  0.00    +0.075 C 
ATOM     12  C   UNL     1     -34.948  23.719   2.864  0.00  0.00    +0.151 C 
ATOM     13  C   UNL     1     -35.003  21.081   2.040  0.00  0.00    +0.038 C 
ATOM     14  C   UNL     1     -35.239  21.400   3.382  0.00  0.00    +0.006 C 
ATOM     15  C   UNL     1     -35.452  23.143   5.207  0.00  0.00    -0.012 C 
ATOM     16  C   UNL     1     -35.406  24.447   5.516  0.00  0.00    +0.078 C 
ATOM     17  C   UNL     1     -35.742  22.107   6.253  0.00  0.00    +0.031 C 
ATOM     18  C   UNL     1     -35.125  25.498   4.523  0.00  0.00    +0.346 C 
ENDBRANCH   6   9
ENDBRANCH   2   6
ENDBRANCH   1   2
BRANCH   1  19
ATOM     19  C   UNL     1     -38.071  21.829  -1.225  0.00  0.00    +0.187 C 
BRANCH  19  22
ATOM     20  O   UNL     1     -38.172  22.225   1.137  0.00  0.00    -0.335 OA
ATOM     21  C   UNL     1     -40.236  21.707   0.092  0.00  0.00    +0.144 C 
ATOM     22  C   UNL     1     -38.740  21.425   0.082  0.00  0.00    +0.174 C 
ATOM     23  C   UNL     1     -40.315  23.123   0.614  0.00  0.00    +0.083 C 
ATOM     24  C   UNL     1     -39.144  23.181   1.582  0.00  0.00    +0.202 C 
BRANCH  24  27
ATOM     25  O   UNL     1     -38.649  24.650   3.971  0.00  0.00    -0.252 OA
ATOM     26  O   UNL     1     -36.808  28.156   1.633  0.00  0.00    -0.270 OA
ATOM     27  N   UNL     1     -38.539  24.479   1.646  0.00  0.00    -0.219 N 
ATOM     28  N   UNL     1     -37.733  26.392   2.792  0.00  0.00    -0.236 N 
ATOM     29  C   UNL     1     -38.156  25.089   0.458  0.00  0.00    +0.071 C 
ATOM     30  C   UNL     1     -38.334  25.130   2.881  0.00  0.00    +0.315 C 
ATOM     31  C   UNL     1     -37.582  26.296   0.377  0.00  0.00    +0.047 C 
ATOM     32  C   UNL     1     -37.332  27.045   1.637  0.00  0.00    +0.250 C 
ATOM     33  C   UNL     1     -37.176  26.934  -0.912  0.00  0.00    +0.037 C 
ATOM     34  H   UNL     1     -37.581  26.865   3.641  0.00  0.00    +0.159 HD
ENDBRANCH  24  27
BRANCH  21  35
ATOM     35  O   UNL     1     -40.891  20.823   1.000  0.00  0.00    -0.382 OA
ATOM     36  H   UNL     1     -40.858  19.919   0.651  0.00  0.00    +0.210 HD
ENDBRANCH  21  35
ENDBRANCH  19  22
ENDBRANCH   1  19
TORSDOF 8
ENDMDL
MODEL 7
REMARK VINA RESULT:      -7.4      1.945      2.819
REMARK  Name = 196156
REMARK  8 active torsions:
REMARK  status: ('A' for Active; 'I' for Inactive)
REMARK    1  A    between atoms: O_1  and  P_2
REMARK    2  A    between atoms: O_1  and  C_19
REMARK    3  A    between atoms: P_2  and  O_4
REMARK    4  A    between atoms: P_2  and  O_6
REMARK    5  A    between atoms: O_6  and  C_9
REMARK    6  A    between atoms: C_19  and  C_22
REMARK    7  A    between atoms: C_21  and  O_35
REMARK    8  A    between atoms: C_24  and  N_27
REMARK                            x       y       z     vdW  Elec       q    Type
REMARK                         _______ _______ _______ _____ _____    ______ ____
ROOT
ATOM      1  O   UNL     1     -35.092  22.971   3.031  0.00  0.00    -0.261 OA
ENDROOT
BRANCH   1   2
ATOM      2  P   UNL     1     -36.208  21.845   2.702  0.00  0.00    +0.531 P 
ATOM      3  O   UNL     1     -37.632  22.311   2.813  0.00  0.00    -0.215 OA
BRANCH   2   4
ATOM      4  O   UNL     1     -35.845  20.632   3.712  0.00  0.00    -0.293 OA
ATOM      5  H   UNL     1     -36.592  20.475   4.310  0.00  0.00    +0.223 HD
ENDBRANCH   2   4
BRANCH   2   6
ATOM      6  O   UNL     1     -35.801  21.247   1.253  0.00  0.00    -0.402 OA
BRANCH   6   9
ATOM      7  O   UNL     1     -32.026  18.333   1.100  0.00  0.00    -0.421 OA
ATOM      8  O   UNL     1     -30.225  16.925   1.034  0.00  0.00    -0.244 OA
ATOM      9  C   UNL     1     -34.530  20.998   0.837  0.00  0.00    +0.152 C 
ATOM     10  C   UNL     1     -31.894  20.494  -0.032  0.00  0.00    +0.031 C 
ATOM     11  C   UNL     1     -33.908  19.800   1.169  0.00  0.00    +0.075 C 
ATOM     12  C   UNL     1     -32.603  19.565   0.731  0.00  0.00    +0.151 C 
ATOM     13  C   UNL     1     -33.846  21.945   0.075  0.00  0.00    +0.038 C 
ATOM     14  C   UNL     1     -32.538  21.696  -0.356  0.00  0.00    +0.006 C 
ATOM     15  C   UNL     1     -30.525  20.164  -0.450  0.00  0.00    -0.012 C 
ATOM     16  C   UNL     1     -30.001  18.984  -0.085  0.00  0.00    +0.078 C 
ATOM     17  C   UNL     1     -29.737  21.141  -1.271  0.00  0.00    +0.031 C 
ATOM     18  C   UNL     1     -30.737  17.995   0.720  0.00  0.00    +0.346 C 
ENDBRANCH   6   9
ENDBRANCH   2   6
ENDBRANCH   1   2
BRANCH   1  19
ATOM     19  C   UNL     1     -34.783  23.296   4.376  0.00  0.00    +0.187 C 
BRANCH  19  22
ATOM     20  O   UNL     1     -34.492  25.396   3.258  0.00  0.00    -0.335 OA
ATOM     21  C   UNL     1     -34.444  25.477   5.627  0.00  0.00    +0.144 C 
ATOM     22  C   UNL     1     -34.070  24.641   4.410  0.00  0.00    +0.174 C 
ATOM     23  C   UNL     1     -35.653  26.250   5.154  0.00  0.00    +0.083 C 
ATOM     24  C   UNL     1     -35.348  26.467   3.680  0.00  0.00    +0.202 C 
BRANCH  24  27
ATOM     25  O   UNL     1     -35.610  27.830   1.194  0.00  0.00    -0.252 OA
ATOM     26  O   UNL     1     -39.956  26.415   0.685  0.00  0.00    -0.270 OA
ATOM     27  N   UNL     1     -36.527  26.483   2.865  0.00  0.00    -0.219 N 
ATOM     28  N   UNL     1     -37.777  27.117   0.952  0.00  0.00    -0.236 N 
ATOM     29  C   UNL     1     -37.644  25.784   3.304  0.00  0.00    +0.071 C 
ATOM     30  C   UNL     1     -36.562  27.189   1.644  0.00  0.00    +0.315 C 
ATOM     31  C   UNL     1     -38.806  25.717   2.640  0.00  0.00    +0.047 C 
ATOM     32  C   UNL     1     -38.920  26.436   1.343  0.00  0.00    +0.250 C 
ATOM     33  C   UNL     1     -39.996  24.959   3.131  0.00  0.00    +0.037 C 
ATOM     34  H   UNL     1     -37.825  27.603   0.098  0.00  0.00    +0.159 HD
ENDBRANCH  24  27
BRANCH  21  35
ATOM     35  O   UNL     1     -33.386  26.382   5.937  0.00  0.00    -0.382 OA
ATOM     36  H   UNL     1     -32.672  26.279   5.289  0.00  0.00    +0.210 HD
ENDBRANCH  21  35
ENDBRANCH  19  22
ENDBRANCH   1  19
TORSDOF 8
ENDMDL
MODEL 8
REMARK VINA RESULT:      -7.4      1.686      2.252
REMARK  Name = 196156
REMARK  8 active torsions:
REMARK  status: ('A' for Active; 'I' for Inactive)
REMARK    1  A    between atoms: O_1  and  P_2
REMARK    2  A    between atoms: O_1  and  C_19
REMARK    3  A    between atoms: P_2  and  O_4
REMARK    4  A    between atoms: P_2  and  O_6
REMARK    5  A    between atoms: O_6  and  C_9
REMARK    6  A    between atoms: C_19  and  C_22
REMARK    7  A    between atoms: C_21  and  O_35
REMARK    8  A    between atoms: C_24  and  N_27
REMARK                            x       y       z     vdW  Elec       q    Type
REMARK                         _______ _______ _______ _____ _____    ______ ____
ROOT
ATOM      1  O   UNL     1     -34.789  22.510   1.969  0.00  0.00    -0.261 OA
ENDROOT
BRANCH   1   2
ATOM      2  P   UNL     1     -35.854  21.291   1.993  0.00  0.00    +0.531 P 
ATOM      3  O   UNL     1     -37.288  21.697   1.809  0.00  0.00    -0.215 OA
BRANCH   2   4
ATOM      4  O   UNL     1     -35.568  20.552   3.405  0.00  0.00    -0.293 OA
ATOM      5  H   UNL     1     -35.456  19.601   3.255  0.00  0.00    +0.223 HD
ENDBRANCH   2   4
BRANCH   2   6
ATOM      6  O   UNL     1     -35.308  20.223   0.905  0.00  0.00    -0.402 OA
BRANCH   6   9
ATOM      7  O   UNL     1     -30.913  21.124  -0.720  0.00  0.00    -0.421 OA
ATOM      8  O   UNL     1     -28.812  21.572  -1.504  0.00  0.00    -0.244 OA
ATOM      9  C   UNL     1     -34.010  19.840   0.765  0.00  0.00    +0.152 C 
ATOM     10  C   UNL     1     -31.321  19.036   0.481  0.00  0.00    +0.031 C 
ATOM     11  C   UNL     1     -33.107  20.662   0.098  0.00  0.00    +0.075 C 
ATOM     12  C   UNL     1     -31.780  20.249  -0.034  0.00  0.00    +0.151 C 
ATOM     13  C   UNL     1     -33.580  18.622   1.290  0.00  0.00    +0.038 C 
ATOM     14  C   UNL     1     -32.246  18.222   1.149  0.00  0.00    +0.006 C 
ATOM     15  C   UNL     1     -29.907  18.682   0.295  0.00  0.00    -0.012 C 
ATOM     16  C   UNL     1     -29.105  19.534  -0.361  0.00  0.00    +0.078 C 
ATOM     17  C   UNL     1     -29.383  17.385   0.837  0.00  0.00    +0.031 C 
ATOM     18  C   UNL     1     -29.575  20.817  -0.910  0.00  0.00    +0.346 C 
ENDBRANCH   6   9
ENDBRANCH   2   6
ENDBRANCH   1   2
BRANCH   1  19
ATOM     19  C   UNL     1     -35.073  23.717   2.656  0.00  0.00    +0.187 C 
BRANCH  19  22
ATOM     20  O   UNL     1     -33.722  24.445   4.497  0.00  0.00    -0.335 OA
ATOM     21  C   UNL     1     -35.959  23.870   5.029  0.00  0.00    +0.144 C 
ATOM     22  C   UNL     1     -34.774  23.528   4.137  0.00  0.00    +0.174 C 
ATOM     23  C   UNL     1     -35.778  25.347   5.290  0.00  0.00    +0.083 C 
ATOM     24  C   UNL     1     -34.265  25.493   5.312  0.00  0.00    +0.202 C 
BRANCH  24  27
ATOM     25  O   UNL     1     -32.292  27.143   6.535  0.00  0.00    -0.252 OA
ATOM     26  O   UNL     1     -32.686  30.336   3.249  0.00  0.00    -0.270 OA
ATOM     27  N   UNL     1     -33.821  26.761   4.813  0.00  0.00    -0.219 N 
ATOM     28  N   UNL     1     -32.499  28.728   4.889  0.00  0.00    -0.236 N 
ATOM     29  C   UNL     1     -34.386  27.244   3.639  0.00  0.00    +0.071 C 
ATOM     30  C   UNL     1     -32.835  27.510   5.491  0.00  0.00    +0.315 C 
ATOM     31  C   UNL     1     -34.063  28.411   3.067  0.00  0.00    +0.047 C 
ATOM     32  C   UNL     1     -33.029  29.257   3.722  0.00  0.00    +0.250 C 
ATOM     33  C   UNL     1     -34.683  28.912   1.803  0.00  0.00    +0.037 C 
ATOM     34  H   UNL     1     -31.813  29.267   5.345  0.00  0.00    +0.159 HD
ENDBRANCH  24  27
BRANCH  21  35
ATOM     35  O   UNL     1     -35.867  23.149   6.256  0.00  0.00    -0.382 OA
ATOM     36  H   UNL     1     -36.034  22.209   6.093  0.00  0.00    +0.210 HD
ENDBRANCH  21  35
ENDBRANCH  19  22
ENDBRANCH   1  19
TORSDOF 8
ENDMDL
MODEL 9
REMARK VINA RESULT:      -7.4      1.824      2.352
REMARK  Name = 196156
REMARK  8 active torsions:
REMARK  status: ('A' for Active; 'I' for Inactive)
REMARK    1  A    between atoms: O_1  and  P_2
REMARK    2  A    between atoms: O_1  and  C_19
REMARK    3  A    between atoms: P_2  and  O_4
REMARK    4  A    between atoms: P_2  and  O_6
REMARK    5  A    between atoms: O_6  and  C_9
REMARK    6  A    between atoms: C_19  and  C_22
REMARK    7  A    between atoms: C_21  and  O_35
REMARK    8  A    between atoms: C_24  and  N_27
REMARK                            x       y       z     vdW  Elec       q    Type
REMARK                         _______ _______ _______ _____ _____    ______ ____
ROOT
ATOM      1  O   UNL     1     -37.503  21.687   2.605  0.00  0.00    -0.261 OA
ENDROOT
BRANCH   1   2
ATOM      2  P   UNL     1     -38.239  21.914   1.180  0.00  0.00    +0.531 P 
ATOM      3  O   UNL     1     -38.907  23.249   1.016  0.00  0.00    -0.215 OA
BRANCH   2   4
ATOM      4  O   UNL     1     -39.261  20.662   1.068  0.00  0.00    -0.293 OA
ATOM      5  H   UNL     1     -39.555  20.404   1.955  0.00  0.00    +0.223 HD
ENDBRANCH   2   4
BRANCH   2   6
ATOM      6  O   UNL     1     -37.120  21.572   0.060  0.00  0.00    -0.402 OA
BRANCH   6   9
ATOM      7  O   UNL     1     -35.594  17.072  -0.368  0.00  0.00    -0.421 OA
ATOM      8  O   UNL     1     -34.877  14.911  -0.580  0.00  0.00    -0.244 OA
ATOM      9  C   UNL     1     -36.125  20.655   0.200  0.00  0.00    +0.152 C 
ATOM     10  C   UNL     1     -34.055  18.762   0.494  0.00  0.00    +0.031 C 
ATOM     11  C   UNL     1     -36.345  19.327  -0.149  0.00  0.00    +0.075 C 
ATOM     12  C   UNL     1     -35.310  18.402   0.003  0.00  0.00    +0.151 C 
ATOM     13  C   UNL     1     -34.881  21.044   0.694  0.00  0.00    +0.038 C 
ATOM     14  C   UNL     1     -33.853  20.105   0.841  0.00  0.00    +0.006 C 
ATOM     15  C   UNL     1     -33.024  17.723   0.621  0.00  0.00    -0.012 C 
ATOM     16  C   UNL     1     -33.321  16.466   0.261  0.00  0.00    +0.078 C 
ATOM     17  C   UNL     1     -31.664  18.078   1.146  0.00  0.00    +0.031 C 
ATOM     18  C   UNL     1     -34.642  16.071  -0.259  0.00  0.00    +0.346 C 
ENDBRANCH   6   9
ENDBRANCH   2   6
ENDBRANCH   1   2
BRANCH   1  19
ATOM     19  C   UNL     1     -37.042  22.799   3.353  0.00  0.00    +0.187 C 
BRANCH  19  22
ATOM     20  O   UNL     1     -34.735  23.446   3.437  0.00  0.00    -0.335 OA
ATOM     21  C   UNL     1     -35.635  22.584   5.453  0.00  0.00    +0.144 C 
ATOM     22  C   UNL     1     -35.673  22.473   3.936  0.00  0.00    +0.174 C 
ATOM     23  C   UNL     1     -35.268  24.031   5.682  0.00  0.00    +0.083 C 
ATOM     24  C   UNL     1     -34.359  24.331   4.501  0.00  0.00    +0.202 C 
BRANCH  24  27
ATOM     25  O   UNL     1     -32.856  26.522   5.525  0.00  0.00    -0.252 OA
ATOM     26  O   UNL     1     -34.886  29.476   2.644  0.00  0.00    -0.270 OA
ATOM     27  N   UNL     1     -34.462  25.687   4.050  0.00  0.00    -0.219 N 
ATOM     28  N   UNL     1     -33.877  27.985   4.083  0.00  0.00    -0.236 N 
ATOM     29  C   UNL     1     -35.361  25.980   3.032  0.00  0.00    +0.071 C 
ATOM     30  C   UNL     1     -33.673  26.709   4.621  0.00  0.00    +0.315 C 
ATOM     31  C   UNL     1     -35.554  27.202   2.520  0.00  0.00    +0.047 C 
ATOM     32  C   UNL     1     -34.758  28.332   3.069  0.00  0.00    +0.250 C 
ATOM     33  C   UNL     1     -36.527  27.495   1.425  0.00  0.00    +0.037 C 
ATOM     34  H   UNL     1     -33.337  28.714   4.466  0.00  0.00    +0.159 HD
ENDBRANCH  24  27
BRANCH  21  35
ATOM     35  O   UNL     1     -34.611  21.740   5.976  0.00  0.00    -0.382 OA
ATOM     36  H   UNL     1     -33.945  22.280   6.428  0.00  0.00    +0.210 HD
ENDBRANCH  21  35
ENDBRANCH  19  22
ENDBRANCH   1  19
TORSDOF 8
ENDMDL
