MODEL 1
REMARK VINA RESULT:      -5.9      0.000      0.000
REMARK  Name = 5063
REMARK  13 active torsions:
REMARK  status: ('A' for Active; 'I' for Inactive)
REMARK    1  A    between atoms: C_1  and  C_2
REMARK    2  A    between atoms: C_1  and  C_17
REMARK    3  A    between atoms: C_2  and  C_3
REMARK    4  A    between atoms: C_3  and  C_4
REMARK    5  A    between atoms: C_4  and  N_6
REMARK    6  A    between atoms: C_7  and  O_9
REMARK    7  A    between atoms: O_9  and  N_10
REMARK    8  A    between atoms: N_10  and  C_16
REMARK    9  A    between atoms: C_17  and  C_18
REMARK   10  A    between atoms: C_18  and  N_20
REMARK   11  A    between atoms: C_21  and  O_23
REMARK   12  A    between atoms: O_23  and  N_24
REMARK   13  A    between atoms: N_24  and  C_30
REMARK                            x       y       z     vdW  Elec       q    Type
REMARK                         _______ _______ _______ _____ _____    ______ ____
ROOT
ATOM      1  C   UNL     1     -34.830  23.940   5.359  0.00  0.00    +0.002 C 
ENDROOT
BRANCH   1   2
ATOM      2  C   UNL     1     -35.852  25.040   5.661  0.00  0.00    +0.002 C 
BRANCH   2   3
ATOM      3  C   UNL     1     -36.610  25.525   4.420  0.00  0.00    +0.021 C 
BRANCH   3   4
ATOM      4  C   UNL     1     -35.745  26.212   3.366  0.00  0.00    +0.093 C 
BRANCH   4   6
ATOM      5  O   UNL     1     -32.874  26.395   3.693  0.00  0.00    -0.225 OA
ATOM      6  N   UNL     1     -34.993  27.313   3.901  0.00  0.00    -0.269 N 
ATOM      7  C   UNL     1     -33.614  27.317   4.022  0.00  0.00    +0.421 C 
ATOM      8  H   UNL     1     -35.487  28.111   4.199  0.00  0.00    +0.153 HD
BRANCH   7   9
ATOM      9  O   UNL     1     -33.201  28.502   4.567  0.00  0.00    -0.333 OA
BRANCH   9  10
ATOM     10  N   UNL     1     -32.529  28.239   5.769  0.00  0.00    -0.024 NA
BRANCH  10  16
ATOM     11  C   UNL     1     -29.566  31.038   5.249  0.00  0.00    +0.000 C 
ATOM     12  C   UNL     1     -31.043  31.366   5.016  0.00  0.00    +0.002 C 
ATOM     13  C   UNL     1     -29.307  29.534   5.156  0.00  0.00    +0.002 C 
ATOM     14  C   UNL     1     -31.950  30.615   5.985  0.00  0.00    +0.021 C 
ATOM     15  C   UNL     1     -30.179  28.749   6.128  0.00  0.00    +0.021 C 
ATOM     16  C   UNL     1     -31.621  29.143   5.937  0.00  0.00    +0.116 C 
ENDBRANCH  10  16
ENDBRANCH   9  10
ENDBRANCH   7   9
ENDBRANCH   4   6
ENDBRANCH   3   4
ENDBRANCH   2   3
ENDBRANCH   1   2
BRANCH   1  17
ATOM     17  C   UNL     1     -35.146  22.663   6.144  0.00  0.00    +0.021 C 
BRANCH  17  18
ATOM     18  C   UNL     1     -35.256  21.435   5.245  0.00  0.00    +0.093 C 
BRANCH  18  20
ATOM     19  O   UNL     1     -34.938  20.140   2.676  0.00  0.00    -0.225 OA
ATOM     20  N   UNL     1     -35.984  21.701   4.034  0.00  0.00    -0.269 N 
ATOM     21  C   UNL     1     -35.766  21.030   2.844  0.00  0.00    +0.421 C 
ATOM     22  H   UNL     1     -36.677  22.400   4.054  0.00  0.00    +0.153 HD
BRANCH  21  23
ATOM     23  O   UNL     1     -36.610  21.511   1.881  0.00  0.00    -0.333 OA
BRANCH  23  24
ATOM     24  N   UNL     1     -36.492  22.907   1.829  0.00  0.00    -0.024 NA
BRANCH  24  30
ATOM     25  C   UNL     1     -39.926  25.155   1.637  0.00  0.00    +0.000 C 
ATOM     26  C   UNL     1     -39.675  24.124   2.739  0.00  0.00    +0.002 C 
ATOM     27  C   UNL     1     -38.617  25.617   0.995  0.00  0.00    +0.002 C 
ATOM     28  C   UNL     1     -38.892  22.923   2.220  0.00  0.00    +0.021 C 
ATOM     29  C   UNL     1     -37.812  24.446   0.444  0.00  0.00    +0.021 C 
ATOM     30  C   UNL     1     -37.645  23.404   1.522  0.00  0.00    +0.116 C 
ENDBRANCH  24  30
ENDBRANCH  23  24
ENDBRANCH  21  23
ENDBRANCH  18  20
ENDBRANCH  17  18
ENDBRANCH   1  17
TORSDOF 13
ENDMDL
MODEL 2
REMARK VINA RESULT:      -5.8      1.957      8.454
REMARK  Name = 5063
REMARK  13 active torsions:
REMARK  status: ('A' for Active; 'I' for Inactive)
REMARK    1  A    between atoms: C_1  and  C_2
REMARK    2  A    between atoms: C_1  and  C_17
REMARK    3  A    between atoms: C_2  and  C_3
REMARK    4  A    between atoms: C_3  and  C_4
REMARK    5  A    between atoms: C_4  and  N_6
REMARK    6  A    between atoms: C_7  and  O_9
REMARK    7  A    between atoms: O_9  and  N_10
REMARK    8  A    between atoms: N_10  and  C_16
REMARK    9  A    between atoms: C_17  and  C_18
REMARK   10  A    between atoms: C_18  and  N_20
REMARK   11  A    between atoms: C_21  and  O_23
REMARK   12  A    between atoms: O_23  and  N_24
REMARK   13  A    between atoms: N_24  and  C_30
REMARK                            x       y       z     vdW  Elec       q    Type
REMARK                         _______ _______ _______ _____ _____    ______ ____
ROOT
ATOM      1  C   UNL     1     -35.348  23.238   2.887  0.00  0.00    +0.002 C 
ENDROOT
BRANCH   1   2
ATOM      2  C   UNL     1     -35.045  22.081   1.931  0.00  0.00    +0.002 C 
BRANCH   2   3
ATOM      3  C   UNL     1     -35.650  20.745   2.380  0.00  0.00    +0.021 C 
BRANCH   3   4
ATOM      4  C   UNL     1     -36.945  20.356   1.674  0.00  0.00    +0.093 C 
BRANCH   4   6
ATOM      5  O   UNL     1     -39.323  21.131   0.215  0.00  0.00    -0.225 OA
ATOM      6  N   UNL     1     -38.085  21.074   2.174  0.00  0.00    -0.269 N 
ATOM      7  C   UNL     1     -39.185  21.405   1.403  0.00  0.00    +0.421 C 
ATOM      8  H   UNL     1     -38.083  21.346   3.121  0.00  0.00    +0.153 HD
BRANCH   7   9
ATOM      9  O   UNL     1     -40.095  22.086   2.164  0.00  0.00    -0.333 OA
BRANCH   9  10
ATOM     10  N   UNL     1     -40.641  23.125   1.396  0.00  0.00    -0.024 NA
BRANCH  10  16
ATOM     11  C   UNL     1     -37.794  25.916   2.391  0.00  0.00    +0.000 C 
ATOM     12  C   UNL     1     -37.907  25.340   0.977  0.00  0.00    +0.002 C 
ATOM     13  C   UNL     1     -38.442  24.993   3.423  0.00  0.00    +0.002 C 
ATOM     14  C   UNL     1     -39.356  25.058   0.595  0.00  0.00    +0.021 C 
ATOM     15  C   UNL     1     -39.901  24.707   3.089  0.00  0.00    +0.021 C 
ATOM     16  C   UNL     1     -40.000  24.214   1.667  0.00  0.00    +0.116 C 
ENDBRANCH  10  16
ENDBRANCH   9  10
ENDBRANCH   7   9
ENDBRANCH   4   6
ENDBRANCH   3   4
ENDBRANCH   2   3
ENDBRANCH   1   2
BRANCH   1  17
ATOM     17  C   UNL     1     -35.470  22.743   4.332  0.00  0.00    +0.021 C 
BRANCH  17  18
ATOM     18  C   UNL     1     -35.462  23.885   5.343  0.00  0.00    +0.093 C 
BRANCH  18  20
ATOM     19  O   UNL     1     -35.342  26.739   4.878  0.00  0.00    -0.225 OA
ATOM     20  N   UNL     1     -34.288  24.706   5.240  0.00  0.00    -0.269 N 
ATOM     21  C   UNL     1     -34.323  26.071   5.015  0.00  0.00    +0.421 C 
ATOM     22  H   UNL     1     -33.409  24.273   5.335  0.00  0.00    +0.153 HD
BRANCH  21  23
ATOM     23  O   UNL     1     -33.047  26.564   4.965  0.00  0.00    -0.333 OA
BRANCH  23  24
ATOM     24  N   UNL     1     -32.808  27.326   6.117  0.00  0.00    -0.024 NA
BRANCH  24  30
ATOM     25  C   UNL     1     -29.608  29.797   5.385  0.00  0.00    +0.000 C 
ATOM     26  C   UNL     1     -30.096  29.473   6.799  0.00  0.00    +0.002 C 
ATOM     27  C   UNL     1     -30.058  28.732   4.382  0.00  0.00    +0.002 C 
ATOM     28  C   UNL     1     -31.610  29.311   6.850  0.00  0.00    +0.021 C 
ATOM     29  C   UNL     1     -31.572  28.553   4.387  0.00  0.00    +0.021 C 
ATOM     30  C   UNL     1     -32.041  28.317   5.801  0.00  0.00    +0.116 C 
ENDBRANCH  24  30
ENDBRANCH  23  24
ENDBRANCH  21  23
ENDBRANCH  18  20
ENDBRANCH  17  18
ENDBRANCH   1  17
TORSDOF 13
ENDMDL
MODEL 3
REMARK VINA RESULT:      -5.8      6.118      9.322
REMARK  Name = 5063
REMARK  13 active torsions:
REMARK  status: ('A' for Active; 'I' for Inactive)
REMARK    1  A    between atoms: C_1  and  C_2
REMARK    2  A    between atoms: C_1  and  C_17
REMARK    3  A    between atoms: C_2  and  C_3
REMARK    4  A    between atoms: C_3  and  C_4
REMARK    5  A    between atoms: C_4  and  N_6
REMARK    6  A    between atoms: C_7  and  O_9
REMARK    7  A    between atoms: O_9  and  N_10
REMARK    8  A    between atoms: N_10  and  C_16
REMARK    9  A    between atoms: C_17  and  C_18
REMARK   10  A    between atoms: C_18  and  N_20
REMARK   11  A    between atoms: C_21  and  O_23
REMARK   12  A    between atoms: O_23  and  N_24
REMARK   13  A    between atoms: N_24  and  C_30
REMARK                            x       y       z     vdW  Elec       q    Type
REMARK                         _______ _______ _______ _____ _____    ______ ____
ROOT
ATOM      1  C   UNL     1     -41.615  25.768   1.591  0.00  0.00    +0.002 C 
ENDROOT
BRANCH   1   2
ATOM      2  C   UNL     1     -41.872  24.770   0.460  0.00  0.00    +0.002 C 
BRANCH   2   3
ATOM      3  C   UNL     1     -40.636  24.494  -0.404  0.00  0.00    +0.021 C 
BRANCH   3   4
ATOM      4  C   UNL     1     -39.965  23.146  -0.154  0.00  0.00    +0.093 C 
BRANCH   4   6
ATOM      5  O   UNL     1     -40.089  21.484   2.213  0.00  0.00    -0.225 OA
ATOM      6  N   UNL     1     -39.082  23.170   0.980  0.00  0.00    -0.269 N 
ATOM      7  C   UNL     1     -39.215  22.335   2.076  0.00  0.00    +0.421 C 
ATOM      8  H   UNL     1     -38.340  23.817   0.977  0.00  0.00    +0.153 HD
BRANCH   7   9
ATOM      9  O   UNL     1     -38.228  22.603   2.983  0.00  0.00    -0.333 OA
BRANCH   9  10
ATOM     10  N   UNL     1     -38.168  23.988   3.193  0.00  0.00    -0.024 NA
BRANCH  10  16
ATOM     11  C   UNL     1     -34.945  24.817   5.604  0.00  0.00    +0.000 C 
ATOM     12  C   UNL     1     -35.399  23.383   5.321  0.00  0.00    +0.002 C 
ATOM     13  C   UNL     1     -36.074  25.819   5.362  0.00  0.00    +0.002 C 
ATOM     14  C   UNL     1     -35.942  23.231   3.904  0.00  0.00    +0.021 C 
ATOM     15  C   UNL     1     -36.629  25.714   3.947  0.00  0.00    +0.021 C 
ATOM     16  C   UNL     1     -36.998  24.281   3.659  0.00  0.00    +0.116 C 
ENDBRANCH  10  16
ENDBRANCH   9  10
ENDBRANCH   7   9
ENDBRANCH   4   6
ENDBRANCH   3   4
ENDBRANCH   2   3
ENDBRANCH   1   2
BRANCH   1  17
ATOM     17  C   UNL     1     -42.929  26.246   2.216  0.00  0.00    +0.021 C 
BRANCH  17  18
ATOM     18  C   UNL     1     -43.115  27.756   2.105  0.00  0.00    +0.093 C 
BRANCH  18  20
ATOM     19  O   UNL     1     -41.731  28.531   4.527  0.00  0.00    -0.225 OA
ATOM     20  N   UNL     1     -43.683  28.332   3.293  0.00  0.00    -0.269 N 
ATOM     21  C   UNL     1     -42.943  28.674   4.411  0.00  0.00    +0.421 C 
ATOM     22  H   UNL     1     -44.655  28.492   3.311  0.00  0.00    +0.153 HD
BRANCH  21  23
ATOM     23  O   UNL     1     -43.769  29.193   5.371  0.00  0.00    -0.333 OA
BRANCH  23  24
ATOM     24  N   UNL     1     -43.120  30.265   5.998  0.00  0.00    -0.024 NA
BRANCH  24  30
ATOM     25  C   UNL     1     -46.320  31.131   8.424  0.00  0.00    +0.000 C 
ATOM     26  C   UNL     1     -46.304  31.459   6.930  0.00  0.00    +0.002 C 
ATOM     27  C   UNL     1     -45.321  30.024   8.764  0.00  0.00    +0.002 C 
ATOM     28  C   UNL     1     -44.910  31.846   6.452  0.00  0.00    +0.021 C 
ATOM     29  C   UNL     1     -43.907  30.383   8.320  0.00  0.00    +0.021 C 
ATOM     30  C   UNL     1     -43.926  30.781   6.866  0.00  0.00    +0.116 C 
ENDBRANCH  24  30
ENDBRANCH  23  24
ENDBRANCH  21  23
ENDBRANCH  18  20
ENDBRANCH  17  18
ENDBRANCH   1  17
TORSDOF 13
ENDMDL
MODEL 4
REMARK VINA RESULT:      -5.8      6.187      9.322
REMARK  Name = 5063
REMARK  13 active torsions:
REMARK  status: ('A' for Active; 'I' for Inactive)
REMARK    1  A    between atoms: C_1  and  C_2
REMARK    2  A    between atoms: C_1  and  C_17
REMARK    3  A    between atoms: C_2  and  C_3
REMARK    4  A    between atoms: C_3  and  C_4
REMARK    5  A    between atoms: C_4  and  N_6
REMARK    6  A    between atoms: C_7  and  O_9
REMARK    7  A    between atoms: O_9  and  N_10
REMARK    8  A    between atoms: N_10  and  C_16
REMARK    9  A    between atoms: C_17  and  C_18
REMARK   10  A    between atoms: C_18  and  N_20
REMARK   11  A    between atoms: C_21  and  O_23
REMARK   12  A    between atoms: O_23  and  N_24
REMARK   13  A    between atoms: N_24  and  C_30
REMARK                            x       y       z     vdW  Elec       q    Type
REMARK                         _______ _______ _______ _____ _____    ______ ____
ROOT
ATOM      1  C   UNL     1     -41.492  25.425   1.762  0.00  0.00    +0.002 C 
ENDROOT
BRANCH   1   2
ATOM      2  C   UNL     1     -42.262  26.727   1.530  0.00  0.00    +0.002 C 
BRANCH   2   3
ATOM      3  C   UNL     1     -43.704  26.684   2.050  0.00  0.00    +0.021 C 
BRANCH   3   4
ATOM      4  C   UNL     1     -43.840  26.709   3.570  0.00  0.00    +0.093 C 
BRANCH   4   6
ATOM      5  O   UNL     1     -41.890  28.605   4.563  0.00  0.00    -0.225 OA
ATOM      6  N   UNL     1     -44.084  28.030   4.081  0.00  0.00    -0.269 N 
ATOM      7  C   UNL     1     -43.087  28.874   4.538  0.00  0.00    +0.421 C 
ATOM      8  H   UNL     1     -45.014  28.352   4.108  0.00  0.00    +0.153 HD
BRANCH   7   9
ATOM      9  O   UNL     1     -43.638  30.053   4.960  0.00  0.00    -0.333 OA
BRANCH   9  10
ATOM     10  N   UNL     1     -43.065  30.407   6.191  0.00  0.00    -0.024 NA
BRANCH  10  16
ATOM     11  C   UNL     1     -46.532  31.043   8.303  0.00  0.00    +0.000 C 
ATOM     12  C   UNL     1     -45.437  30.101   8.806  0.00  0.00    +0.002 C 
ATOM     13  C   UNL     1     -46.435  31.256   6.791  0.00  0.00    +0.002 C 
ATOM     14  C   UNL     1     -44.045  30.600   8.434  0.00  0.00    +0.021 C 
ATOM     15  C   UNL     1     -45.063  31.779   6.382  0.00  0.00    +0.021 C 
ATOM     16  C   UNL     1     -43.995  30.882   6.953  0.00  0.00    +0.116 C 
ENDBRANCH  10  16
ENDBRANCH   9  10
ENDBRANCH   7   9
ENDBRANCH   4   6
ENDBRANCH   3   4
ENDBRANCH   2   3
ENDBRANCH   1   2
BRANCH   1  17
ATOM     17  C   UNL     1     -41.673  24.459   0.587  0.00  0.00    +0.021 C 
BRANCH  17  18
ATOM     18  C   UNL     1     -40.503  23.491   0.441  0.00  0.00    +0.093 C 
BRANCH  18  20
ATOM     19  O   UNL     1     -38.008  22.070   0.813  0.00  0.00    -0.225 OA
ATOM     20  N   UNL     1     -39.750  23.347   1.657  0.00  0.00    -0.269 N 
ATOM     21  C   UNL     1     -38.560  22.646   1.745  0.00  0.00    +0.421 C 
ATOM     22  H   UNL     1     -40.101  23.772   2.473  0.00  0.00    +0.153 HD
BRANCH  21  23
ATOM     23  O   UNL     1     -38.092  22.689   3.030  0.00  0.00    -0.333 OA
BRANCH  23  24
ATOM     24  N   UNL     1     -38.104  24.019   3.474  0.00  0.00    -0.024 NA
BRANCH  24  30
ATOM     25  C   UNL     1     -34.755  25.027   5.629  0.00  0.00    +0.000 C 
ATOM     26  C   UNL     1     -35.882  26.021   5.342  0.00  0.00    +0.002 C 
ATOM     27  C   UNL     1     -35.242  23.582   5.516  0.00  0.00    +0.002 C 
ATOM     28  C   UNL     1     -36.508  25.784   3.973  0.00  0.00    +0.021 C 
ATOM     29  C   UNL     1     -35.858  23.297   4.151  0.00  0.00    +0.021 C 
ATOM     30  C   UNL     1     -36.910  24.336   3.851  0.00  0.00    +0.116 C 
ENDBRANCH  24  30
ENDBRANCH  23  24
ENDBRANCH  21  23
ENDBRANCH  18  20
ENDBRANCH  17  18
ENDBRANCH   1  17
TORSDOF 13
ENDMDL
MODEL 5
REMARK VINA RESULT:      -5.6      6.191      9.391
REMARK  Name = 5063
REMARK  13 active torsions:
REMARK  status: ('A' for Active; 'I' for Inactive)
REMARK    1  A    between atoms: C_1  and  C_2
REMARK    2  A    between atoms: C_1  and  C_17
REMARK    3  A    between atoms: C_2  and  C_3
REMARK    4  A    between atoms: C_3  and  C_4
REMARK    5  A    between atoms: C_4  and  N_6
REMARK    6  A    between atoms: C_7  and  O_9
REMARK    7  A    between atoms: O_9  and  N_10
REMARK    8  A    between atoms: N_10  and  C_16
REMARK    9  A    between atoms: C_17  and  C_18
REMARK   10  A    between atoms: C_18  and  N_20
REMARK   11  A    between atoms: C_21  and  O_23
REMARK   12  A    between atoms: O_23  and  N_24
REMARK   13  A    between atoms: N_24  and  C_30
REMARK                            x       y       z     vdW  Elec       q    Type
REMARK                         _______ _______ _______ _____ _____    ______ ____
ROOT
ATOM      1  C   UNL     1     -40.852  25.067   0.540  0.00  0.00    +0.002 C 
ENDROOT
BRANCH   1   2
ATOM      2  C   UNL     1     -41.812  25.259   1.718  0.00  0.00    +0.002 C 
BRANCH   2   3
ATOM      3  C   UNL     1     -41.807  26.685   2.281  0.00  0.00    +0.021 C 
BRANCH   3   4
ATOM      4  C   UNL     1     -42.375  26.820   3.691  0.00  0.00    +0.093 C 
BRANCH   4   6
ATOM      5  O   UNL     1     -44.812  28.018   4.694  0.00  0.00    -0.225 OA
ATOM      6  N   UNL     1     -42.585  28.189   4.074  0.00  0.00    -0.269 N 
ATOM      7  C   UNL     1     -43.790  28.680   4.545  0.00  0.00    +0.421 C 
ATOM      8  H   UNL     1     -41.828  28.814   3.996  0.00  0.00    +0.153 HD
BRANCH   7   9
ATOM      9  O   UNL     1     -43.670  30.014   4.819  0.00  0.00    -0.333 OA
BRANCH   9  10
ATOM     10  N   UNL     1     -43.009  30.168   6.046  0.00  0.00    -0.024 NA
BRANCH  10  16
ATOM     11  C   UNL     1     -46.248  31.159   8.373  0.00  0.00    +0.000 C 
ATOM     12  C   UNL     1     -45.283  30.038   8.762  0.00  0.00    +0.002 C 
ATOM     13  C   UNL     1     -46.187  31.454   6.873  0.00  0.00    +0.002 C 
ATOM     14  C   UNL     1     -43.850  30.355   8.346  0.00  0.00    +0.021 C 
ATOM     15  C   UNL     1     -44.773  31.800   6.422  0.00  0.00    +0.021 C 
ATOM     16  C   UNL     1     -43.825  30.722   6.883  0.00  0.00    +0.116 C 
ENDBRANCH  10  16
ENDBRANCH   9  10
ENDBRANCH   7   9
ENDBRANCH   4   6
ENDBRANCH   3   4
ENDBRANCH   2   3
ENDBRANCH   1   2
BRANCH   1  17
ATOM     17  C   UNL     1     -40.042  26.340   0.275  0.00  0.00    +0.021 C 
BRANCH  17  18
ATOM     18  C   UNL     1     -38.551  26.147   0.533  0.00  0.00    +0.093 C 
BRANCH  18  20
ATOM     19  O   UNL     1     -36.148  26.730   2.038  0.00  0.00    -0.225 OA
ATOM     20  N   UNL     1     -38.267  25.799   1.898  0.00  0.00    -0.269 N 
ATOM     21  C   UNL     1     -37.085  26.120   2.543  0.00  0.00    +0.421 C 
ATOM     22  H   UNL     1     -38.953  25.305   2.403  0.00  0.00    +0.153 HD
BRANCH  21  23
ATOM     23  O   UNL     1     -37.116  25.650   3.827  0.00  0.00    -0.333 OA
BRANCH  23  24
ATOM     24  N   UNL     1     -37.410  24.280   3.804  0.00  0.00    -0.024 NA
BRANCH  24  30
ATOM     25  C   UNL     1     -34.779  21.551   5.390  0.00  0.00    +0.000 C 
ATOM     26  C   UNL     1     -35.541  22.561   6.251  0.00  0.00    +0.002 C 
ATOM     27  C   UNL     1     -35.480  21.319   4.050  0.00  0.00    +0.002 C 
ATOM     28  C   UNL     1     -35.738  23.887   5.525  0.00  0.00    +0.021 C 
ATOM     29  C   UNL     1     -35.679  22.620   3.281  0.00  0.00    +0.021 C 
ATOM     30  C   UNL     1     -36.357  23.629   4.174  0.00  0.00    +0.116 C 
ENDBRANCH  24  30
ENDBRANCH  23  24
ENDBRANCH  21  23
ENDBRANCH  18  20
ENDBRANCH  17  18
ENDBRANCH   1  17
TORSDOF 13
ENDMDL
MODEL 6
REMARK VINA RESULT:      -5.6      6.255      8.986
REMARK  Name = 5063
REMARK  13 active torsions:
REMARK  status: ('A' for Active; 'I' for Inactive)
REMARK    1  A    between atoms: C_1  and  C_2
REMARK    2  A    between atoms: C_1  and  C_17
REMARK    3  A    between atoms: C_2  and  C_3
REMARK    4  A    between atoms: C_3  and  C_4
REMARK    5  A    between atoms: C_4  and  N_6
REMARK    6  A    between atoms: C_7  and  O_9
REMARK    7  A    between atoms: O_9  and  N_10
REMARK    8  A    between atoms: N_10  and  C_16
REMARK    9  A    between atoms: C_17  and  C_18
REMARK   10  A    between atoms: C_18  and  N_20
REMARK   11  A    between atoms: C_21  and  O_23
REMARK   12  A    between atoms: O_23  and  N_24
REMARK   13  A    between atoms: N_24  and  C_30
REMARK                            x       y       z     vdW  Elec       q    Type
REMARK                         _______ _______ _______ _____ _____    ______ ____
ROOT
ATOM      1  C   UNL     1     -43.410  25.940   0.364  0.00  0.00    +0.002 C 
ENDROOT
BRANCH   1   2
ATOM      2  C   UNL     1     -42.411  24.781   0.337  0.00  0.00    +0.002 C 
BRANCH   2   3
ATOM      3  C   UNL     1     -41.472  24.757   1.549  0.00  0.00    +0.021 C 
BRANCH   3   4
ATOM      4  C   UNL     1     -40.077  24.204   1.270  0.00  0.00    +0.093 C 
BRANCH   4   6
ATOM      5  O   UNL     1     -38.301  26.033   2.642  0.00  0.00    -0.225 OA
ATOM      6  N   UNL     1     -39.328  23.962   2.472  0.00  0.00    -0.269 N 
ATOM      7  C   UNL     1     -38.497  24.898   3.063  0.00  0.00    +0.421 C 
ATOM      8  H   UNL     1     -39.410  23.078   2.899  0.00  0.00    +0.153 HD
BRANCH   7   9
ATOM      9  O   UNL     1     -37.927  24.366   4.186  0.00  0.00    -0.333 OA
BRANCH   9  10
ATOM     10  N   UNL     1     -36.946  23.439   3.802  0.00  0.00    -0.024 NA
BRANCH  10  16
ATOM     11  C   UNL     1     -33.742  25.872   4.637  0.00  0.00    +0.000 C 
ATOM     12  C   UNL     1     -34.855  25.619   5.655  0.00  0.00    +0.002 C 
ATOM     13  C   UNL     1     -34.214  25.589   3.211  0.00  0.00    +0.002 C 
ATOM     14  C   UNL     1     -35.403  24.200   5.555  0.00  0.00    +0.021 C 
ATOM     15  C   UNL     1     -34.747  24.170   3.063  0.00  0.00    +0.021 C 
ATOM     16  C   UNL     1     -35.787  23.914   4.124  0.00  0.00    +0.116 C 
ENDBRANCH  10  16
ENDBRANCH   9  10
ENDBRANCH   7   9
ENDBRANCH   4   6
ENDBRANCH   3   4
ENDBRANCH   2   3
ENDBRANCH   1   2
BRANCH   1  17
ATOM     17  C   UNL     1     -43.589  26.482   1.786  0.00  0.00    +0.021 C 
BRANCH  17  18
ATOM     18  C   UNL     1     -43.105  27.922   1.928  0.00  0.00    +0.093 C 
BRANCH  18  20
ATOM     19  O   UNL     1     -41.874  28.544   4.473  0.00  0.00    -0.225 OA
ATOM     20  N   UNL     1     -43.702  28.597   3.048  0.00  0.00    -0.269 N 
ATOM     21  C   UNL     1     -43.036  28.855   4.234  0.00  0.00    +0.421 C 
ATOM     22  H   UNL     1     -44.637  28.893   2.966  0.00  0.00    +0.153 HD
BRANCH  21  23
ATOM     23  O   UNL     1     -43.871  29.505   5.101  0.00  0.00    -0.333 OA
BRANCH  23  24
ATOM     24  N   UNL     1     -43.098  30.190   6.049  0.00  0.00    -0.024 NA
BRANCH  24  30
ATOM     25  C   UNL     1     -46.269  31.156   8.477  0.00  0.00    +0.000 C 
ATOM     26  C   UNL     1     -46.270  31.423   6.970  0.00  0.00    +0.002 C 
ATOM     27  C   UNL     1     -45.265  30.063   8.849  0.00  0.00    +0.002 C 
ATOM     28  C   UNL     1     -44.882  31.790   6.460  0.00  0.00    +0.021 C 
ATOM     29  C   UNL     1     -43.857  30.401   8.374  0.00  0.00    +0.021 C 
ATOM     30  C   UNL     1     -43.893  30.741   6.905  0.00  0.00    +0.116 C 
ENDBRANCH  24  30
ENDBRANCH  23  24
ENDBRANCH  21  23
ENDBRANCH  18  20
ENDBRANCH  17  18
ENDBRANCH   1  17
TORSDOF 13
ENDMDL
MODEL 7
REMARK VINA RESULT:      -5.6      3.478      5.462
REMARK  Name = 5063
REMARK  13 active torsions:
REMARK  status: ('A' for Active; 'I' for Inactive)
REMARK    1  A    between atoms: C_1  and  C_2
REMARK    2  A    between atoms: C_1  and  C_17
REMARK    3  A    between atoms: C_2  and  C_3
REMARK    4  A    between atoms: C_3  and  C_4
REMARK    5  A    between atoms: C_4  and  N_6
REMARK    6  A    between atoms: C_7  and  O_9
REMARK    7  A    between atoms: O_9  and  N_10
REMARK    8  A    between atoms: N_10  and  C_16
REMARK    9  A    between atoms: C_17  and  C_18
REMARK   10  A    between atoms: C_18  and  N_20
REMARK   11  A    between atoms: C_21  and  O_23
REMARK   12  A    between atoms: O_23  and  N_24
REMARK   13  A    between atoms: N_24  and  C_30
REMARK                            x       y       z     vdW  Elec       q    Type
REMARK                         _______ _______ _______ _____ _____    ______ ____
ROOT
ATOM      1  C   UNL     1     -34.637  23.095   0.006  0.00  0.00    +0.002 C 
ENDROOT
BRANCH   1   2
ATOM      2  C   UNL     1     -34.712  22.593   1.451  0.00  0.00    +0.002 C 
BRANCH   2   3
ATOM      3  C   UNL     1     -34.883  21.073   1.560  0.00  0.00    +0.021 C 
BRANCH   3   4
ATOM      4  C   UNL     1     -35.555  20.593   2.844  0.00  0.00    +0.093 C 
BRANCH   4   6
ATOM      5  O   UNL     1     -34.868  21.089   5.612  0.00  0.00    -0.225 OA
ATOM      6  N   UNL     1     -35.998  21.678   3.675  0.00  0.00    -0.269 N 
ATOM      7  C   UNL     1     -35.618  21.840   4.996  0.00  0.00    +0.421 C 
ATOM      8  H   UNL     1     -36.607  22.346   3.282  0.00  0.00    +0.153 HD
BRANCH   7   9
ATOM      9  O   UNL     1     -36.207  22.961   5.513  0.00  0.00    -0.333 OA
BRANCH   9  10
ATOM     10  N   UNL     1     -36.845  23.657   4.476  0.00  0.00    -0.024 NA
BRANCH  10  16
ATOM     11  C   UNL     1     -34.279  26.845   4.102  0.00  0.00    +0.000 C 
ATOM     12  C   UNL     1     -34.783  26.062   2.887  0.00  0.00    +0.002 C 
ATOM     13  C   UNL     1     -34.388  26.018   5.384  0.00  0.00    +0.002 C 
ATOM     14  C   UNL     1     -36.216  25.577   3.080  0.00  0.00    +0.021 C 
ATOM     15  C   UNL     1     -35.813  25.535   5.625  0.00  0.00    +0.021 C 
ATOM     16  C   UNL     1     -36.319  24.835   4.390  0.00  0.00    +0.116 C 
ENDBRANCH  10  16
ENDBRANCH   9  10
ENDBRANCH   7   9
ENDBRANCH   4   6
ENDBRANCH   3   4
ENDBRANCH   2   3
ENDBRANCH   1   2
BRANCH   1  17
ATOM     17  C   UNL     1     -35.902  23.868  -0.376  0.00  0.00    +0.021 C 
BRANCH  17  18
ATOM     18  C   UNL     1     -37.167  23.026  -0.237  0.00  0.00    +0.093 C 
BRANCH  18  20
ATOM     19  O   UNL     1     -38.624  21.723   1.898  0.00  0.00    -0.225 OA
ATOM     20  N   UNL     1     -38.128  23.616   0.654  0.00  0.00    -0.269 N 
ATOM     21  C   UNL     1     -38.781  22.915   1.653  0.00  0.00    +0.421 C 
ATOM     22  H   UNL     1     -38.333  24.573   0.548  0.00  0.00    +0.153 HD
BRANCH  21  23
ATOM     23  O   UNL     1     -39.632  23.750   2.324  0.00  0.00    -0.333 OA
BRANCH  23  24
ATOM     24  N   UNL     1     -40.812  23.890   1.580  0.00  0.00    -0.024 NA
BRANCH  24  30
ATOM     25  C   UNL     1     -42.871  27.154   2.990  0.00  0.00    +0.000 C 
ATOM     26  C   UNL     1     -43.523  26.082   2.115  0.00  0.00    +0.002 C 
ATOM     27  C   UNL     1     -41.620  26.620   3.690  0.00  0.00    +0.002 C 
ATOM     28  C   UNL     1     -42.546  25.522   1.087  0.00  0.00    +0.021 C 
ATOM     29  C   UNL     1     -40.606  26.069   2.693  0.00  0.00    +0.021 C 
ATOM     30  C   UNL     1     -41.288  25.074   1.787  0.00  0.00    +0.116 C 
ENDBRANCH  24  30
ENDBRANCH  23  24
ENDBRANCH  21  23
ENDBRANCH  18  20
ENDBRANCH  17  18
ENDBRANCH   1  17
TORSDOF 13
ENDMDL
MODEL 8
REMARK VINA RESULT:      -5.5      5.236      8.440
REMARK  Name = 5063
REMARK  13 active torsions:
REMARK  status: ('A' for Active; 'I' for Inactive)
REMARK    1  A    between atoms: C_1  and  C_2
REMARK    2  A    between atoms: C_1  and  C_17
REMARK    3  A    between atoms: C_2  and  C_3
REMARK    4  A    between atoms: C_3  and  C_4
REMARK    5  A    between atoms: C_4  and  N_6
REMARK    6  A    between atoms: C_7  and  O_9
REMARK    7  A    between atoms: O_9  and  N_10
REMARK    8  A    between atoms: N_10  and  C_16
REMARK    9  A    between atoms: C_17  and  C_18
REMARK   10  A    between atoms: C_18  and  N_20
REMARK   11  A    between atoms: C_21  and  O_23
REMARK   12  A    between atoms: O_23  and  N_24
REMARK   13  A    between atoms: N_24  and  C_30
REMARK                            x       y       z     vdW  Elec       q    Type
REMARK                         _______ _______ _______ _____ _____    ______ ____
ROOT
ATOM      1  C   UNL     1     -39.687  22.830   2.224  0.00  0.00    +0.002 C 
ENDROOT
BRANCH   1   2
ATOM      2  C   UNL     1     -39.231  24.288   2.319  0.00  0.00    +0.002 C 
BRANCH   2   3
ATOM      3  C   UNL     1     -40.019  25.107   3.349  0.00  0.00    +0.021 C 
BRANCH   3   4
ATOM      4  C   UNL     1     -41.027  26.087   2.755  0.00  0.00    +0.093 C 
BRANCH   4   6
ATOM      5  O   UNL     1     -43.453  26.909   4.104  0.00  0.00    -0.225 OA
ATOM      6  N   UNL     1     -41.220  27.248   3.579  0.00  0.00    -0.269 N 
ATOM      7  C   UNL     1     -42.422  27.567   4.189  0.00  0.00    +0.421 C 
ATOM      8  H   UNL     1     -40.455  27.852   3.718  0.00  0.00    +0.153 HD
BRANCH   7   9
ATOM      9  O   UNL     1     -42.285  28.728   4.899  0.00  0.00    -0.333 OA
BRANCH   9  10
ATOM     10  N   UNL     1     -43.285  29.626   4.498  0.00  0.00    -0.024 NA
BRANCH  10  16
ATOM     11  C   UNL     1     -45.135  29.666   8.167  0.00  0.00    +0.000 C 
ATOM     12  C   UNL     1     -43.732  30.240   7.959  0.00  0.00    +0.002 C 
ATOM     13  C   UNL     1     -45.496  28.663   7.071  0.00  0.00    +0.002 C 
ATOM     14  C   UNL     1     -43.581  30.885   6.585  0.00  0.00    +0.021 C 
ATOM     15  C   UNL     1     -45.381  29.277   5.681  0.00  0.00    +0.021 C 
ATOM     16  C   UNL     1     -44.019  29.906   5.524  0.00  0.00    +0.116 C 
ENDBRANCH  10  16
ENDBRANCH   9  10
ENDBRANCH   7   9
ENDBRANCH   4   6
ENDBRANCH   3   4
ENDBRANCH   2   3
ENDBRANCH   1   2
BRANCH   1  17
ATOM     17  C   UNL     1     -38.839  22.051   1.213  0.00  0.00    +0.021 C 
BRANCH  17  18
ATOM     18  C   UNL     1     -37.716  21.262   1.878  0.00  0.00    +0.093 C 
BRANCH  18  20
ATOM     19  O   UNL     1     -35.240  20.648   3.247  0.00  0.00    -0.225 OA
ATOM     20  N   UNL     1     -37.135  21.960   2.992  0.00  0.00    -0.269 N 
ATOM     21  C   UNL     1     -35.940  21.595   3.589  0.00  0.00    +0.421 C 
ATOM     22  H   UNL     1     -37.614  22.741   3.351  0.00  0.00    +0.153 HD
BRANCH  21  23
ATOM     23  O   UNL     1     -35.659  22.450   4.620  0.00  0.00    -0.333 OA
BRANCH  23  24
ATOM     24  N   UNL     1     -36.574  23.512   4.593  0.00  0.00    -0.024 NA
BRANCH  24  30
ATOM     25  C   UNL     1     -33.687  26.436   4.572  0.00  0.00    +0.000 C 
ATOM     26  C   UNL     1     -34.365  25.954   5.856  0.00  0.00    +0.002 C 
ATOM     27  C   UNL     1     -33.793  25.392   3.459  0.00  0.00    +0.002 C 
ATOM     28  C   UNL     1     -35.825  25.585   5.620  0.00  0.00    +0.021 C 
ATOM     29  C   UNL     1     -35.242  25.010   3.176  0.00  0.00    +0.021 C 
ATOM     30  C   UNL     1     -35.915  24.616   4.468  0.00  0.00    +0.116 C 
ENDBRANCH  24  30
ENDBRANCH  23  24
ENDBRANCH  21  23
ENDBRANCH  18  20
ENDBRANCH  17  18
ENDBRANCH   1  17
TORSDOF 13
ENDMDL
MODEL 9
REMARK VINA RESULT:      -5.5      6.490      9.482
REMARK  Name = 5063
REMARK  13 active torsions:
REMARK  status: ('A' for Active; 'I' for Inactive)
REMARK    1  A    between atoms: C_1  and  C_2
REMARK    2  A    between atoms: C_1  and  C_17
REMARK    3  A    between atoms: C_2  and  C_3
REMARK    4  A    between atoms: C_3  and  C_4
REMARK    5  A    between atoms: C_4  and  N_6
REMARK    6  A    between atoms: C_7  and  O_9
REMARK    7  A    between atoms: O_9  and  N_10
REMARK    8  A    between atoms: N_10  and  C_16
REMARK    9  A    between atoms: C_17  and  C_18
REMARK   10  A    between atoms: C_18  and  N_20
REMARK   11  A    between atoms: C_21  and  O_23
REMARK   12  A    between atoms: O_23  and  N_24
REMARK   13  A    between atoms: N_24  and  C_30
REMARK                            x       y       z     vdW  Elec       q    Type
REMARK                         _______ _______ _______ _____ _____    ______ ____
ROOT
ATOM      1  C   UNL     1     -44.784  26.322   1.382  0.00  0.00    +0.002 C 
ENDROOT
BRANCH   1   2
ATOM      2  C   UNL     1     -43.308  26.302   0.974  0.00  0.00    +0.002 C 
BRANCH   2   3
ATOM      3  C   UNL     1     -42.724  24.888   0.870  0.00  0.00    +0.021 C 
BRANCH   3   4
ATOM      4  C   UNL     1     -41.246  24.829   0.494  0.00  0.00    +0.093 C 
BRANCH   4   6
ATOM      5  O   UNL     1     -39.504  26.293   2.285  0.00  0.00    -0.225 OA
ATOM      6  N   UNL     1     -40.428  24.298   1.549  0.00  0.00    -0.269 N 
ATOM      7  C   UNL     1     -39.620  25.074   2.362  0.00  0.00    +0.421 C 
ATOM      8  H   UNL     1     -40.442  23.325   1.702  0.00  0.00    +0.153 HD
BRANCH   7   9
ATOM      9  O   UNL     1     -38.968  24.277   3.262  0.00  0.00    -0.333 OA
BRANCH   9  10
ATOM     10  N   UNL     1     -38.254  25.090   4.154  0.00  0.00    -0.024 NA
BRANCH  10  16
ATOM     11  C   UNL     1     -34.485  23.737   5.076  0.00  0.00    +0.000 C 
ATOM     12  C   UNL     1     -35.636  22.779   4.761  0.00  0.00    +0.002 C 
ATOM     13  C   UNL     1     -35.002  25.106   5.519  0.00  0.00    +0.002 C 
ATOM     14  C   UNL     1     -36.577  23.352   3.706  0.00  0.00    +0.021 C 
ATOM     15  C   UNL     1     -35.928  25.724   4.479  0.00  0.00    +0.021 C 
ATOM     16  C   UNL     1     -37.011  24.736   4.124  0.00  0.00    +0.116 C 
ENDBRANCH  10  16
ENDBRANCH   9  10
ENDBRANCH   7   9
ENDBRANCH   4   6
ENDBRANCH   3   4
ENDBRANCH   2   3
ENDBRANCH   1   2
BRANCH   1  17
ATOM     17  C   UNL     1     -44.944  26.079   2.886  0.00  0.00    +0.021 C 
BRANCH  17  18
ATOM     18  C   UNL     1     -43.788  26.656   3.698  0.00  0.00    +0.093 C 
BRANCH  18  20
ATOM     19  O   UNL     1     -41.895  28.678   4.536  0.00  0.00    -0.225 OA
ATOM     20  N   UNL     1     -44.077  27.964   4.218  0.00  0.00    -0.269 N 
ATOM     21  C   UNL     1     -43.104  28.872   4.596  0.00  0.00    +0.421 C 
ATOM     22  H   UNL     1     -45.021  28.228   4.310  0.00  0.00    +0.153 HD
BRANCH  21  23
ATOM     23  O   UNL     1     -43.695  30.020   5.051  0.00  0.00    -0.333 OA
BRANCH  23  24
ATOM     24  N   UNL     1     -43.098  30.388   6.265  0.00  0.00    -0.024 NA
BRANCH  24  30
ATOM     25  C   UNL     1     -46.502  31.115   8.447  0.00  0.00    +0.000 C 
ATOM     26  C   UNL     1     -46.451  31.256   6.925  0.00  0.00    +0.002 C 
ATOM     27  C   UNL     1     -45.389  30.200   8.961  0.00  0.00    +0.002 C 
ATOM     28  C   UNL     1     -45.095  31.763   6.450  0.00  0.00    +0.021 C 
ATOM     29  C   UNL     1     -44.011  30.684   8.524  0.00  0.00    +0.021 C 
ATOM     30  C   UNL     1     -44.006  30.895   7.031  0.00  0.00    +0.116 C 
ENDBRANCH  24  30
ENDBRANCH  23  24
ENDBRANCH  21  23
ENDBRANCH  18  20
ENDBRANCH  17  18
ENDBRANCH   1  17
TORSDOF 13
ENDMDL
