MODEL 1
REMARK VINA RESULT:      -6.5      0.000      0.000
REMARK  Name = 5486883
REMARK  7 active torsions:
REMARK  status: ('A' for Active; 'I' for Inactive)
REMARK    1  A    between atoms: O_1  and  C_5
REMARK    2  A    between atoms: O_1  and  C_16
REMARK    3  A    between atoms: C_2  and  C_8
REMARK    4  A    between atoms: C_8  and  N_9
REMARK    5  A    between atoms: C_16  and  C_17
REMARK    6  A    between atoms: C_17  and  C_18
REMARK    7  A    between atoms: C_18  and  N_21
REMARK                            x       y       z     vdW  Elec       q    Type
REMARK                         _______ _______ _______ _____ _____    ______ ____
ROOT
ATOM      1  O   UNL     1     -36.171  25.340   4.643  0.00  0.00    -0.475 OA
ENDROOT
BRANCH   1   5
ATOM      2  C   UNL     1     -35.598  21.841   3.786  0.00  0.00    -0.040 C 
ATOM      3  C   UNL     1     -35.934  23.181   3.654  0.00  0.00    +0.031 C 
ATOM      4  C   UNL     1     -35.177  21.326   5.004  0.00  0.00    -0.006 C 
ATOM      5  C   UNL     1     -35.845  24.024   4.761  0.00  0.00    +0.138 C 
ATOM      6  C   UNL     1     -35.089  22.169   6.111  0.00  0.00    +0.003 C 
ATOM      7  C   UNL     1     -35.423  23.518   5.991  0.00  0.00    +0.037 C 
BRANCH   2   8
ATOM      8  C   UNL     1     -35.693  20.931   2.590  0.00  0.00    -0.050 C 
BRANCH   8   9
ATOM      9  N   UNL     1     -34.431  20.867   1.853  0.00  0.00    +0.390 N 
ATOM     10  C   UNL     1     -34.510  21.674   0.627  0.00  0.00    -0.077 C 
ATOM     11  C   UNL     1     -34.084  19.472   1.550  0.00  0.00    -0.077 C 
ATOM     12  C   UNL     1     -33.181  21.657  -0.130  0.00  0.00    -0.023 C 
ATOM     13  C   UNL     1     -32.741  19.384   0.822  0.00  0.00    -0.023 C 
ATOM     14  C   UNL     1     -32.740  20.233  -0.444  0.00  0.00    -0.004 C 
ATOM     15  H   UNL     1     -33.691  21.255   2.437  0.00  0.00    -0.079 HD
ENDBRANCH   8   9
ENDBRANCH   2   8
ENDBRANCH   1   5
BRANCH   1  16
ATOM     16  C   UNL     1     -36.248  25.874   3.323  0.00  0.00    +0.207 C 
BRANCH  16  17
ATOM     17  C   UNL     1     -35.381  27.125   3.248  0.00  0.00    +0.069 C 
BRANCH  17  18
ATOM     18  C   UNL     1     -33.890  26.819   3.346  0.00  0.00    +0.092 C 
BRANCH  18  21
ATOM     19  S   UNL     1     -30.895  29.829   5.124  0.00  0.00    +0.270 S 
ATOM     20  O   UNL     1     -31.704  31.084   5.256  0.00  0.00    -0.208 OA
ATOM     21  N   UNL     1     -33.412  27.010   4.695  0.00  0.00    -0.315 N 
ATOM     22  N   UNL     1     -31.989  28.857   4.235  0.00  0.00    -0.148 NA
ATOM     23  N   UNL     1     -31.216  29.103   6.641  0.00  0.00    -0.148 NA
ATOM     24  N   UNL     1     -32.532  27.291   7.436  0.00  0.00    -0.340 N 
ATOM     25  C   UNL     1     -32.515  27.981   5.036  0.00  0.00    +0.172 A 
ATOM     26  C   UNL     1     -32.054  28.128   6.468  0.00  0.00    +0.169 A 
ATOM     27  H   UNL     1     -33.748  26.413   5.401  0.00  0.00    +0.148 HD
ATOM     28  H   UNL     1     -32.228  27.390   8.367  0.00  0.00    +0.144 HD
ATOM     29  H   UNL     1     -33.179  26.587   7.203  0.00  0.00    +0.144 HD
ENDBRANCH  18  21
ENDBRANCH  17  18
ENDBRANCH  16  17
ENDBRANCH   1  16
TORSDOF 7
ENDMDL
MODEL 2
REMARK VINA RESULT:      -6.4      4.845      8.103
REMARK  Name = 5486883
REMARK  7 active torsions:
REMARK  status: ('A' for Active; 'I' for Inactive)
REMARK    1  A    between atoms: O_1  and  C_5
REMARK    2  A    between atoms: O_1  and  C_16
REMARK    3  A    between atoms: C_2  and  C_8
REMARK    4  A    between atoms: C_8  and  N_9
REMARK    5  A    between atoms: C_16  and  C_17
REMARK    6  A    between atoms: C_17  and  C_18
REMARK    7  A    between atoms: C_18  and  N_21
REMARK                            x       y       z     vdW  Elec       q    Type
REMARK                         _______ _______ _______ _____ _____    ______ ____
ROOT
ATOM      1  O   UNL     1     -35.225  20.450   3.139  0.00  0.00    -0.475 OA
ENDROOT
BRANCH   1   5
ATOM      2  C   UNL     1     -35.350  23.864   4.416  0.00  0.00    -0.040 C 
ATOM      3  C   UNL     1     -35.316  22.803   3.521  0.00  0.00    +0.031 C 
ATOM      4  C   UNL     1     -35.329  23.645   5.787  0.00  0.00    -0.006 C 
ATOM      5  C   UNL     1     -35.259  21.497   4.007  0.00  0.00    +0.138 C 
ATOM      6  C   UNL     1     -35.272  22.339   6.271  0.00  0.00    +0.003 C 
ATOM      7  C   UNL     1     -35.237  21.264   5.382  0.00  0.00    +0.037 C 
BRANCH   2   8
ATOM      8  C   UNL     1     -35.412  25.274   3.892  0.00  0.00    -0.050 C 
BRANCH   8   9
ATOM      9  N   UNL     1     -36.296  25.386   2.732  0.00  0.00    +0.390 N 
ATOM     10  C   UNL     1     -35.721  26.299   1.734  0.00  0.00    -0.077 C 
ATOM     11  C   UNL     1     -37.634  25.827   3.146  0.00  0.00    -0.077 C 
ATOM     12  C   UNL     1     -36.609  26.390   0.492  0.00  0.00    -0.023 C 
ATOM     13  C   UNL     1     -38.585  25.902   1.950  0.00  0.00    -0.023 C 
ATOM     14  C   UNL     1     -38.029  26.806   0.856  0.00  0.00    -0.004 C 
ATOM     15  H   UNL     1     -36.387  24.467   2.300  0.00  0.00    -0.079 HD
ENDBRANCH   8   9
ENDBRANCH   2   8
ENDBRANCH   1   5
BRANCH   1  16
ATOM     16  C   UNL     1     -34.874  20.737   1.787  0.00  0.00    +0.207 C 
BRANCH  16  17
ATOM     17  C   UNL     1     -35.217  19.529   0.923  0.00  0.00    +0.069 C 
BRANCH  17  18
ATOM     18  C   UNL     1     -36.719  19.320   0.766  0.00  0.00    +0.092 C 
BRANCH  18  21
ATOM     19  S   UNL     1     -40.677  21.408  -0.312  0.00  0.00    +0.270 S 
ATOM     20  O   UNL     1     -41.718  20.425   0.133  0.00  0.00    -0.208 OA
ATOM     21  N   UNL     1     -37.458  20.370   1.426  0.00  0.00    -0.315 N 
ATOM     22  N   UNL     1     -39.264  20.461  -0.115  0.00  0.00    -0.148 NA
ATOM     23  N   UNL     1     -40.480  22.310   1.129  0.00  0.00    -0.148 NA
ATOM     24  N   UNL     1     -38.843  22.476   2.844  0.00  0.00    -0.340 N 
ATOM     25  C   UNL     1     -38.640  20.860   0.950  0.00  0.00    +0.172 A 
ATOM     26  C   UNL     1     -39.364  21.961   1.691  0.00  0.00    +0.169 A 
ATOM     27  H   UNL     1     -37.092  20.750   2.257  0.00  0.00    +0.148 HD
ATOM     28  H   UNL     1     -39.318  23.194   3.321  0.00  0.00    +0.144 HD
ATOM     29  H   UNL     1     -37.991  22.131   3.196  0.00  0.00    +0.144 HD
ENDBRANCH  18  21
ENDBRANCH  17  18
ENDBRANCH  16  17
ENDBRANCH   1  16
TORSDOF 7
ENDMDL
MODEL 3
REMARK VINA RESULT:      -6.3      3.607      4.844
REMARK  Name = 5486883
REMARK  7 active torsions:
REMARK  status: ('A' for Active; 'I' for Inactive)
REMARK    1  A    between atoms: O_1  and  C_5
REMARK    2  A    between atoms: O_1  and  C_16
REMARK    3  A    between atoms: C_2  and  C_8
REMARK    4  A    between atoms: C_8  and  N_9
REMARK    5  A    between atoms: C_16  and  C_17
REMARK    6  A    between atoms: C_17  and  C_18
REMARK    7  A    between atoms: C_18  and  N_21
REMARK                            x       y       z     vdW  Elec       q    Type
REMARK                         _______ _______ _______ _____ _____    ______ ____
ROOT
ATOM      1  O   UNL     1     -36.445  24.992   5.056  0.00  0.00    -0.475 OA
ENDROOT
BRANCH   1   5
ATOM      2  C   UNL     1     -35.603  21.698   3.733  0.00  0.00    -0.040 C 
ATOM      3  C   UNL     1     -36.076  23.002   3.791  0.00  0.00    +0.031 C 
ATOM      4  C   UNL     1     -35.042  21.090   4.848  0.00  0.00    -0.006 C 
ATOM      5  C   UNL     1     -35.985  23.712   4.988  0.00  0.00    +0.138 C 
ATOM      6  C   UNL     1     -34.952  21.801   6.044  0.00  0.00    +0.003 C 
ATOM      7  C   UNL     1     -35.424  23.113   6.115  0.00  0.00    +0.037 C 
BRANCH   2   8
ATOM      8  C   UNL     1     -35.700  20.931   2.442  0.00  0.00    -0.050 C 
BRANCH   8   9
ATOM      9  N   UNL     1     -34.406  20.836   1.766  0.00  0.00    +0.390 N 
ATOM     10  C   UNL     1     -34.415  21.624   0.525  0.00  0.00    -0.077 C 
ATOM     11  C   UNL     1     -34.066  19.431   1.502  0.00  0.00    -0.077 C 
ATOM     12  C   UNL     1     -33.053  21.576  -0.169  0.00  0.00    -0.023 C 
ATOM     13  C   UNL     1     -32.692  19.312   0.839  0.00  0.00    -0.023 C 
ATOM     14  C   UNL     1     -32.619  20.140  -0.439  0.00  0.00    -0.004 C 
ATOM     15  H   UNL     1     -33.688  21.224   2.378  0.00  0.00    -0.079 HD
ENDBRANCH   8   9
ENDBRANCH   2   8
ENDBRANCH   1   5
BRANCH   1  16
ATOM     16  C   UNL     1     -35.487  26.014   5.322  0.00  0.00    +0.207 C 
BRANCH  16  17
ATOM     17  C   UNL     1     -34.694  26.285   4.049  0.00  0.00    +0.069 C 
BRANCH  17  18
ATOM     18  C   UNL     1     -35.469  27.118   3.034  0.00  0.00    +0.092 C 
BRANCH  18  21
ATOM     19  S   UNL     1     -38.038  24.691   0.084  0.00  0.00    +0.270 S 
ATOM     20  O   UNL     1     -37.706  23.269   0.426  0.00  0.00    -0.208 OA
ATOM     21  N   UNL     1     -36.871  26.772   3.045  0.00  0.00    -0.315 N 
ATOM     22  N   UNL     1     -36.871  25.510   1.032  0.00  0.00    -0.148 NA
ATOM     23  N   UNL     1     -39.347  24.961   1.154  0.00  0.00    -0.148 NA
ATOM     24  N   UNL     1     -39.692  26.147   3.184  0.00  0.00    -0.340 N 
ATOM     25  C   UNL     1     -37.460  26.022   2.069  0.00  0.00    +0.172 A 
ATOM     26  C   UNL     1     -38.934  25.694   2.141  0.00  0.00    +0.169 A 
ATOM     27  H   UNL     1     -37.427  27.093   3.791  0.00  0.00    +0.148 HD
ATOM     28  H   UNL     1     -40.651  25.932   3.225  0.00  0.00    +0.144 HD
ATOM     29  H   UNL     1     -39.278  26.689   3.894  0.00  0.00    +0.144 HD
ENDBRANCH  18  21
ENDBRANCH  17  18
ENDBRANCH  16  17
ENDBRANCH   1  16
TORSDOF 7
ENDMDL
MODEL 4
REMARK VINA RESULT:      -6.3      2.268      2.951
REMARK  Name = 5486883
REMARK  7 active torsions:
REMARK  status: ('A' for Active; 'I' for Inactive)
REMARK    1  A    between atoms: O_1  and  C_5
REMARK    2  A    between atoms: O_1  and  C_16
REMARK    3  A    between atoms: C_2  and  C_8
REMARK    4  A    between atoms: C_8  and  N_9
REMARK    5  A    between atoms: C_16  and  C_17
REMARK    6  A    between atoms: C_17  and  C_18
REMARK    7  A    between atoms: C_18  and  N_21
REMARK                            x       y       z     vdW  Elec       q    Type
REMARK                         _______ _______ _______ _____ _____    ______ ____
ROOT
ATOM      1  O   UNL     1     -36.260  24.986   4.651  0.00  0.00    -0.475 OA
ENDROOT
BRANCH   1   5
ATOM      2  C   UNL     1     -35.537  21.597   3.511  0.00  0.00    -0.040 C 
ATOM      3  C   UNL     1     -35.913  22.933   3.485  0.00  0.00    +0.031 C 
ATOM      4  C   UNL     1     -35.144  20.988   4.695  0.00  0.00    -0.006 C 
ATOM      5  C   UNL     1     -35.894  23.675   4.665  0.00  0.00    +0.138 C 
ATOM      6  C   UNL     1     -35.126  21.731   5.875  0.00  0.00    +0.003 C 
ATOM      7  C   UNL     1     -35.501  23.075   5.861  0.00  0.00    +0.037 C 
BRANCH   2   8
ATOM      8  C   UNL     1     -35.557  20.795   2.237  0.00  0.00    -0.050 C 
BRANCH   8   9
ATOM      9  N   UNL     1     -34.218  20.651   1.664  0.00  0.00    +0.390 N 
ATOM     10  C   UNL     1     -34.110  21.413   0.412  0.00  0.00    -0.077 C 
ATOM     11  C   UNL     1     -33.901  19.232   1.452  0.00  0.00    -0.077 C 
ATOM     12  C   UNL     1     -32.701  21.312  -0.174  0.00  0.00    -0.023 C 
ATOM     13  C   UNL     1     -32.485  19.060   0.899  0.00  0.00    -0.023 C 
ATOM     14  C   UNL     1     -32.291  19.860  -0.385  0.00  0.00    -0.004 C 
ATOM     15  H   UNL     1     -33.538  21.030   2.323  0.00  0.00    -0.079 HD
ENDBRANCH   8   9
ENDBRANCH   2   8
ENDBRANCH   1   5
BRANCH   1  16
ATOM     16  C   UNL     1     -35.730  25.821   5.679  0.00  0.00    +0.207 C 
BRANCH  16  17
ATOM     17  C   UNL     1     -34.312  26.227   5.298  0.00  0.00    +0.069 C 
BRANCH  17  18
ATOM     18  C   UNL     1     -34.263  27.133   4.072  0.00  0.00    +0.092 C 
BRANCH  18  21
ATOM     19  S   UNL     1     -30.138  26.940   2.038  0.00  0.00    +0.270 S 
ATOM     20  O   UNL     1     -29.367  25.995   2.909  0.00  0.00    -0.208 OA
ATOM     21  N   UNL     1     -33.801  26.408   2.913  0.00  0.00    -0.315 N 
ATOM     22  N   UNL     1     -31.545  27.151   2.991  0.00  0.00    -0.148 NA
ATOM     23  N   UNL     1     -30.841  25.831   0.939  0.00  0.00    -0.148 NA
ATOM     24  N   UNL     1     -32.999  24.904   0.575  0.00  0.00    -0.340 N 
ATOM     25  C   UNL     1     -32.515  26.471   2.460  0.00  0.00    +0.172 A 
ATOM     26  C   UNL     1     -32.095  25.685   1.238  0.00  0.00    +0.169 A 
ATOM     27  H   UNL     1     -34.443  25.843   2.426  0.00  0.00    +0.148 HD
ATOM     28  H   UNL     1     -32.721  24.396  -0.220  0.00  0.00    +0.144 HD
ATOM     29  H   UNL     1     -33.929  24.851   0.893  0.00  0.00    +0.144 HD
ENDBRANCH  18  21
ENDBRANCH  17  18
ENDBRANCH  16  17
ENDBRANCH   1  16
TORSDOF 7
ENDMDL
MODEL 5
REMARK VINA RESULT:      -6.2      5.633     10.124
REMARK  Name = 5486883
REMARK  7 active torsions:
REMARK  status: ('A' for Active; 'I' for Inactive)
REMARK    1  A    between atoms: O_1  and  C_5
REMARK    2  A    between atoms: O_1  and  C_16
REMARK    3  A    between atoms: C_2  and  C_8
REMARK    4  A    between atoms: C_8  and  N_9
REMARK    5  A    between atoms: C_16  and  C_17
REMARK    6  A    between atoms: C_17  and  C_18
REMARK    7  A    between atoms: C_18  and  N_21
REMARK                            x       y       z     vdW  Elec       q    Type
REMARK                         _______ _______ _______ _____ _____    ______ ____
ROOT
ATOM      1  O   UNL     1     -33.859  29.793   3.846  0.00  0.00    -0.475 OA
ENDROOT
BRANCH   1   5
ATOM      2  C   UNL     1     -35.000  32.459   1.633  0.00  0.00    -0.040 C 
ATOM      3  C   UNL     1     -34.994  31.278   2.362  0.00  0.00    +0.031 C 
ATOM      4  C   UNL     1     -33.909  33.317   1.652  0.00  0.00    -0.006 C 
ATOM      5  C   UNL     1     -33.875  30.949   3.127  0.00  0.00    +0.138 C 
ATOM      6  C   UNL     1     -32.790  32.986   2.417  0.00  0.00    +0.003 C 
ATOM      7  C   UNL     1     -32.773  31.802   3.154  0.00  0.00    +0.037 C 
BRANCH   2   8
ATOM      8  C   UNL     1     -36.208  32.816   0.808  0.00  0.00    -0.050 C 
BRANCH   8   9
ATOM      9  N   UNL     1     -36.902  33.989   1.339  0.00  0.00    +0.390 N 
ATOM     10  C   UNL     1     -38.258  33.629   1.778  0.00  0.00    -0.077 C 
ATOM     11  C   UNL     1     -36.936  35.062   0.336  0.00  0.00    -0.077 C 
ATOM     12  C   UNL     1     -38.981  34.834   2.381  0.00  0.00    -0.023 C 
ATOM     13  C   UNL     1     -37.617  36.315   0.893  0.00  0.00    -0.023 C 
ATOM     14  C   UNL     1     -39.018  36.003   1.405  0.00  0.00    -0.004 C 
ATOM     15  H   UNL     1     -36.390  34.332   2.151  0.00  0.00    -0.079 HD
ENDBRANCH   8   9
ENDBRANCH   2   8
ENDBRANCH   1   5
BRANCH   1  16
ATOM     16  C   UNL     1     -33.661  28.580   3.122  0.00  0.00    +0.207 C 
BRANCH  16  17
ATOM     17  C   UNL     1     -32.706  27.690   3.908  0.00  0.00    +0.069 C 
BRANCH  17  18
ATOM     18  C   UNL     1     -33.392  26.947   5.050  0.00  0.00    +0.092 C 
BRANCH  18  21
ATOM     19  S   UNL     1     -35.599  22.917   4.775  0.00  0.00    +0.270 S 
ATOM     20  O   UNL     1     -35.902  22.591   6.206  0.00  0.00    -0.208 OA
ATOM     21  N   UNL     1     -34.757  26.625   4.709  0.00  0.00    -0.315 N 
ATOM     22  N   UNL     1     -34.574  24.272   4.984  0.00  0.00    -0.148 NA
ATOM     23  N   UNL     1     -36.996  23.820   4.369  0.00  0.00    -0.148 NA
ATOM     24  N   UNL     1     -37.517  26.111   4.008  0.00  0.00    -0.340 N 
ATOM     25  C   UNL     1     -35.238  25.347   4.691  0.00  0.00    +0.172 A 
ATOM     26  C   UNL     1     -36.680  25.078   4.325  0.00  0.00    +0.169 A 
ATOM     27  H   UNL     1     -35.369  27.360   4.477  0.00  0.00    +0.148 HD
ATOM     28  H   UNL     1     -38.453  25.930   3.770  0.00  0.00    +0.144 HD
ATOM     29  H   UNL     1     -37.181  27.036   4.018  0.00  0.00    +0.144 HD
ENDBRANCH  18  21
ENDBRANCH  17  18
ENDBRANCH  16  17
ENDBRANCH   1  16
TORSDOF 7
ENDMDL
MODEL 6
REMARK VINA RESULT:      -6.2      8.039     10.931
REMARK  Name = 5486883
REMARK  7 active torsions:
REMARK  status: ('A' for Active; 'I' for Inactive)
REMARK    1  A    between atoms: O_1  and  C_5
REMARK    2  A    between atoms: O_1  and  C_16
REMARK    3  A    between atoms: C_2  and  C_8
REMARK    4  A    between atoms: C_8  and  N_9
REMARK    5  A    between atoms: C_16  and  C_17
REMARK    6  A    between atoms: C_17  and  C_18
REMARK    7  A    between atoms: C_18  and  N_21
REMARK                            x       y       z     vdW  Elec       q    Type
REMARK                         _______ _______ _______ _____ _____    ______ ____
ROOT
ATOM      1  O   UNL     1     -42.583  27.041   2.769  0.00  0.00    -0.475 OA
ENDROOT
BRANCH   1   5
ATOM      2  C   UNL     1     -45.452  26.547   4.967  0.00  0.00    -0.040 C 
ATOM      3  C   UNL     1     -44.233  27.010   4.494  0.00  0.00    +0.031 C 
ATOM      4  C   UNL     1     -46.226  25.674   4.215  0.00  0.00    -0.006 C 
ATOM      5  C   UNL     1     -43.778  26.593   3.243  0.00  0.00    +0.138 C 
ATOM      6  C   UNL     1     -45.771  25.257   2.964  0.00  0.00    +0.003 C 
ATOM      7  C   UNL     1     -44.546  25.716   2.478  0.00  0.00    +0.037 C 
BRANCH   2   8
ATOM      8  C   UNL     1     -45.944  26.997   6.317  0.00  0.00    -0.050 C 
BRANCH   8   9
ATOM      9  N   UNL     1     -45.544  28.373   6.611  0.00  0.00    +0.390 N 
ATOM     10  C   UNL     1     -45.396  28.568   8.060  0.00  0.00    -0.077 C 
ATOM     11  C   UNL     1     -46.514  29.321   6.044  0.00  0.00    -0.077 C 
ATOM     12  C   UNL     1     -44.931  29.989   8.381  0.00  0.00    -0.023 C 
ATOM     13  C   UNL     1     -46.084  30.767   6.300  0.00  0.00    -0.023 C 
ATOM     14  C   UNL     1     -45.873  31.028   7.787  0.00  0.00    -0.004 C 
ATOM     15  H   UNL     1     -44.639  28.551   6.176  0.00  0.00    -0.079 HD
ENDBRANCH   8   9
ENDBRANCH   2   8
ENDBRANCH   1   5
BRANCH   1  16
ATOM     16  C   UNL     1     -41.409  26.614   3.458  0.00  0.00    +0.207 C 
BRANCH  16  17
ATOM     17  C   UNL     1     -40.544  25.807   2.498  0.00  0.00    +0.069 C 
BRANCH  17  18
ATOM     18  C   UNL     1     -39.758  24.702   3.194  0.00  0.00    +0.092 C 
BRANCH  18  21
ATOM     19  S   UNL     1     -35.619  22.928   4.151  0.00  0.00    +0.270 S 
ATOM     20  O   UNL     1     -34.865  23.097   2.866  0.00  0.00    -0.208 OA
ATOM     21  N   UNL     1     -38.625  25.245   3.906  0.00  0.00    -0.315 N 
ATOM     22  N   UNL     1     -37.192  23.367   3.639  0.00  0.00    -0.148 NA
ATOM     23  N   UNL     1     -35.262  24.421   4.908  0.00  0.00    -0.148 NA
ATOM     24  N   UNL     1     -36.426  26.445   5.352  0.00  0.00    -0.340 N 
ATOM     25  C   UNL     1     -37.458  24.558   4.082  0.00  0.00    +0.172 A 
ATOM     26  C   UNL     1     -36.309  25.185   4.838  0.00  0.00    +0.169 A 
ATOM     27  H   UNL     1     -38.698  26.151   4.282  0.00  0.00    +0.148 HD
ATOM     28  H   UNL     1     -35.676  26.848   5.844  0.00  0.00    +0.144 HD
ATOM     29  H   UNL     1     -37.263  26.950   5.232  0.00  0.00    +0.144 HD
ENDBRANCH  18  21
ENDBRANCH  17  18
ENDBRANCH  16  17
ENDBRANCH   1  16
TORSDOF 7
ENDMDL
MODEL 7
REMARK VINA RESULT:      -6.2      5.141      9.211
REMARK  Name = 5486883
REMARK  7 active torsions:
REMARK  status: ('A' for Active; 'I' for Inactive)
REMARK    1  A    between atoms: O_1  and  C_5
REMARK    2  A    between atoms: O_1  and  C_16
REMARK    3  A    between atoms: C_2  and  C_8
REMARK    4  A    between atoms: C_8  and  N_9
REMARK    5  A    between atoms: C_16  and  C_17
REMARK    6  A    between atoms: C_17  and  C_18
REMARK    7  A    between atoms: C_18  and  N_21
REMARK                            x       y       z     vdW  Elec       q    Type
REMARK                         _______ _______ _______ _____ _____    ______ ____
ROOT
ATOM      1  O   UNL     1     -35.279  20.349   3.384  0.00  0.00    -0.475 OA
ENDROOT
BRANCH   1   5
ATOM      2  C   UNL     1     -35.670  23.878   4.216  0.00  0.00    -0.040 C 
ATOM      3  C   UNL     1     -35.601  22.712   3.468  0.00  0.00    +0.031 C 
ATOM      4  C   UNL     1     -35.492  23.857   5.592  0.00  0.00    -0.006 C 
ATOM      5  C   UNL     1     -35.349  21.499   4.108  0.00  0.00    +0.138 C 
ATOM      6  C   UNL     1     -35.239  22.644   6.232  0.00  0.00    +0.003 C 
ATOM      7  C   UNL     1     -35.167  21.465   5.491  0.00  0.00    +0.037 C 
BRANCH   2   8
ATOM      8  C   UNL     1     -35.943  25.188   3.525  0.00  0.00    -0.050 C 
BRANCH   8   9
ATOM      9  N   UNL     1     -37.165  25.135   2.721  0.00  0.00    +0.390 N 
ATOM     10  C   UNL     1     -37.277  26.333   1.877  0.00  0.00    -0.077 C 
ATOM     11  C   UNL     1     -38.343  24.983   3.586  0.00  0.00    -0.077 C 
ATOM     12  C   UNL     1     -38.524  26.271   0.993  0.00  0.00    -0.023 C 
ATOM     13  C   UNL     1     -39.625  24.877   2.758  0.00  0.00    -0.023 C 
ATOM     14  C   UNL     1     -39.784  26.074   1.827  0.00  0.00    -0.004 C 
ATOM     15  H   UNL     1     -37.118  24.322   2.108  0.00  0.00    -0.079 HD
ENDBRANCH   8   9
ENDBRANCH   2   8
ENDBRANCH   1   5
BRANCH   1  16
ATOM     16  C   UNL     1     -35.181  20.478   1.967  0.00  0.00    +0.207 C 
BRANCH  16  17
ATOM     17  C   UNL     1     -34.075  19.558   1.465  0.00  0.00    +0.069 C 
BRANCH  17  18
ATOM     18  C   UNL     1     -34.374  18.962   0.095  0.00  0.00    +0.092 C 
BRANCH  18  21
ATOM     19  S   UNL     1     -38.776  18.762  -1.239  0.00  0.00    +0.270 S 
ATOM     20  O   UNL     1     -38.679  18.503  -2.712  0.00  0.00    -0.208 OA
ATOM     21  N   UNL     1     -35.358  17.909   0.194  0.00  0.00    -0.315 N 
ATOM     22  N   UNL     1     -37.131  19.073  -0.878  0.00  0.00    -0.148 NA
ATOM     23  N   UNL     1     -38.780  17.155  -0.650  0.00  0.00    -0.148 NA
ATOM     24  N   UNL     1     -37.236  15.724   0.453  0.00  0.00    -0.340 N 
ATOM     25  C   UNL     1     -36.633  18.036  -0.277  0.00  0.00    +0.172 A 
ATOM     26  C   UNL     1     -37.615  16.894  -0.142  0.00  0.00    +0.169 A 
ATOM     27  H   UNL     1     -35.097  17.062   0.622  0.00  0.00    +0.148 HD
ATOM     28  H   UNL     1     -37.879  14.985   0.540  0.00  0.00    +0.144 HD
ATOM     29  H   UNL     1     -36.319  15.622   0.797  0.00  0.00    +0.144 HD
ENDBRANCH  18  21
ENDBRANCH  17  18
ENDBRANCH  16  17
ENDBRANCH   1  16
TORSDOF 7
ENDMDL
MODEL 8
REMARK VINA RESULT:      -6.2      1.859      2.260
REMARK  Name = 5486883
REMARK  7 active torsions:
REMARK  status: ('A' for Active; 'I' for Inactive)
REMARK    1  A    between atoms: O_1  and  C_5
REMARK    2  A    between atoms: O_1  and  C_16
REMARK    3  A    between atoms: C_2  and  C_8
REMARK    4  A    between atoms: C_8  and  N_9
REMARK    5  A    between atoms: C_16  and  C_17
REMARK    6  A    between atoms: C_17  and  C_18
REMARK    7  A    between atoms: C_18  and  N_21
REMARK                            x       y       z     vdW  Elec       q    Type
REMARK                         _______ _______ _______ _____ _____    ______ ____
ROOT
ATOM      1  O   UNL     1     -36.427  25.241   4.219  0.00  0.00    -0.475 OA
ENDROOT
BRANCH   1   5
ATOM      2  C   UNL     1     -35.587  21.743   3.620  0.00  0.00    -0.040 C 
ATOM      3  C   UNL     1     -36.021  23.041   3.391  0.00  0.00    +0.031 C 
ATOM      4  C   UNL     1     -35.135  21.351   4.873  0.00  0.00    -0.006 C 
ATOM      5  C   UNL     1     -36.003  23.966   4.434  0.00  0.00    +0.138 C 
ATOM      6  C   UNL     1     -35.118  22.277   5.916  0.00  0.00    +0.003 C 
ATOM      7  C   UNL     1     -35.552  23.584   5.697  0.00  0.00    +0.037 C 
BRANCH   2   8
ATOM      8  C   UNL     1     -35.606  20.744   2.495  0.00  0.00    -0.050 C 
BRANCH   8   9
ATOM      9  N   UNL     1     -34.320  20.683   1.799  0.00  0.00    +0.390 N 
ATOM     10  C   UNL     1     -34.387  21.420   0.529  0.00  0.00    -0.077 C 
ATOM     11  C   UNL     1     -33.919  19.286   1.582  0.00  0.00    -0.077 C 
ATOM     12  C   UNL     1     -33.036  21.408  -0.188  0.00  0.00    -0.023 C 
ATOM     13  C   UNL     1     -32.552  19.205   0.899  0.00  0.00    -0.023 C 
ATOM     14  C   UNL     1     -32.540  19.985  -0.411  0.00  0.00    -0.004 C 
ATOM     15  H   UNL     1     -33.612  21.127   2.382  0.00  0.00    -0.079 HD
ENDBRANCH   8   9
ENDBRANCH   2   8
ENDBRANCH   1   5
BRANCH   1  16
ATOM     16  C   UNL     1     -37.617  25.410   3.450  0.00  0.00    +0.207 C 
BRANCH  16  17
ATOM     17  C   UNL     1     -37.252  26.052   2.117  0.00  0.00    +0.069 C 
BRANCH  17  18
ATOM     18  C   UNL     1     -36.260  27.201   2.264  0.00  0.00    +0.092 C 
BRANCH  18  21
ATOM     19  S   UNL     1     -32.378  28.080   4.576  0.00  0.00    +0.270 S 
ATOM     20  O   UNL     1     -32.485  27.193   5.780  0.00  0.00    -0.208 OA
ATOM     21  N   UNL     1     -34.905  26.740   2.070  0.00  0.00    -0.315 N 
ATOM     22  N   UNL     1     -33.947  27.886   3.918  0.00  0.00    -0.148 NA
ATOM     23  N   UNL     1     -31.602  27.014   3.484  0.00  0.00    -0.148 NA
ATOM     24  N   UNL     1     -32.234  25.746   1.576  0.00  0.00    -0.340 N 
ATOM     25  C   UNL     1     -33.871  27.110   2.881  0.00  0.00    +0.172 A 
ATOM     26  C   UNL     1     -32.474  26.590   2.623  0.00  0.00    +0.169 A 
ATOM     27  H   UNL     1     -34.719  26.132   1.319  0.00  0.00    +0.148 HD
ATOM     28  H   UNL     1     -31.323  25.412   1.413  0.00  0.00    +0.144 HD
ATOM     29  H   UNL     1     -32.972  25.472   0.985  0.00  0.00    +0.144 HD
ENDBRANCH  18  21
ENDBRANCH  17  18
ENDBRANCH  16  17
ENDBRANCH   1  16
TORSDOF 7
ENDMDL
MODEL 9
REMARK VINA RESULT:      -6.2      5.155      6.567
REMARK  Name = 5486883
REMARK  7 active torsions:
REMARK  status: ('A' for Active; 'I' for Inactive)
REMARK    1  A    between atoms: O_1  and  C_5
REMARK    2  A    between atoms: O_1  and  C_16
REMARK    3  A    between atoms: C_2  and  C_8
REMARK    4  A    between atoms: C_8  and  N_9
REMARK    5  A    between atoms: C_16  and  C_17
REMARK    6  A    between atoms: C_17  and  C_18
REMARK    7  A    between atoms: C_18  and  N_21
REMARK                            x       y       z     vdW  Elec       q    Type
REMARK                         _______ _______ _______ _____ _____    ______ ____
ROOT
ATOM      1  O   UNL     1     -37.104  24.672   4.383  0.00  0.00    -0.475 OA
ENDROOT
BRANCH   1   5
ATOM      2  C   UNL     1     -35.597  21.453   3.563  0.00  0.00    -0.040 C 
ATOM      3  C   UNL     1     -36.324  22.628   3.430  0.00  0.00    +0.031 C 
ATOM      4  C   UNL     1     -34.938  21.150   4.747  0.00  0.00    -0.006 C 
ATOM      5  C   UNL     1     -36.394  23.517   4.502  0.00  0.00    +0.138 C 
ATOM      6  C   UNL     1     -35.009  22.039   5.819  0.00  0.00    +0.003 C 
ATOM      7  C   UNL     1     -35.737  23.224   5.697  0.00  0.00    +0.037 C 
BRANCH   2   8
ATOM      8  C   UNL     1     -35.521  20.493   2.407  0.00  0.00    -0.050 C 
BRANCH   8   9
ATOM      9  N   UNL     1     -34.204  20.512   1.769  0.00  0.00    +0.390 N 
ATOM     10  C   UNL     1     -34.237  21.326   0.545  0.00  0.00    -0.077 C 
ATOM     11  C   UNL     1     -33.752  19.143   1.485  0.00  0.00    -0.077 C 
ATOM     12  C   UNL     1     -32.856  21.397  -0.107  0.00  0.00    -0.023 C 
ATOM     13  C   UNL     1     -32.354  19.143   0.862  0.00  0.00    -0.023 C 
ATOM     14  C   UNL     1     -32.307  20.005  -0.395  0.00  0.00    -0.004 C 
ATOM     15  H   UNL     1     -33.536  20.937   2.411  0.00  0.00    -0.079 HD
ENDBRANCH   8   9
ENDBRANCH   2   8
ENDBRANCH   1   5
BRANCH   1  16
ATOM     16  C   UNL     1     -37.050  25.341   3.124  0.00  0.00    +0.207 C 
BRANCH  16  17
ATOM     17  C   UNL     1     -38.391  26.019   2.871  0.00  0.00    +0.069 C 
BRANCH  17  18
ATOM     18  C   UNL     1     -39.572  25.214   3.402  0.00  0.00    +0.092 C 
BRANCH  18  21
ATOM     19  S   UNL     1     -41.267  23.122  -0.331  0.00  0.00    +0.270 S 
ATOM     20  O   UNL     1     -40.294  23.497  -1.409  0.00  0.00    -0.208 OA
ATOM     21  N   UNL     1     -39.502  23.842   2.959  0.00  0.00    -0.315 N 
ATOM     22  N   UNL     1     -40.716  24.131   0.937  0.00  0.00    -0.148 NA
ATOM     23  N   UNL     1     -40.531  21.693   0.255  0.00  0.00    -0.148 NA
ATOM     24  N   UNL     1     -39.290  21.064   2.182  0.00  0.00    -0.340 N 
ATOM     25  C   UNL     1     -40.069  23.406   1.797  0.00  0.00    +0.172 A 
ATOM     26  C   UNL     1     -39.959  21.953   1.390  0.00  0.00    +0.169 A 
ATOM     27  H   UNL     1     -39.025  23.191   3.522  0.00  0.00    +0.148 HD
ATOM     28  H   UNL     1     -39.223  20.120   1.914  0.00  0.00    +0.144 HD
ATOM     29  H   UNL     1     -38.878  21.367   3.023  0.00  0.00    +0.144 HD
ENDBRANCH  18  21
ENDBRANCH  17  18
ENDBRANCH  16  17
ENDBRANCH   1  16
TORSDOF 7
ENDMDL
