MODEL 1
REMARK VINA RESULT:      -5.8      0.000      0.000
REMARK  Name = 195480
REMARK  10 active torsions:
REMARK  status: ('A' for Active; 'I' for Inactive)
REMARK    1  A    between atoms: N_1  and  C_22
REMARK    2  A    between atoms: C_2  and  S_10
REMARK    3  A    between atoms: S_10  and  C_11
REMARK    4  A    between atoms: C_11  and  C_12
REMARK    5  A    between atoms: C_12  and  N_14
REMARK    6  A    between atoms: C_12  and  C_19
REMARK    7  A    between atoms: C_19  and  O_20
REMARK    8  A    between atoms: C_22  and  C_23
REMARK    9  A    between atoms: C_22  and  C_27
REMARK   10  A    between atoms: C_27  and  O_28
REMARK                            x       y       z     vdW  Elec       q    Type
REMARK                         _______ _______ _______ _____ _____    ______ ____
ROOT
ATOM      1  N   UNK A   1     -34.573  26.832   3.178  0.00  0.00    -0.273 N 
ATOM      2  C   UNK A   1     -34.432  26.445   4.483  0.00  0.00    +0.078 C 
ATOM      3  C   UNK A   1     -33.415  27.208   4.998  0.00  0.00    +0.021 C 
ATOM      4  C   UNK A   1     -33.684  27.815   2.835  0.00  0.00    +0.066 C 
ATOM      5  C   UNK A   1     -32.945  28.068   3.963  0.00  0.00    +0.017 C 
ATOM      6  C   UNK A   1     -32.921  27.161   6.294  0.00  0.00    +0.002 C 
ATOM      7  C   UNK A   1     -31.919  28.996   4.088  0.00  0.00    +0.001 C 
ATOM      8  C   UNK A   1     -31.872  28.098   6.450  0.00  0.00    +0.000 C 
ATOM      9  C   UNK A   1     -31.397  28.969   5.403  0.00  0.00    +0.000 C 
ENDROOT
BRANCH   2  10
ATOM     10  S   UNK A   1     -35.435  25.212   5.184  0.00  0.00    -0.097 S 
BRANCH  10  11
ATOM     11  C   UNK A   1     -34.618  23.712   4.575  0.00  0.00    +0.094 C 
BRANCH  11  12
ATOM     12  C   UNK A   1     -35.549  22.500   4.476  0.00  0.00    +0.183 C 
BRANCH  12  14
ATOM     13  O   UNK A   0     -36.501  22.598   1.735  0.00  0.00    -0.275 OA
ATOM     14  N   UNK A   1     -36.866  22.868   4.018  0.00  0.00    -0.296 N 
ATOM     15  C   UNK A   0     -37.229  22.885   2.681  0.00  0.00    +0.223 C 
ATOM     16  C   UNK A   0     -38.669  23.281   2.484  0.00  0.00    +0.095 C 
ATOM     17  H   UNK A   1     -37.541  23.121   4.690  0.00  0.00    +0.150 HD
ENDBRANCH  12  14
BRANCH  12  19
ATOM     18  O   UNK A   1     -36.148  22.098   6.790  0.00  0.00    -0.248 OA
ATOM     19  C   UNK A   1     -35.600  21.702   5.768  0.00  0.00    +0.333 C 
BRANCH  19  20
ATOM     20  O   UNK A   1     -34.965  20.509   5.687  0.00  0.00    -0.479 OA
ATOM     21  H   UNK A   1     -34.362  20.346   4.989  0.00  0.00    +0.295 HD
ENDBRANCH  19  20
ENDBRANCH  12  19
ENDBRANCH  11  12
ENDBRANCH  10  11
ENDBRANCH   2  10
BRANCH   1  22
ATOM     22  C   UNK A   1     -35.546  26.288   2.219  0.00  0.00    +0.176 C 
BRANCH  22  23
ATOM     23  C   UNK A   1     -34.921  25.952   0.835  0.00  0.00    +0.029 C 
ATOM     24  C   UNK A   1     -33.891  24.819   0.956  0.00  0.00    +0.002 C 
ATOM     25  C   UNK A   1     -35.984  25.534  -0.191  0.00  0.00    +0.002 C 
ENDBRANCH  22  23
BRANCH  22  27
ATOM     26  O   UNK A   1     -36.701  28.339   1.567  0.00  0.00    -0.248 OA
ATOM     27  C   UNK A   1     -36.731  27.242   2.110  0.00  0.00    +0.332 C 
BRANCH  27  28
ATOM     28  O   UNK A   1     -37.860  26.725   2.661  0.00  0.00    -0.479 OA
ATOM     29  H   UNK A   1     -38.006  25.800   2.649  0.00  0.00    +0.295 HD
ENDBRANCH  27  28
ENDBRANCH  22  27
ENDBRANCH   1  22
TORSDOF 10
ENDMDL
MODEL 2
REMARK VINA RESULT:      -5.6      3.972      5.816
REMARK  Name = 195480
REMARK  10 active torsions:
REMARK  status: ('A' for Active; 'I' for Inactive)
REMARK    1  A    between atoms: N_1  and  C_22
REMARK    2  A    between atoms: C_2  and  S_10
REMARK    3  A    between atoms: S_10  and  C_11
REMARK    4  A    between atoms: C_11  and  C_12
REMARK    5  A    between atoms: C_12  and  N_14
REMARK    6  A    between atoms: C_12  and  C_19
REMARK    7  A    between atoms: C_19  and  O_20
REMARK    8  A    between atoms: C_22  and  C_23
REMARK    9  A    between atoms: C_22  and  C_27
REMARK   10  A    between atoms: C_27  and  O_28
REMARK                            x       y       z     vdW  Elec       q    Type
REMARK                         _______ _______ _______ _____ _____    ______ ____
ROOT
ATOM      1  N   UNK A   1     -37.575  22.929   2.247  0.00  0.00    -0.273 N 
ATOM      2  C   UNK A   1     -36.627  22.243   2.955  0.00  0.00    +0.078 C 
ATOM      3  C   UNK A   1     -36.148  23.117   3.897  0.00  0.00    +0.021 C 
ATOM      4  C   UNK A   1     -37.723  24.213   2.699  0.00  0.00    +0.066 C 
ATOM      5  C   UNK A   1     -36.837  24.355   3.736  0.00  0.00    +0.017 C 
ATOM      6  C   UNK A   1     -35.168  22.858   4.845  0.00  0.00    +0.002 C 
ATOM      7  C   UNK A   1     -36.636  25.496   4.501  0.00  0.00    +0.001 C 
ATOM      8  C   UNK A   1     -34.942  24.006   5.640  0.00  0.00    +0.000 C 
ATOM      9  C   UNK A   1     -35.640  25.258   5.477  0.00  0.00    +0.000 C 
ENDROOT
BRANCH   2  10
ATOM     10  S   UNK A   1     -36.236  20.589   2.594  0.00  0.00    -0.097 S 
BRANCH  10  11
ATOM     11  C   UNK A   1     -34.774  20.799   1.542  0.00  0.00    +0.094 C 
BRANCH  11  12
ATOM     12  C   UNK A   1     -34.113  19.480   1.134  0.00  0.00    +0.183 C 
BRANCH  12  14
ATOM     13  O   UNK A   0     -31.857  17.664   1.340  0.00  0.00    -0.275 OA
ATOM     14  N   UNK A   1     -32.778  19.680   0.627  0.00  0.00    -0.296 N 
ATOM     15  C   UNK A   0     -31.761  18.750   0.775  0.00  0.00    +0.223 C 
ATOM     16  C   UNK A   0     -30.476  19.200   0.131  0.00  0.00    +0.095 C 
ATOM     17  H   UNK A   1     -32.579  20.520   0.153  0.00  0.00    +0.150 HD
ENDBRANCH  12  14
BRANCH  12  19
ATOM     18  O   UNK A   1     -35.685  19.183  -0.688  0.00  0.00    -0.248 OA
ATOM     19  C   UNK A   1     -34.971  18.677   0.169  0.00  0.00    +0.333 C 
BRANCH  19  20
ATOM     20  O   UNK A   1     -34.882  17.339   0.359  0.00  0.00    -0.479 OA
ATOM     21  H   UNK A   1     -34.340  16.821  -0.203  0.00  0.00    +0.295 HD
ENDBRANCH  19  20
ENDBRANCH  12  19
ENDBRANCH  11  12
ENDBRANCH  10  11
ENDBRANCH   2  10
BRANCH   1  22
ATOM     22  C   UNK A   1     -38.366  22.397   1.127  0.00  0.00    +0.176 C 
BRANCH  22  23
ATOM     23  C   UNK A   1     -38.193  23.211  -0.187  0.00  0.00    +0.029 C 
ATOM     24  C   UNK A   1     -36.714  23.298  -0.591  0.00  0.00    +0.002 C 
ATOM     25  C   UNK A   1     -38.980  22.596  -1.353  0.00  0.00    +0.002 C 
ENDBRANCH  22  23
BRANCH  22  27
ATOM     26  O   UNK A   1     -40.661  23.169   1.455  0.00  0.00    -0.248 OA
ATOM     27  C   UNK A   1     -39.826  22.279   1.555  0.00  0.00    +0.332 C 
BRANCH  27  28
ATOM     28  O   UNK A   1     -40.121  21.044   2.040  0.00  0.00    -0.479 OA
ATOM     29  H   UNK A   1     -40.376  20.941   2.935  0.00  0.00    +0.295 HD
ENDBRANCH  27  28
ENDBRANCH  22  27
ENDBRANCH   1  22
TORSDOF 10
ENDMDL
MODEL 3
REMARK VINA RESULT:      -5.6      3.212      4.718
REMARK  Name = 195480
REMARK  10 active torsions:
REMARK  status: ('A' for Active; 'I' for Inactive)
REMARK    1  A    between atoms: N_1  and  C_22
REMARK    2  A    between atoms: C_2  and  S_10
REMARK    3  A    between atoms: S_10  and  C_11
REMARK    4  A    between atoms: C_11  and  C_12
REMARK    5  A    between atoms: C_12  and  N_14
REMARK    6  A    between atoms: C_12  and  C_19
REMARK    7  A    between atoms: C_19  and  O_20
REMARK    8  A    between atoms: C_22  and  C_23
REMARK    9  A    between atoms: C_22  and  C_27
REMARK   10  A    between atoms: C_27  and  O_28
REMARK                            x       y       z     vdW  Elec       q    Type
REMARK                         _______ _______ _______ _____ _____    ______ ____
ROOT
ATOM      1  N   UNK A   1     -35.722  24.560   2.360  0.00  0.00    -0.273 N 
ATOM      2  C   UNK A   1     -35.544  23.209   2.233  0.00  0.00    +0.078 C 
ATOM      3  C   UNK A   1     -35.446  22.716   3.508  0.00  0.00    +0.021 C 
ATOM      4  C   UNK A   1     -35.742  24.953   3.672  0.00  0.00    +0.066 C 
ATOM      5  C   UNK A   1     -35.571  23.811   4.413  0.00  0.00    +0.017 C 
ATOM      6  C   UNK A   1     -35.259  21.388   3.870  0.00  0.00    +0.002 C 
ATOM      7  C   UNK A   1     -35.524  23.723   5.798  0.00  0.00    +0.001 C 
ATOM      8  C   UNK A   1     -35.208  21.270   5.279  0.00  0.00    +0.000 C 
ATOM      9  C   UNK A   1     -35.335  22.378   6.194  0.00  0.00    +0.000 C 
ENDROOT
BRANCH   2  10
ATOM     10  S   UNK A   1     -35.481  22.439   0.677  0.00  0.00    -0.097 S 
BRANCH  10  11
ATOM     11  C   UNK A   1     -37.248  22.272   0.300  0.00  0.00    +0.094 C 
BRANCH  11  12
ATOM     12  C   UNK A   1     -37.964  21.223   1.155  0.00  0.00    +0.183 C 
BRANCH  12  14
ATOM     13  O   UNK A   0     -36.404  18.921   0.321  0.00  0.00    -0.275 OA
ATOM     14  N   UNK A   1     -38.411  20.100   0.368  0.00  0.00    -0.296 N 
ATOM     15  C   UNK A   0     -37.588  19.042   0.018  0.00  0.00    +0.223 C 
ATOM     16  C   UNK A   0     -38.313  17.993  -0.783  0.00  0.00    +0.095 C 
ATOM     17  H   UNK A   1     -39.347  20.086   0.064  0.00  0.00    +0.150 HD
ENDBRANCH  12  14
BRANCH  12  19
ATOM     18  O   UNK A   1     -39.056  22.945   2.466  0.00  0.00    -0.248 OA
ATOM     19  C   UNK A   1     -39.091  21.821   1.981  0.00  0.00    +0.333 C 
BRANCH  19  20
ATOM     20  O   UNK A   1     -40.140  20.980   2.144  0.00  0.00    -0.479 OA
ATOM     21  H   UNK A   1     -39.998  20.054   2.174  0.00  0.00    +0.295 HD
ENDBRANCH  19  20
ENDBRANCH  12  19
ENDBRANCH  11  12
ENDBRANCH  10  11
ENDBRANCH   2  10
BRANCH   1  22
ATOM     22  C   UNK A   1     -35.877  25.516   1.254  0.00  0.00    +0.176 C 
BRANCH  22  23
ATOM     23  C   UNK A   1     -34.677  26.496   1.118  0.00  0.00    +0.029 C 
ATOM     24  C   UNK A   1     -33.340  25.745   1.204  0.00  0.00    +0.002 C 
ATOM     25  C   UNK A   1     -34.714  27.271  -0.207  0.00  0.00    +0.002 C 
ENDBRANCH  22  23
BRANCH  22  27
ATOM     26  O   UNK A   1     -37.344  27.396   1.785  0.00  0.00    -0.248 OA
ATOM     27  C   UNK A   1     -37.211  26.242   1.402  0.00  0.00    +0.332 C 
BRANCH  27  28
ATOM     28  O   UNK A   1     -38.262  25.468   1.022  0.00  0.00    -0.479 OA
ATOM     29  H   UNK A   1     -38.912  25.811   0.442  0.00  0.00    +0.295 HD
ENDBRANCH  27  28
ENDBRANCH  22  27
ENDBRANCH   1  22
TORSDOF 10
ENDMDL
MODEL 4
REMARK VINA RESULT:      -5.5      3.055      6.155
REMARK  Name = 195480
REMARK  10 active torsions:
REMARK  status: ('A' for Active; 'I' for Inactive)
REMARK    1  A    between atoms: N_1  and  C_22
REMARK    2  A    between atoms: C_2  and  S_10
REMARK    3  A    between atoms: S_10  and  C_11
REMARK    4  A    between atoms: C_11  and  C_12
REMARK    5  A    between atoms: C_12  and  N_14
REMARK    6  A    between atoms: C_12  and  C_19
REMARK    7  A    between atoms: C_19  and  O_20
REMARK    8  A    between atoms: C_22  and  C_23
REMARK    9  A    between atoms: C_22  and  C_27
REMARK   10  A    between atoms: C_27  and  O_28
REMARK                            x       y       z     vdW  Elec       q    Type
REMARK                         _______ _______ _______ _____ _____    ______ ____
ROOT
ATOM      1  N   UNK A   1     -35.506  21.618   1.988  0.00  0.00    -0.273 N 
ATOM      2  C   UNK A   1     -35.470  22.953   2.287  0.00  0.00    +0.078 C 
ATOM      3  C   UNK A   1     -35.377  23.035   3.652  0.00  0.00    +0.021 C 
ATOM      4  C   UNK A   1     -35.438  20.839   3.113  0.00  0.00    +0.066 C 
ATOM      5  C   UNK A   1     -35.356  21.708   4.171  0.00  0.00    +0.017 C 
ATOM      6  C   UNK A   1     -35.312  24.197   4.409  0.00  0.00    +0.002 C 
ATOM      7  C   UNK A   1     -35.269  21.367   5.515  0.00  0.00    +0.001 C 
ATOM      8  C   UNK A   1     -35.222  23.879   5.784  0.00  0.00    +0.000 C 
ATOM      9  C   UNK A   1     -35.201  22.536   6.309  0.00  0.00    +0.000 C 
ENDROOT
BRANCH   2  10
ATOM     10  S   UNK A   1     -35.539  24.168   1.047  0.00  0.00    -0.097 S 
BRANCH  10  11
ATOM     11  C   UNK A   1     -37.317  24.522   1.006  0.00  0.00    +0.094 C 
BRANCH  11  12
ATOM     12  C   UNK A   1     -37.714  25.779   1.785  0.00  0.00    +0.183 C 
BRANCH  12  14
ATOM     13  O   UNK A   0     -37.215  28.557   1.105  0.00  0.00    -0.275 OA
ATOM     14  N   UNK A   1     -36.566  26.577   2.141  0.00  0.00    -0.296 N 
ATOM     15  C   UNK A   0     -36.416  27.903   1.769  0.00  0.00    +0.223 C 
ATOM     16  C   UNK A   0     -35.140  28.504   2.294  0.00  0.00    +0.095 C 
ATOM     17  H   UNK A   1     -35.853  26.157   2.676  0.00  0.00    +0.150 HD
ENDBRANCH  12  14
BRANCH  12  19
ATOM     18  O   UNK A   1     -38.625  24.361   3.528  0.00  0.00    -0.248 OA
ATOM     19  C   UNK A   1     -38.581  25.463   2.992  0.00  0.00    +0.333 C 
BRANCH  19  20
ATOM     20  O   UNK A   1     -39.318  26.517   3.414  0.00  0.00    -0.479 OA
ATOM     21  H   UNK A   1     -39.629  27.149   2.796  0.00  0.00    +0.295 HD
ENDBRANCH  19  20
ENDBRANCH  12  19
ENDBRANCH  11  12
ENDBRANCH  10  11
ENDBRANCH   2  10
BRANCH   1  22
ATOM     22  C   UNK A   1     -35.604  21.039   0.640  0.00  0.00    +0.176 C 
BRANCH  22  23
ATOM     23  C   UNK A   1     -36.929  20.259   0.403  0.00  0.00    +0.029 C 
ATOM     24  C   UNK A   1     -38.132  21.031   0.964  0.00  0.00    +0.002 C 
ATOM     25  C   UNK A   1     -37.178  19.987  -1.087  0.00  0.00    +0.002 C 
ENDBRANCH  22  23
BRANCH  22  27
ATOM     26  O   UNK A   1     -34.359  18.968   0.283  0.00  0.00    -0.248 OA
ATOM     27  C   UNK A   1     -34.367  20.189   0.367  0.00  0.00    +0.332 C 
BRANCH  27  28
ATOM     28  O   UNK A   1     -33.253  20.946   0.188  0.00  0.00    -0.479 OA
ATOM     29  H   UNK A   1     -32.898  21.434   0.905  0.00  0.00    +0.295 HD
ENDBRANCH  27  28
ENDBRANCH  22  27
ENDBRANCH   1  22
TORSDOF 10
ENDMDL
MODEL 5
REMARK VINA RESULT:      -5.5      4.312      6.637
REMARK  Name = 195480
REMARK  10 active torsions:
REMARK  status: ('A' for Active; 'I' for Inactive)
REMARK    1  A    between atoms: N_1  and  C_22
REMARK    2  A    between atoms: C_2  and  S_10
REMARK    3  A    between atoms: S_10  and  C_11
REMARK    4  A    between atoms: C_11  and  C_12
REMARK    5  A    between atoms: C_12  and  N_14
REMARK    6  A    between atoms: C_12  and  C_19
REMARK    7  A    between atoms: C_19  and  O_20
REMARK    8  A    between atoms: C_22  and  C_23
REMARK    9  A    between atoms: C_22  and  C_27
REMARK   10  A    between atoms: C_27  and  O_28
REMARK                            x       y       z     vdW  Elec       q    Type
REMARK                         _______ _______ _______ _____ _____    ______ ____
ROOT
ATOM      1  N   UNK A   1     -32.691  21.983  -0.677  0.00  0.00    -0.273 N 
ATOM      2  C   UNK A   1     -33.631  21.271   0.018  0.00  0.00    +0.078 C 
ATOM      3  C   UNK A   1     -33.006  20.126   0.440  0.00  0.00    +0.021 C 
ATOM      4  C   UNK A   1     -31.484  21.337  -0.715  0.00  0.00    +0.066 C 
ATOM      5  C   UNK A   1     -31.658  20.167  -0.019  0.00  0.00    +0.017 C 
ATOM      6  C   UNK A   1     -33.573  19.101   1.185  0.00  0.00    +0.002 C 
ATOM      7  C   UNK A   1     -30.698  19.188   0.204  0.00  0.00    +0.001 C 
ATOM      8  C   UNK A   1     -32.616  18.088   1.427  0.00  0.00    +0.000 C 
ATOM      9  C   UNK A   1     -31.251  18.130   0.962  0.00  0.00    +0.000 C 
ENDROOT
BRANCH   2  10
ATOM     10  S   UNK A   1     -35.252  21.860   0.225  0.00  0.00    -0.097 S 
BRANCH  10  11
ATOM     11  C   UNK A   1     -35.157  22.560   1.895  0.00  0.00    +0.094 C 
BRANCH  11  12
ATOM     12  C   UNK A   1     -36.297  22.118   2.816  0.00  0.00    +0.183 C 
BRANCH  12  14
ATOM     13  O   UNK A   0     -36.208  23.811   5.172  0.00  0.00    -0.275 OA
ATOM     14  N   UNK A   1     -35.821  21.765   4.131  0.00  0.00    -0.296 N 
ATOM     15  C   UNK A   0     -35.818  22.647   5.200  0.00  0.00    +0.223 C 
ATOM     16  C   UNK A   0     -35.294  22.015   6.462  0.00  0.00    +0.095 C 
ATOM     17  H   UNK A   1     -35.481  20.852   4.276  0.00  0.00    +0.150 HD
ENDBRANCH  12  14
BRANCH  12  19
ATOM     18  O   UNK A   1     -38.095  21.216   1.463  0.00  0.00    -0.248 OA
ATOM     19  C   UNK A   1     -37.140  21.012   2.203  0.00  0.00    +0.333 C 
BRANCH  19  20
ATOM     20  O   UNK A   1     -36.741  19.770   2.566  0.00  0.00    -0.479 OA
ATOM     21  H   UNK A   1     -36.202  19.263   1.991  0.00  0.00    +0.295 HD
ENDBRANCH  19  20
ENDBRANCH  12  19
ENDBRANCH  11  12
ENDBRANCH  10  11
ENDBRANCH   2  10
BRANCH   1  22
ATOM     22  C   UNK A   1     -32.901  23.288  -1.321  0.00  0.00    +0.176 C 
BRANCH  22  23
ATOM     23  C   UNK A   1     -32.266  23.380  -2.738  0.00  0.00    +0.029 C 
ATOM     24  C   UNK A   1     -32.999  22.466  -3.731  0.00  0.00    +0.002 C 
ATOM     25  C   UNK A   1     -32.292  24.813  -3.288  0.00  0.00    +0.002 C 
ENDBRANCH  22  23
BRANCH  22  27
ATOM     26  O   UNK A   1     -31.245  24.597  -0.092  0.00  0.00    -0.248 OA
ATOM     27  C   UNK A   1     -32.414  24.393  -0.389  0.00  0.00    +0.332 C 
BRANCH  27  28
ATOM     28  O   UNK A   1     -33.434  25.168   0.065  0.00  0.00    -0.479 OA
ATOM     29  H   UNK A   1     -33.340  25.646   0.865  0.00  0.00    +0.295 HD
ENDBRANCH  27  28
ENDBRANCH  22  27
ENDBRANCH   1  22
TORSDOF 10
ENDMDL
MODEL 6
REMARK VINA RESULT:      -5.4      3.426      5.636
REMARK  Name = 195480
REMARK  10 active torsions:
REMARK  status: ('A' for Active; 'I' for Inactive)
REMARK    1  A    between atoms: N_1  and  C_22
REMARK    2  A    between atoms: C_2  and  S_10
REMARK    3  A    between atoms: S_10  and  C_11
REMARK    4  A    between atoms: C_11  and  C_12
REMARK    5  A    between atoms: C_12  and  N_14
REMARK    6  A    between atoms: C_12  and  C_19
REMARK    7  A    between atoms: C_19  and  O_20
REMARK    8  A    between atoms: C_22  and  C_23
REMARK    9  A    between atoms: C_22  and  C_27
REMARK   10  A    between atoms: C_27  and  O_28
REMARK                            x       y       z     vdW  Elec       q    Type
REMARK                         _______ _______ _______ _____ _____    ______ ____
ROOT
ATOM      1  N   UNK A   1     -35.868  23.642   2.817  0.00  0.00    -0.273 N 
ATOM      2  C   UNK A   1     -36.789  24.569   2.412  0.00  0.00    +0.078 C 
ATOM      3  C   UNK A   1     -36.201  25.269   1.390  0.00  0.00    +0.021 C 
ATOM      4  C   UNK A   1     -34.709  23.720   2.091  0.00  0.00    +0.066 C 
ATOM      5  C   UNK A   1     -34.895  24.737   1.189  0.00  0.00    +0.017 C 
ATOM      6  C   UNK A   1     -36.765  26.314   0.671  0.00  0.00    +0.002 C 
ATOM      7  C   UNK A   1     -33.980  25.178   0.242  0.00  0.00    +0.001 C 
ATOM      8  C   UNK A   1     -35.853  26.784  -0.303  0.00  0.00    +0.000 C 
ATOM      9  C   UNK A   1     -34.531  26.244  -0.507  0.00  0.00    +0.000 C 
ENDROOT
BRANCH   2  10
ATOM     10  S   UNK A   1     -38.352  24.691   3.161  0.00  0.00    -0.097 S 
BRANCH  10  11
ATOM     11  C   UNK A   1     -39.435  24.222   1.783  0.00  0.00    +0.094 C 
BRANCH  11  12
ATOM     12  C   UNK A   1     -39.012  22.929   1.079  0.00  0.00    +0.183 C 
BRANCH  12  14
ATOM     13  O   UNK A   0     -36.641  21.786  -0.144  0.00  0.00    -0.275 OA
ATOM     14  N   UNK A   1     -38.502  23.180  -0.246  0.00  0.00    -0.296 N 
ATOM     15  C   UNK A   0     -37.356  22.583  -0.745  0.00  0.00    +0.223 C 
ATOM     16  C   UNK A   0     -37.064  23.000  -2.163  0.00  0.00    +0.095 C 
ATOM     17  H   UNK A   1     -38.994  23.807  -0.826  0.00  0.00    +0.150 HD
ENDBRANCH  12  14
BRANCH  12  19
ATOM     18  O   UNK A   1     -40.976  21.809   0.203  0.00  0.00    -0.248 OA
ATOM     19  C   UNK A   1     -40.117  21.886   1.074  0.00  0.00    +0.333 C 
BRANCH  19  20
ATOM     20  O   UNK A   1     -40.071  21.051   2.139  0.00  0.00    -0.479 OA
ATOM     21  H   UNK A   1     -39.884  21.390   2.992  0.00  0.00    +0.295 HD
ENDBRANCH  19  20
ENDBRANCH  12  19
ENDBRANCH  11  12
ENDBRANCH  10  11
ENDBRANCH   2  10
BRANCH   1  22
ATOM     22  C   UNK A   1     -36.053  22.658   3.893  0.00  0.00    +0.176 C 
BRANCH  22  23
ATOM     23  C   UNK A   1     -35.097  22.883   5.099  0.00  0.00    +0.029 C 
ATOM     24  C   UNK A   1     -35.072  24.361   5.515  0.00  0.00    +0.002 C 
ATOM     25  C   UNK A   1     -35.500  22.043   6.319  0.00  0.00    +0.002 C 
ENDBRANCH  22  23
BRANCH  22  27
ATOM     26  O   UNK A   1     -34.978  20.509   3.452  0.00  0.00    -0.248 OA
ATOM     27  C   UNK A   1     -35.941  21.251   3.313  0.00  0.00    +0.332 C 
BRANCH  27  28
ATOM     28  O   UNK A   1     -37.062  20.884   2.638  0.00  0.00    -0.479 OA
ATOM     29  H   UNK A   1     -37.849  21.383   2.731  0.00  0.00    +0.295 HD
ENDBRANCH  27  28
ENDBRANCH  22  27
ENDBRANCH   1  22
TORSDOF 10
ENDMDL
MODEL 7
REMARK VINA RESULT:      -5.4     10.946     13.881
REMARK  Name = 195480
REMARK  10 active torsions:
REMARK  status: ('A' for Active; 'I' for Inactive)
REMARK    1  A    between atoms: N_1  and  C_22
REMARK    2  A    between atoms: C_2  and  S_10
REMARK    3  A    between atoms: S_10  and  C_11
REMARK    4  A    between atoms: C_11  and  C_12
REMARK    5  A    between atoms: C_12  and  N_14
REMARK    6  A    between atoms: C_12  and  C_19
REMARK    7  A    between atoms: C_19  and  O_20
REMARK    8  A    between atoms: C_22  and  C_23
REMARK    9  A    between atoms: C_22  and  C_27
REMARK   10  A    between atoms: C_27  and  O_28
REMARK                            x       y       z     vdW  Elec       q    Type
REMARK                         _______ _______ _______ _____ _____    ______ ____
ROOT
ATOM      1  N   UNK A   1     -46.038  31.144   6.231  0.00  0.00    -0.273 N 
ATOM      2  C   UNK A   1     -46.225  32.182   5.359  0.00  0.00    +0.078 C 
ATOM      3  C   UNK A   1     -46.959  33.121   6.036  0.00  0.00    +0.021 C 
ATOM      4  C   UNK A   1     -46.625  31.384   7.445  0.00  0.00    +0.066 C 
ATOM      5  C   UNK A   1     -47.210  32.621   7.346  0.00  0.00    +0.017 C 
ATOM      6  C   UNK A   1     -47.387  34.347   5.545  0.00  0.00    +0.002 C 
ATOM      7  C   UNK A   1     -47.924  33.279   8.339  0.00  0.00    +0.001 C 
ATOM      8  C   UNK A   1     -48.118  35.041   6.538  0.00  0.00    +0.000 C 
ATOM      9  C   UNK A   1     -48.372  34.534   7.865  0.00  0.00    +0.000 C 
ENDROOT
BRANCH   2  10
ATOM     10  S   UNK A   1     -45.583  32.144   3.745  0.00  0.00    -0.097 S 
BRANCH  10  11
ATOM     11  C   UNK A   1     -44.423  33.537   3.800  0.00  0.00    +0.094 C 
BRANCH  11  12
ATOM     12  C   UNK A   1     -43.564  33.674   2.539  0.00  0.00    +0.183 C 
BRANCH  12  14
ATOM     13  O   UNK A   0     -40.872  33.707   1.455  0.00  0.00    -0.275 OA
ATOM     14  N   UNK A   1     -42.579  34.720   2.670  0.00  0.00    -0.296 N 
ATOM     15  C   UNK A   0     -41.313  34.645   2.114  0.00  0.00    +0.223 C 
ATOM     16  C   UNK A   0     -40.497  35.882   2.380  0.00  0.00    +0.095 C 
ATOM     17  H   UNK A   1     -42.820  35.527   3.181  0.00  0.00    +0.150 HD
ENDBRANCH  12  14
BRANCH  12  19
ATOM     18  O   UNK A   1     -44.229  33.189   0.259  0.00  0.00    -0.248 OA
ATOM     19  C   UNK A   1     -44.403  33.839   1.283  0.00  0.00    +0.333 C 
BRANCH  19  20
ATOM     20  O   UNK A   1     -45.359  34.791   1.398  0.00  0.00    -0.479 OA
ATOM     21  H   UNK A   1     -46.173  34.590   1.816  0.00  0.00    +0.295 HD
ENDBRANCH  19  20
ENDBRANCH  12  19
ENDBRANCH  11  12
ENDBRANCH  10  11
ENDBRANCH   2  10
BRANCH   1  22
ATOM     22  C   UNK A   1     -45.304  29.902   5.949  0.00  0.00    +0.176 C 
BRANCH  22  23
ATOM     23  C   UNK A   1     -46.081  28.622   6.366  0.00  0.00    +0.029 C 
ATOM     24  C   UNK A   1     -47.461  28.571   5.694  0.00  0.00    +0.002 C 
ATOM     25  C   UNK A   1     -45.317  27.340   6.005  0.00  0.00    +0.002 C 
ENDBRANCH  22  23
BRANCH  22  27
ATOM     26  O   UNK A   1     -43.701  29.990   7.790  0.00  0.00    -0.248 OA
ATOM     27  C   UNK A   1     -43.920  29.981   6.586  0.00  0.00    +0.332 C 
BRANCH  27  28
ATOM     28  O   UNK A   1     -42.928  30.006   5.658  0.00  0.00    -0.479 OA
ATOM     29  H   UNK A   1     -42.210  29.408   5.723  0.00  0.00    +0.295 HD
ENDBRANCH  27  28
ENDBRANCH  22  27
ENDBRANCH   1  22
TORSDOF 10
ENDMDL
MODEL 8
REMARK VINA RESULT:      -5.3      3.820      5.962
REMARK  Name = 195480
REMARK  10 active torsions:
REMARK  status: ('A' for Active; 'I' for Inactive)
REMARK    1  A    between atoms: N_1  and  C_22
REMARK    2  A    between atoms: C_2  and  S_10
REMARK    3  A    between atoms: S_10  and  C_11
REMARK    4  A    between atoms: C_11  and  C_12
REMARK    5  A    between atoms: C_12  and  N_14
REMARK    6  A    between atoms: C_12  and  C_19
REMARK    7  A    between atoms: C_19  and  O_20
REMARK    8  A    between atoms: C_22  and  C_23
REMARK    9  A    between atoms: C_22  and  C_27
REMARK   10  A    between atoms: C_27  and  O_28
REMARK                            x       y       z     vdW  Elec       q    Type
REMARK                         _______ _______ _______ _____ _____    ______ ____
ROOT
ATOM      1  N   UNK A   1     -33.796  21.991   0.112  0.00  0.00    -0.273 N 
ATOM      2  C   UNK A   1     -34.293  20.921   0.805  0.00  0.00    +0.078 C 
ATOM      3  C   UNK A   1     -33.302  19.974   0.805  0.00  0.00    +0.021 C 
ATOM      4  C   UNK A   1     -32.521  21.765  -0.334  0.00  0.00    +0.066 C 
ATOM      5  C   UNK A   1     -32.189  20.504   0.090  0.00  0.00    +0.017 C 
ATOM      6  C   UNK A   1     -33.358  18.717   1.393  0.00  0.00    +0.002 C 
ATOM      7  C   UNK A   1     -30.985  19.847  -0.133  0.00  0.00    +0.001 C 
ATOM      8  C   UNK A   1     -32.143  18.025   1.181  0.00  0.00    +0.000 C 
ATOM      9  C   UNK A   1     -31.016  18.562   0.457  0.00  0.00    +0.000 C 
ENDROOT
BRANCH   2  10
ATOM     10  S   UNK A   1     -35.891  20.937   1.486  0.00  0.00    -0.097 S 
BRANCH  10  11
ATOM     11  C   UNK A   1     -35.520  21.228   3.237  0.00  0.00    +0.094 C 
BRANCH  11  12
ATOM     12  C   UNK A   1     -36.234  22.448   3.825  0.00  0.00    +0.183 C 
BRANCH  12  14
ATOM     13  O   UNK A   0     -38.407  24.371   3.731  0.00  0.00    -0.275 OA
ATOM     14  N   UNK A   1     -36.457  23.471   2.833  0.00  0.00    -0.296 N 
ATOM     15  C   UNK A   0     -37.529  24.348   2.873  0.00  0.00    +0.223 C 
ATOM     16  C   UNK A   0     -37.508  25.331   1.732  0.00  0.00    +0.095 C 
ATOM     17  H   UNK A   1     -35.815  23.550   2.090  0.00  0.00    +0.150 HD
ENDBRANCH  12  14
BRANCH  12  19
ATOM     18  O   UNK A   1     -35.847  22.711   6.204  0.00  0.00    -0.248 OA
ATOM     19  C   UNK A   1     -35.529  22.995   5.055  0.00  0.00    +0.333 C 
BRANCH  19  20
ATOM     20  O   UNK A   1     -34.516  23.844   4.759  0.00  0.00    -0.479 OA
ATOM     21  H   UNK A   1     -34.186  23.893   3.884  0.00  0.00    +0.295 HD
ENDBRANCH  19  20
ENDBRANCH  12  19
ENDBRANCH  11  12
ENDBRANCH  10  11
ENDBRANCH   2  10
BRANCH   1  22
ATOM     22  C   UNK A   1     -34.505  23.252  -0.150  0.00  0.00    +0.176 C 
BRANCH  22  23
ATOM     23  C   UNK A   1     -34.771  23.503  -1.662  0.00  0.00    +0.029 C 
ATOM     24  C   UNK A   1     -35.378  22.260  -2.329  0.00  0.00    +0.002 C 
ATOM     25  C   UNK A   1     -35.721  24.688  -1.890  0.00  0.00    +0.002 C 
ENDBRANCH  22  23
BRANCH  22  27
ATOM     26  O   UNK A   1     -32.999  25.175  -0.074  0.00  0.00    -0.248 OA
ATOM     27  C   UNK A   1     -33.747  24.401   0.509  0.00  0.00    +0.332 C 
BRANCH  27  28
ATOM     28  O   UNK A   1     -34.018  24.500   1.837  0.00  0.00    -0.479 OA
ATOM     29  H   UNK A   1     -33.889  25.314   2.282  0.00  0.00    +0.295 HD
ENDBRANCH  27  28
ENDBRANCH  22  27
ENDBRANCH   1  22
TORSDOF 10
ENDMDL
MODEL 9
REMARK VINA RESULT:      -5.3      3.944      8.033
REMARK  Name = 195480
REMARK  10 active torsions:
REMARK  status: ('A' for Active; 'I' for Inactive)
REMARK    1  A    between atoms: N_1  and  C_22
REMARK    2  A    between atoms: C_2  and  S_10
REMARK    3  A    between atoms: S_10  and  C_11
REMARK    4  A    between atoms: C_11  and  C_12
REMARK    5  A    between atoms: C_12  and  N_14
REMARK    6  A    between atoms: C_12  and  C_19
REMARK    7  A    between atoms: C_19  and  O_20
REMARK    8  A    between atoms: C_22  and  C_23
REMARK    9  A    between atoms: C_22  and  C_27
REMARK   10  A    between atoms: C_27  and  O_28
REMARK                            x       y       z     vdW  Elec       q    Type
REMARK                         _______ _______ _______ _____ _____    ______ ____
ROOT
ATOM      1  N   UNK A   1     -36.723  20.502   0.265  0.00  0.00    -0.273 N 
ATOM      2  C   UNK A   1     -37.661  21.478   0.064  0.00  0.00    +0.078 C 
ATOM      3  C   UNK A   1     -38.690  20.883  -0.618  0.00  0.00    +0.021 C 
ATOM      4  C   UNK A   1     -37.113  19.300  -0.263  0.00  0.00    +0.066 C 
ATOM      5  C   UNK A   1     -38.347  19.515  -0.823  0.00  0.00    +0.017 C 
ATOM      6  C   UNK A   1     -39.865  21.491  -1.040  0.00  0.00    +0.002 C 
ATOM      7  C   UNK A   1     -39.132  18.575  -1.478  0.00  0.00    +0.001 C 
ATOM      8  C   UNK A   1     -40.685  20.554  -1.711  0.00  0.00    +0.000 C 
ATOM      9  C   UNK A   1     -40.337  19.170  -1.919  0.00  0.00    +0.000 C 
ENDROOT
BRANCH   2  10
ATOM     10  S   UNK A   1     -37.425  23.103   0.634  0.00  0.00    -0.097 S 
BRANCH  10  11
ATOM     11  C   UNK A   1     -37.884  22.928   2.380  0.00  0.00    +0.094 C 
BRANCH  11  12
ATOM     12  C   UNK A   1     -36.950  23.669   3.341  0.00  0.00    +0.183 C 
BRANCH  12  14
ATOM     13  O   UNK A   0     -34.615  23.895   5.051  0.00  0.00    -0.275 OA
ATOM     14  N   UNK A   1     -36.637  22.878   4.505  0.00  0.00    -0.296 N 
ATOM     15  C   UNK A   0     -35.491  23.061   5.263  0.00  0.00    +0.223 C 
ATOM     16  C   UNK A   0     -35.426  22.120   6.437  0.00  0.00    +0.095 C 
ATOM     17  H   UNK A   1     -37.269  22.173   4.775  0.00  0.00    +0.150 HD
ENDBRANCH  12  14
BRANCH  12  19
ATOM     18  O   UNK A   1     -36.809  26.070   3.645  0.00  0.00    -0.248 OA
ATOM     19  C   UNK A   1     -37.476  25.045   3.714  0.00  0.00    +0.333 C 
BRANCH  19  20
ATOM     20  O   UNK A   1     -38.758  25.028   4.148  0.00  0.00    -0.479 OA
ATOM     21  H   UNK A   1     -39.148  25.809   4.491  0.00  0.00    +0.295 HD
ENDBRANCH  19  20
ENDBRANCH  12  19
ENDBRANCH  11  12
ENDBRANCH  10  11
ENDBRANCH   2  10
BRANCH   1  22
ATOM     22  C   UNK A   1     -35.438  20.672   0.959  0.00  0.00    +0.176 C 
BRANCH  22  23
ATOM     23  C   UNK A   1     -34.263  19.929   0.262  0.00  0.00    +0.029 C 
ATOM     24  C   UNK A   1     -33.090  20.883  -0.009  0.00  0.00    +0.002 C 
ATOM     25  C   UNK A   1     -33.747  18.752   1.101  0.00  0.00    +0.002 C 
ENDBRANCH  22  23
BRANCH  22  27
ATOM     26  O   UNK A   1     -34.797  20.523   3.311  0.00  0.00    -0.248 OA
ATOM     27  C   UNK A   1     -35.599  20.271   2.422  0.00  0.00    +0.332 C 
BRANCH  27  28
ATOM     28  O   UNK A   1     -36.769  19.618   2.649  0.00  0.00    -0.479 OA
ATOM     29  H   UNK A   1     -37.365  19.465   1.943  0.00  0.00    +0.295 HD
ENDBRANCH  27  28
ENDBRANCH  22  27
ENDBRANCH   1  22
TORSDOF 10
ENDMDL
