MODEL 1
REMARK VINA RESULT:      -5.2      0.000      0.000
REMARK  Name = 57637
REMARK  8 active torsions:
REMARK  status: ('A' for Active; 'I' for Inactive)
REMARK    1  A    between atoms: C_1  and  P_2
REMARK    2  A    between atoms: C_1  and  P_8
REMARK    3  A    between atoms: C_1  and  C_14
REMARK    4  A    between atoms: P_2  and  O_4
REMARK    5  A    between atoms: P_2  and  O_6
REMARK    6  A    between atoms: P_8  and  O_10
REMARK    7  A    between atoms: P_8  and  O_12
REMARK    8  A    between atoms: C_14  and  C_16
REMARK                            x       y       z     vdW  Elec       q    Type
REMARK                         _______ _______ _______ _____ _____    ______ ____
ROOT
ATOM      1  C   UNL     1     -37.274  22.311   2.642  0.00  0.00    +0.213 C 
ENDROOT
BRANCH   1   2
ATOM      2  P   UNL     1     -35.968  21.014   2.611  0.00  0.00    +0.348 P 
ATOM      3  O   UNL     1     -34.869  21.239   1.615  0.00  0.00    -0.258 OA
BRANCH   2   4
ATOM      4  O   UNL     1     -36.804  19.645   2.424  0.00  0.00    -0.323 OA
ATOM      5  H   UNL     1     -36.247  18.889   2.671  0.00  0.00    +0.220 HD
ENDBRANCH   2   4
BRANCH   2   6
ATOM      6  O   UNL     1     -35.476  20.944   4.149  0.00  0.00    -0.323 OA
ATOM      7  H   UNL     1     -35.023  20.101   4.304  0.00  0.00    +0.220 HD
ENDBRANCH   2   6
ENDBRANCH   1   2
BRANCH   1   8
ATOM      8  P   UNL     1     -38.813  22.121   1.634  0.00  0.00    +0.348 P 
ATOM      9  O   UNL     1     -39.610  23.381   1.470  0.00  0.00    -0.258 OA
BRANCH   8  10
ATOM     10  O   UNL     1     -39.594  20.909   2.363  0.00  0.00    -0.323 OA
ATOM     11  H   UNL     1     -40.503  20.863   2.029  0.00  0.00    +0.220 HD
ENDBRANCH   8  10
BRANCH   8  12
ATOM     12  O   UNL     1     -38.275  21.457   0.262  0.00  0.00    -0.323 OA
ATOM     13  H   UNL     1     -38.212  20.495   0.373  0.00  0.00    +0.220 HD
ENDBRANCH   8  12
ENDBRANCH   1   8
BRANCH   1  14
ATOM     14  C   UNL     1     -36.679  23.709   2.348  0.00  0.00    +0.070 C 
BRANCH  14  16
ATOM     15  N   UNL     1     -34.660  24.135   3.615  0.00  0.00    -0.248 NA
ATOM     16  C   UNL     1     -35.983  24.358   3.517  0.00  0.00    +0.060 C 
ATOM     17  C   UNL     1     -36.726  25.121   4.393  0.00  0.00    +0.015 C 
ATOM     18  C   UNL     1     -36.055  25.705   5.461  0.00  0.00    +0.003 C 
ATOM     19  C   UNL     1     -34.041  24.718   4.667  0.00  0.00    +0.098 C 
ATOM     20  C   UNL     1     -34.686  25.505   5.607  0.00  0.00    +0.021 C 
ENDBRANCH  14  16
ENDBRANCH   1  14
TORSDOF 8
ENDMDL
MODEL 2
REMARK VINA RESULT:      -5.1      1.989      2.982
REMARK  Name = 57637
REMARK  8 active torsions:
REMARK  status: ('A' for Active; 'I' for Inactive)
REMARK    1  A    between atoms: C_1  and  P_2
REMARK    2  A    between atoms: C_1  and  P_8
REMARK    3  A    between atoms: C_1  and  C_14
REMARK    4  A    between atoms: P_2  and  O_4
REMARK    5  A    between atoms: P_2  and  O_6
REMARK    6  A    between atoms: P_8  and  O_10
REMARK    7  A    between atoms: P_8  and  O_12
REMARK    8  A    between atoms: C_14  and  C_16
REMARK                            x       y       z     vdW  Elec       q    Type
REMARK                         _______ _______ _______ _____ _____    ______ ____
ROOT
ATOM      1  C   UNL     1     -38.566  23.035   2.616  0.00  0.00    +0.213 C 
ENDROOT
BRANCH   1   2
ATOM      2  P   UNL     1     -38.947  21.585   1.548  0.00  0.00    +0.348 P 
ATOM      3  O   UNL     1     -38.989  21.869   0.077  0.00  0.00    -0.258 OA
BRANCH   2   4
ATOM      4  O   UNL     1     -40.314  21.002   2.182  0.00  0.00    -0.323 OA
ATOM      5  H   UNL     1     -40.784  21.713   2.646  0.00  0.00    +0.220 HD
ENDBRANCH   2   4
BRANCH   2   6
ATOM      6  O   UNL     1     -37.837  20.496   1.990  0.00  0.00    -0.323 OA
ATOM      7  H   UNL     1     -36.962  20.914   2.001  0.00  0.00    +0.220 HD
ENDBRANCH   2   6
ENDBRANCH   1   2
BRANCH   1   8
ATOM      8  P   UNL     1     -39.539  24.601   2.458  0.00  0.00    +0.348 P 
ATOM      9  O   UNL     1     -38.809  25.721   1.778  0.00  0.00    -0.258 OA
BRANCH   8  10
ATOM     10  O   UNL     1     -40.005  24.910   3.973  0.00  0.00    -0.323 OA
ATOM     11  H   UNL     1     -40.052  25.869   4.107  0.00  0.00    +0.220 HD
ENDBRANCH   8  10
BRANCH   8  12
ATOM     12  O   UNL     1     -40.899  24.117   1.732  0.00  0.00    -0.323 OA
ATOM     13  H   UNL     1     -41.552  24.834   1.760  0.00  0.00    +0.220 HD
ENDBRANCH   8  12
ENDBRANCH   1   8
BRANCH   1  14
ATOM     14  C   UNL     1     -37.063  23.397   2.550  0.00  0.00    +0.070 C 
BRANCH  14  16
ATOM     15  N   UNL     1     -35.855  21.793   3.904  0.00  0.00    -0.248 NA
ATOM     16  C   UNL     1     -36.279  23.065   3.794  0.00  0.00    +0.060 C 
ATOM     17  C   UNL     1     -36.050  24.060   4.721  0.00  0.00    +0.015 C 
ATOM     18  C   UNL     1     -35.325  23.721   5.857  0.00  0.00    +0.003 C 
ATOM     19  C   UNL     1     -35.153  21.501   5.022  0.00  0.00    +0.098 C 
ATOM     20  C   UNL     1     -34.864  22.419   6.018  0.00  0.00    +0.021 C 
ENDBRANCH  14  16
ENDBRANCH   1  14
TORSDOF 8
ENDMDL
MODEL 3
REMARK VINA RESULT:      -5.1      3.688      4.914
REMARK  Name = 57637
REMARK  8 active torsions:
REMARK  status: ('A' for Active; 'I' for Inactive)
REMARK    1  A    between atoms: C_1  and  P_2
REMARK    2  A    between atoms: C_1  and  P_8
REMARK    3  A    between atoms: C_1  and  C_14
REMARK    4  A    between atoms: P_2  and  O_4
REMARK    5  A    between atoms: P_2  and  O_6
REMARK    6  A    between atoms: P_8  and  O_10
REMARK    7  A    between atoms: P_8  and  O_12
REMARK    8  A    between atoms: C_14  and  C_16
REMARK                            x       y       z     vdW  Elec       q    Type
REMARK                         _______ _______ _______ _____ _____    ______ ____
ROOT
ATOM      1  C   UNL     1     -36.101  24.950   3.453  0.00  0.00    +0.213 C 
ENDROOT
BRANCH   1   2
ATOM      2  P   UNL     1     -35.411  26.136   4.681  0.00  0.00    +0.348 P 
ATOM      3  O   UNL     1     -34.196  25.656   5.417  0.00  0.00    -0.258 OA
BRANCH   2   4
ATOM      4  O   UNL     1     -36.683  26.501   5.606  0.00  0.00    -0.323 OA
ATOM      5  H   UNL     1     -37.315  25.764   5.592  0.00  0.00    +0.220 HD
ENDBRANCH   2   4
BRANCH   2   6
ATOM      6  O   UNL     1     -35.182  27.480   3.813  0.00  0.00    -0.323 OA
ATOM      7  H   UNL     1     -34.327  27.428   3.358  0.00  0.00    +0.220 HD
ENDBRANCH   2   6
ENDBRANCH   1   2
BRANCH   1   8
ATOM      8  P   UNL     1     -37.818  25.166   2.799  0.00  0.00    +0.348 P 
ATOM      9  O   UNL     1     -38.106  24.399   1.543  0.00  0.00    -0.258 OA
BRANCH   8  10
ATOM     10  O   UNL     1     -37.974  26.769   2.672  0.00  0.00    -0.323 OA
ATOM     11  H   UNL     1     -37.098  27.172   2.575  0.00  0.00    +0.220 HD
ENDBRANCH   8  10
BRANCH   8  12
ATOM     12  O   UNL     1     -38.745  24.792   4.069  0.00  0.00    -0.323 OA
ATOM     13  H   UNL     1     -39.016  23.862   4.007  0.00  0.00    +0.220 HD
ENDBRANCH   8  12
ENDBRANCH   1   8
BRANCH   1  14
ATOM     14  C   UNL     1     -35.956  23.490   3.945  0.00  0.00    +0.070 C 
BRANCH  14  16
ATOM     15  N   UNL     1     -34.842  23.079   1.835  0.00  0.00    -0.248 NA
ATOM     16  C   UNL     1     -35.423  22.527   2.915  0.00  0.00    +0.060 C 
ATOM     17  C   UNL     1     -35.560  21.173   3.138  0.00  0.00    +0.015 C 
ATOM     18  C   UNL     1     -35.058  20.312   2.169  0.00  0.00    +0.003 C 
ATOM     19  C   UNL     1     -34.366  22.210   0.914  0.00  0.00    +0.098 C 
ATOM     20  C   UNL     1     -34.448  20.833   1.033  0.00  0.00    +0.021 C 
ENDBRANCH  14  16
ENDBRANCH   1  14
TORSDOF 8
ENDMDL
MODEL 4
REMARK VINA RESULT:      -5.1      4.094      4.847
REMARK  Name = 57637
REMARK  8 active torsions:
REMARK  status: ('A' for Active; 'I' for Inactive)
REMARK    1  A    between atoms: C_1  and  P_2
REMARK    2  A    between atoms: C_1  and  P_8
REMARK    3  A    between atoms: C_1  and  C_14
REMARK    4  A    between atoms: P_2  and  O_4
REMARK    5  A    between atoms: P_2  and  O_6
REMARK    6  A    between atoms: P_8  and  O_10
REMARK    7  A    between atoms: P_8  and  O_12
REMARK    8  A    between atoms: C_14  and  C_16
REMARK                            x       y       z     vdW  Elec       q    Type
REMARK                         _______ _______ _______ _____ _____    ______ ____
ROOT
ATOM      1  C   UNL     1     -35.891  25.994   3.174  0.00  0.00    +0.213 C 
ENDROOT
BRANCH   1   2
ATOM      2  P   UNL     1     -34.601  27.302   3.292  0.00  0.00    +0.348 P 
ATOM      3  O   UNL     1     -33.526  27.234   2.249  0.00  0.00    -0.258 OA
BRANCH   2   4
ATOM      4  O   UNL     1     -34.091  27.189   4.821  0.00  0.00    -0.323 OA
ATOM      5  H   UNL     1     -34.819  27.414   5.422  0.00  0.00    +0.220 HD
ENDBRANCH   2   4
BRANCH   2   6
ATOM      6  O   UNL     1     -35.458  28.673   3.284  0.00  0.00    -0.323 OA
ATOM      7  H   UNL     1     -35.351  29.124   4.136  0.00  0.00    +0.220 HD
ENDBRANCH   2   6
ENDBRANCH   1   2
BRANCH   1   8
ATOM      8  P   UNL     1     -37.484  26.321   2.293  0.00  0.00    +0.348 P 
ATOM      9  O   UNL     1     -37.471  27.535   1.412  0.00  0.00    -0.258 OA
BRANCH   8  10
ATOM     10  O   UNL     1     -38.575  26.353   3.484  0.00  0.00    -0.323 OA
ATOM     11  H   UNL     1     -39.427  26.653   3.134  0.00  0.00    +0.220 HD
ENDBRANCH   8  10
BRANCH   8  12
ATOM     12  O   UNL     1     -37.782  24.921   1.541  0.00  0.00    -0.323 OA
ATOM     13  H   UNL     1     -38.322  25.087   0.752  0.00  0.00    +0.220 HD
ENDBRANCH   8  12
ENDBRANCH   1   8
BRANCH   1  14
ATOM     14  C   UNL     1     -36.225  25.413   4.569  0.00  0.00    +0.070 C 
BRANCH  14  16
ATOM     15  N   UNL     1     -35.986  23.176   3.674  0.00  0.00    -0.248 NA
ATOM     16  C   UNL     1     -35.852  23.965   4.755  0.00  0.00    +0.060 C 
ATOM     17  C   UNL     1     -35.408  23.547   5.992  0.00  0.00    +0.015 C 
ATOM     18  C   UNL     1     -35.072  22.205   6.131  0.00  0.00    +0.003 C 
ATOM     19  C   UNL     1     -35.650  21.878   3.848  0.00  0.00    +0.098 C 
ATOM     20  C   UNL     1     -35.193  21.348   5.043  0.00  0.00    +0.021 C 
ENDBRANCH  14  16
ENDBRANCH   1  14
TORSDOF 8
ENDMDL
MODEL 5
REMARK VINA RESULT:      -5.1      3.569      4.583
REMARK  Name = 57637
REMARK  8 active torsions:
REMARK  status: ('A' for Active; 'I' for Inactive)
REMARK    1  A    between atoms: C_1  and  P_2
REMARK    2  A    between atoms: C_1  and  P_8
REMARK    3  A    between atoms: C_1  and  C_14
REMARK    4  A    between atoms: P_2  and  O_4
REMARK    5  A    between atoms: P_2  and  O_6
REMARK    6  A    between atoms: P_8  and  O_10
REMARK    7  A    between atoms: P_8  and  O_12
REMARK    8  A    between atoms: C_14  and  C_16
REMARK                            x       y       z     vdW  Elec       q    Type
REMARK                         _______ _______ _______ _____ _____    ______ ____
ROOT
ATOM      1  C   UNL     1     -36.786  25.410   2.948  0.00  0.00    +0.213 C 
ENDROOT
BRANCH   1   2
ATOM      2  P   UNL     1     -35.860  26.886   2.355  0.00  0.00    +0.348 P 
ATOM      3  O   UNL     1     -34.807  26.607   1.324  0.00  0.00    -0.258 OA
BRANCH   2   4
ATOM      4  O   UNL     1     -35.331  27.570   3.719  0.00  0.00    -0.323 OA
ATOM      5  H   UNL     1     -34.586  28.158   3.518  0.00  0.00    +0.220 HD
ENDBRANCH   2   4
BRANCH   2   6
ATOM      6  O   UNL     1     -37.030  27.887   1.864  0.00  0.00    -0.323 OA
ATOM      7  H   UNL     1     -37.759  27.371   1.487  0.00  0.00    +0.220 HD
ENDBRANCH   2   6
ENDBRANCH   1   2
BRANCH   1   8
ATOM      8  P   UNL     1     -38.615  25.284   2.700  0.00  0.00    +0.348 P 
ATOM      9  O   UNL     1     -39.205  23.958   3.081  0.00  0.00    -0.258 OA
BRANCH   8  10
ATOM     10  O   UNL     1     -38.815  25.701   1.152  0.00  0.00    -0.323 OA
ATOM     11  H   UNL     1     -38.018  26.151   0.833  0.00  0.00    +0.220 HD
ENDBRANCH   8  10
BRANCH   8  12
ATOM     12  O   UNL     1     -39.185  26.557   3.516  0.00  0.00    -0.323 OA
ATOM     13  H   UNL     1     -38.452  27.009   3.962  0.00  0.00    +0.220 HD
ENDBRANCH   8  12
ENDBRANCH   1   8
BRANCH   1  14
ATOM     14  C   UNL     1     -36.484  25.123   4.439  0.00  0.00    +0.070 C 
BRANCH  14  16
ATOM     15  N   UNL     1     -35.999  22.870   3.696  0.00  0.00    -0.248 NA
ATOM     16  C   UNL     1     -35.959  23.739   4.722  0.00  0.00    +0.060 C 
ATOM     17  C   UNL     1     -35.482  23.455   5.984  0.00  0.00    +0.015 C 
ATOM     18  C   UNL     1     -35.006  22.169   6.213  0.00  0.00    +0.003 C 
ATOM     19  C   UNL     1     -35.528  21.630   3.956  0.00  0.00    +0.098 C 
ATOM     20  C   UNL     1     -35.025  21.233   5.185  0.00  0.00    +0.021 C 
ENDBRANCH  14  16
ENDBRANCH   1  14
TORSDOF 8
ENDMDL
MODEL 6
REMARK VINA RESULT:      -5.1      2.364      3.783
REMARK  Name = 57637
REMARK  8 active torsions:
REMARK  status: ('A' for Active; 'I' for Inactive)
REMARK    1  A    between atoms: C_1  and  P_2
REMARK    2  A    between atoms: C_1  and  P_8
REMARK    3  A    between atoms: C_1  and  C_14
REMARK    4  A    between atoms: P_2  and  O_4
REMARK    5  A    between atoms: P_2  and  O_6
REMARK    6  A    between atoms: P_8  and  O_10
REMARK    7  A    between atoms: P_8  and  O_12
REMARK    8  A    between atoms: C_14  and  C_16
REMARK                            x       y       z     vdW  Elec       q    Type
REMARK                         _______ _______ _______ _____ _____    ______ ____
ROOT
ATOM      1  C   UNL     1     -38.507  23.681   2.773  0.00  0.00    +0.213 C 
ENDROOT
BRANCH   1   2
ATOM      2  P   UNL     1     -39.261  22.520   1.560  0.00  0.00    +0.348 P 
ATOM      3  O   UNL     1     -40.664  22.851   1.148  0.00  0.00    -0.258 OA
BRANCH   2   4
ATOM      4  O   UNL     1     -39.065  21.074   2.254  0.00  0.00    -0.323 OA
ATOM      5  H   UNL     1     -38.348  21.123   2.906  0.00  0.00    +0.220 HD
ENDBRANCH   2   4
BRANCH   2   6
ATOM      6  O   UNL     1     -38.192  22.501   0.348  0.00  0.00    -0.323 OA
ATOM      7  H   UNL     1     -37.416  23.027   0.595  0.00  0.00    +0.220 HD
ENDBRANCH   2   6
ENDBRANCH   1   2
BRANCH   1   8
ATOM      8  P   UNL     1     -39.074  25.439   2.870  0.00  0.00    +0.348 P 
ATOM      9  O   UNL     1     -39.380  26.068   1.544  0.00  0.00    -0.258 OA
BRANCH   8  10
ATOM     10  O   UNL     1     -37.906  26.166   3.717  0.00  0.00    -0.323 OA
ATOM     11  H   UNL     1     -38.204  26.299   4.630  0.00  0.00    +0.220 HD
ENDBRANCH   8  10
BRANCH   8  12
ATOM     12  O   UNL     1     -40.311  25.370   3.908  0.00  0.00    -0.323 OA
ATOM     13  H   UNL     1     -39.980  25.487   4.813  0.00  0.00    +0.220 HD
ENDBRANCH   8  12
ENDBRANCH   1   8
BRANCH   1  14
ATOM     14  C   UNL     1     -36.963  23.681   2.661  0.00  0.00    +0.070 C 
BRANCH  14  16
ATOM     15  N   UNL     1     -36.198  23.810   4.954  0.00  0.00    -0.248 NA
ATOM     16  C   UNL     1     -36.245  23.066   3.834  0.00  0.00    +0.060 C 
ATOM     17  C   UNL     1     -35.693  21.811   3.692  0.00  0.00    +0.015 C 
ATOM     18  C   UNL     1     -35.036  21.273   4.793  0.00  0.00    +0.003 C 
ATOM     19  C   UNL     1     -35.551  23.254   6.003  0.00  0.00    +0.098 C 
ATOM     20  C   UNL     1     -34.960  22.002   5.975  0.00  0.00    +0.021 C 
ENDBRANCH  14  16
ENDBRANCH   1  14
TORSDOF 8
ENDMDL
MODEL 7
REMARK VINA RESULT:      -5.0      1.884      2.435
REMARK  Name = 57637
REMARK  8 active torsions:
REMARK  status: ('A' for Active; 'I' for Inactive)
REMARK    1  A    between atoms: C_1  and  P_2
REMARK    2  A    between atoms: C_1  and  P_8
REMARK    3  A    between atoms: C_1  and  C_14
REMARK    4  A    between atoms: P_2  and  O_4
REMARK    5  A    between atoms: P_2  and  O_6
REMARK    6  A    between atoms: P_8  and  O_10
REMARK    7  A    between atoms: P_8  and  O_12
REMARK    8  A    between atoms: C_14  and  C_16
REMARK                            x       y       z     vdW  Elec       q    Type
REMARK                         _______ _______ _______ _____ _____    ______ ____
ROOT
ATOM      1  C   UNL     1     -37.721  21.381   1.876  0.00  0.00    +0.213 C 
ENDROOT
BRANCH   1   2
ATOM      2  P   UNL     1     -37.231  20.201   0.550  0.00  0.00    +0.348 P 
ATOM      3  O   UNL     1     -36.364  20.779  -0.529  0.00  0.00    -0.258 OA
BRANCH   2   4
ATOM      4  O   UNL     1     -38.641  19.589   0.053  0.00  0.00    -0.323 OA
ATOM      5  H   UNL     1     -38.589  18.620   0.049  0.00  0.00    +0.220 HD
ENDBRANCH   2   4
BRANCH   2   6
ATOM      6  O   UNL     1     -36.561  18.980   1.368  0.00  0.00    -0.323 OA
ATOM      7  H   UNL     1     -36.657  19.138   2.321  0.00  0.00    +0.220 HD
ENDBRANCH   2   6
ENDBRANCH   1   2
BRANCH   1   8
ATOM      8  P   UNL     1     -39.370  22.219   1.827  0.00  0.00    +0.348 P 
ATOM      9  O   UNL     1     -39.471  23.443   2.689  0.00  0.00    -0.258 OA
BRANCH   8  10
ATOM     10  O   UNL     1     -40.406  21.036   2.196  0.00  0.00    -0.323 OA
ATOM     11  H   UNL     1     -40.037  20.495   2.911  0.00  0.00    +0.220 HD
ENDBRANCH   8  10
BRANCH   8  12
ATOM     12  O   UNL     1     -39.613  22.461   0.248  0.00  0.00    -0.323 OA
ATOM     13  H   UNL     1     -40.495  22.139   0.004  0.00  0.00    +0.220 HD
ENDBRANCH   8  12
ENDBRANCH   1   8
BRANCH   1  14
ATOM     14  C   UNL     1     -36.638  22.467   2.085  0.00  0.00    +0.070 C 
BRANCH  14  16
ATOM     15  N   UNL     1     -36.231  23.768   4.086  0.00  0.00    -0.248 NA
ATOM     16  C   UNL     1     -36.109  22.567   3.493  0.00  0.00    +0.060 C 
ATOM     17  C   UNL     1     -35.546  21.450   4.073  0.00  0.00    +0.015 C 
ATOM     18  C   UNL     1     -35.067  21.576   5.372  0.00  0.00    +0.003 C 
ATOM     19  C   UNL     1     -35.754  23.853   5.348  0.00  0.00    +0.098 C 
ATOM     20  C   UNL     1     -35.170  22.797   6.029  0.00  0.00    +0.021 C 
ENDBRANCH  14  16
ENDBRANCH   1  14
TORSDOF 8
ENDMDL
MODEL 8
REMARK VINA RESULT:      -4.9      3.676      5.307
REMARK  Name = 57637
REMARK  8 active torsions:
REMARK  status: ('A' for Active; 'I' for Inactive)
REMARK    1  A    between atoms: C_1  and  P_2
REMARK    2  A    between atoms: C_1  and  P_8
REMARK    3  A    between atoms: C_1  and  C_14
REMARK    4  A    between atoms: P_2  and  O_4
REMARK    5  A    between atoms: P_2  and  O_6
REMARK    6  A    between atoms: P_8  and  O_10
REMARK    7  A    between atoms: P_8  and  O_12
REMARK    8  A    between atoms: C_14  and  C_16
REMARK                            x       y       z     vdW  Elec       q    Type
REMARK                         _______ _______ _______ _____ _____    ______ ____
ROOT
ATOM      1  C   UNL     1     -36.284  24.847   3.583  0.00  0.00    +0.213 C 
ENDROOT
BRANCH   1   2
ATOM      2  P   UNL     1     -37.933  25.194   2.843  0.00  0.00    +0.348 P 
ATOM      3  O   UNL     1     -38.258  24.406   1.610  0.00  0.00    -0.258 OA
BRANCH   2   4
ATOM      4  O   UNL     1     -37.931  26.799   2.658  0.00  0.00    -0.323 OA
ATOM      5  H   UNL     1     -37.841  27.016   1.717  0.00  0.00    +0.220 HD
ENDBRANCH   2   4
BRANCH   2   6
ATOM      6  O   UNL     1     -38.951  24.962   4.076  0.00  0.00    -0.323 OA
ATOM      7  H   UNL     1     -38.877  25.701   4.700  0.00  0.00    +0.220 HD
ENDBRANCH   2   6
ENDBRANCH   1   2
BRANCH   1   8
ATOM      8  P   UNL     1     -35.495  26.061   4.735  0.00  0.00    +0.348 P 
ATOM      9  O   UNL     1     -34.305  25.531   5.478  0.00  0.00    -0.258 OA
BRANCH   8  10
ATOM     10  O   UNL     1     -36.721  26.549   5.667  0.00  0.00    -0.323 OA
ATOM     11  H   UNL     1     -36.704  26.060   6.504  0.00  0.00    +0.220 HD
ENDBRANCH   8  10
BRANCH   8  12
ATOM     12  O   UNL     1     -35.207  27.336   3.785  0.00  0.00    -0.323 OA
ATOM     13  H   UNL     1     -34.323  27.255   3.394  0.00  0.00    +0.220 HD
ENDBRANCH   8  12
ENDBRANCH   1   8
BRANCH   1  14
ATOM     14  C   UNL     1     -35.249  24.479   2.493  0.00  0.00    +0.070 C 
BRANCH  14  16
ATOM     15  N   UNL     1     -34.488  22.658   1.090  0.00  0.00    -0.248 NA
ATOM     16  C   UNL     1     -35.098  23.001   2.239  0.00  0.00    +0.060 C 
ATOM     17  C   UNL     1     -35.582  22.113   3.176  0.00  0.00    +0.015 C 
ATOM     18  C   UNL     1     -35.427  20.757   2.912  0.00  0.00    +0.003 C 
ATOM     19  C   UNL     1     -34.356  21.331   0.867  0.00  0.00    +0.098 C 
ATOM     20  C   UNL     1     -34.803  20.350   1.737  0.00  0.00    +0.021 C 
ENDBRANCH  14  16
ENDBRANCH   1  14
TORSDOF 8
ENDMDL
MODEL 9
REMARK VINA RESULT:      -4.9      2.157      3.948
REMARK  Name = 57637
REMARK  8 active torsions:
REMARK  status: ('A' for Active; 'I' for Inactive)
REMARK    1  A    between atoms: C_1  and  P_2
REMARK    2  A    between atoms: C_1  and  P_8
REMARK    3  A    between atoms: C_1  and  C_14
REMARK    4  A    between atoms: P_2  and  O_4
REMARK    5  A    between atoms: P_2  and  O_6
REMARK    6  A    between atoms: P_8  and  O_10
REMARK    7  A    between atoms: P_8  and  O_12
REMARK    8  A    between atoms: C_14  and  C_16
REMARK                            x       y       z     vdW  Elec       q    Type
REMARK                         _______ _______ _______ _____ _____    ______ ____
ROOT
ATOM      1  C   UNL     1     -36.739  24.412   3.396  0.00  0.00    +0.213 C 
ENDROOT
BRANCH   1   2
ATOM      2  P   UNL     1     -38.393  25.037   2.885  0.00  0.00    +0.348 P 
ATOM      3  O   UNL     1     -39.539  24.580   3.738  0.00  0.00    -0.258 OA
BRANCH   2   4
ATOM      4  O   UNL     1     -38.483  24.627   1.325  0.00  0.00    -0.323 OA
ATOM      5  H   UNL     1     -37.743  24.041   1.102  0.00  0.00    +0.220 HD
ENDBRANCH   2   4
BRANCH   2   6
ATOM      6  O   UNL     1     -38.188  26.639   2.839  0.00  0.00    -0.323 OA
ATOM      7  H   UNL     1     -37.658  26.874   2.062  0.00  0.00    +0.220 HD
ENDBRANCH   2   6
ENDBRANCH   1   2
BRANCH   1   8
ATOM      8  P   UNL     1     -36.362  22.602   3.352  0.00  0.00    +0.348 P 
ATOM      9  O   UNL     1     -35.167  22.235   2.522  0.00  0.00    -0.258 OA
BRANCH   8  10
ATOM     10  O   UNL     1     -37.755  21.938   2.874  0.00  0.00    -0.323 OA
ATOM     11  H   UNL     1     -37.941  22.201   1.960  0.00  0.00    +0.220 HD
ENDBRANCH   8  10
BRANCH   8  12
ATOM     12  O   UNL     1     -36.267  22.207   4.916  0.00  0.00    -0.323 OA
ATOM     13  H   UNL     1     -35.505  22.655   5.316  0.00  0.00    +0.220 HD
ENDBRANCH   8  12
ENDBRANCH   1   8
BRANCH   1  14
ATOM     14  C   UNL     1     -36.347  24.949   4.794  0.00  0.00    +0.070 C 
BRANCH  14  16
ATOM     15  N   UNL     1     -34.945  26.583   3.686  0.00  0.00    -0.248 NA
ATOM     16  C   UNL     1     -35.152  25.867   4.806  0.00  0.00    +0.060 C 
ATOM     17  C   UNL     1     -34.363  25.917   5.935  0.00  0.00    +0.015 C 
ATOM     18  C   UNL     1     -33.268  26.773   5.914  0.00  0.00    +0.003 C 
ATOM     19  C   UNL     1     -33.872  27.404   3.701  0.00  0.00    +0.098 C 
ATOM     20  C   UNL     1     -33.011  27.535   4.779  0.00  0.00    +0.021 C 
ENDBRANCH  14  16
ENDBRANCH   1  14
TORSDOF 8
ENDMDL
