MODEL 1
REMARK VINA RESULT:      -4.8      0.000      0.000
REMARK  Name = 20833799
REMARK  9 active torsions:
REMARK  status: ('A' for Active; 'I' for Inactive)
REMARK    1  A    between atoms: C_1  and  N_3
REMARK    2  A    between atoms: C_1  and  C_8
REMARK    3  A    between atoms: C_1  and  C_11
REMARK    4  A    between atoms: C_8  and  O_9
REMARK    5  A    between atoms: C_11  and  S_12
REMARK    6  A    between atoms: S_12  and  C_14
REMARK    7  A    between atoms: C_14  and  N_15
REMARK    8  A    between atoms: N_15  and  C_17
REMARK    9  A    between atoms: C_17  and  C_18
REMARK                            x       y       z     vdW  Elec       q    Type
REMARK                         _______ _______ _______ _____ _____    ______ ____
ROOT
ATOM      1  C   UNK A   1     -35.769  21.873   3.414  0.00  0.00    +0.183 C 
ENDROOT
BRANCH   1   3
ATOM      2  O   UNK A   0     -34.347  21.649   0.892  0.00  0.00    -0.275 OA
ATOM      3  N   UNK A   1     -35.258  20.672   2.800  0.00  0.00    -0.296 N 
ATOM      4  C   UNK A   0     -34.588  20.664   1.587  0.00  0.00    +0.223 C 
ATOM      5  C   UNK A   0     -34.140  19.283   1.189  0.00  0.00    +0.095 C 
ATOM      6  H   UNK A   1     -35.391  19.815   3.267  0.00  0.00    +0.150 HD
ENDBRANCH   1   3
BRANCH   1   8
ATOM      7  O   UNK A   1     -36.136  22.684   5.669  0.00  0.00    -0.248 OA
ATOM      8  C   UNK A   1     -35.717  21.800   4.931  0.00  0.00    +0.333 C 
BRANCH   8   9
ATOM      9  O   UNK A   1     -35.146  20.663   5.394  0.00  0.00    -0.479 OA
ATOM     10  H   UNK A   1     -35.572  19.839   5.264  0.00  0.00    +0.295 HD
ENDBRANCH   8   9
ENDBRANCH   1   8
BRANCH   1  11
ATOM     11  C   UNK A   1     -37.163  22.233   2.894  0.00  0.00    +0.095 C 
BRANCH  11  12
ATOM     12  S   UNK A   1     -37.242  23.858   2.070  0.00  0.00    -0.090 S 
BRANCH  12  14
ATOM     13  S   UNK A   1     -39.843  24.963   3.079  0.00  0.00    -0.028 S 
ATOM     14  C   UNK A   1     -38.198  24.724   3.268  0.00  0.00    +0.108 C 
BRANCH  14  15
ATOM     15  N   UNK A   1     -37.418  25.112   4.336  0.00  0.00    -0.319 N 
ATOM     16  H   UNK A   1     -37.744  24.879   5.236  0.00  0.00    +0.148 HD
BRANCH  15  17
ATOM     17  C   UNK A   1     -36.161  25.832   4.261  0.00  0.00    +0.115 C 
BRANCH  17  18
ATOM     18  C   UNK A   1     -35.605  25.989   5.636  0.00  0.00    -0.005 C 
ATOM     19  C   UNK A   1     -34.297  25.984   5.917  0.00  0.00    -0.003 C 
ENDBRANCH  17  18
ENDBRANCH  15  17
ENDBRANCH  14  15
ENDBRANCH  12  14
ENDBRANCH  11  12
ENDBRANCH   1  11
TORSDOF 9
ENDMDL
MODEL 2
REMARK VINA RESULT:      -4.8      1.961      4.913
REMARK  Name = 20833799
REMARK  9 active torsions:
REMARK  status: ('A' for Active; 'I' for Inactive)
REMARK    1  A    between atoms: C_1  and  N_3
REMARK    2  A    between atoms: C_1  and  C_8
REMARK    3  A    between atoms: C_1  and  C_11
REMARK    4  A    between atoms: C_8  and  O_9
REMARK    5  A    between atoms: C_11  and  S_12
REMARK    6  A    between atoms: S_12  and  C_14
REMARK    7  A    between atoms: C_14  and  N_15
REMARK    8  A    between atoms: N_15  and  C_17
REMARK    9  A    between atoms: C_17  and  C_18
REMARK                            x       y       z     vdW  Elec       q    Type
REMARK                         _______ _______ _______ _____ _____    ______ ____
ROOT
ATOM      1  C   UNK A   1     -35.586  23.411   4.789  0.00  0.00    +0.183 C 
ENDROOT
BRANCH   1   3
ATOM      2  O   UNK A   0     -35.988  26.200   5.487  0.00  0.00    -0.275 OA
ATOM      3  N   UNK A   1     -34.596  24.348   5.256  0.00  0.00    -0.296 N 
ATOM      4  C   UNK A   0     -34.884  25.668   5.566  0.00  0.00    +0.223 C 
ATOM      5  C   UNK A   0     -33.674  26.419   6.053  0.00  0.00    +0.095 C 
ATOM      6  H   UNK A   1     -33.668  24.035   5.360  0.00  0.00    +0.150 HD
ENDBRANCH   1   3
BRANCH   1   8
ATOM      7  O   UNK A   1     -35.922  22.144   6.829  0.00  0.00    -0.248 OA
ATOM      8  C   UNK A   1     -35.623  22.152   5.641  0.00  0.00    +0.333 C 
BRANCH   8   9
ATOM      9  O   UNK A   1     -35.275  21.034   4.961  0.00  0.00    -0.479 OA
ATOM     10  H   UNK A   1     -34.783  20.361   5.387  0.00  0.00    +0.295 HD
ENDBRANCH   8   9
ENDBRANCH   1   8
BRANCH   1  11
ATOM     11  C   UNK A   1     -35.424  23.101   3.299  0.00  0.00    +0.095 C 
BRANCH  11  12
ATOM     12  S   UNK A   1     -36.887  23.527   2.297  0.00  0.00    -0.090 S 
BRANCH  12  14
ATOM     13  S   UNK A   1     -39.256  21.741   1.850  0.00  0.00    -0.028 S 
ATOM     14  C   UNK A   1     -37.636  21.937   2.218  0.00  0.00    +0.108 C 
BRANCH  14  15
ATOM     15  N   UNK A   1     -36.711  20.942   2.458  0.00  0.00    -0.319 N 
ATOM     16  H   UNK A   1     -36.358  20.872   3.375  0.00  0.00    +0.148 HD
BRANCH  15  17
ATOM     17  C   UNK A   1     -36.208  19.990   1.486  0.00  0.00    +0.115 C 
BRANCH  17  18
ATOM     18  C   UNK A   1     -34.723  19.907   1.607  0.00  0.00    -0.005 C 
ATOM     19  C   UNK A   1     -33.873  20.543   0.793  0.00  0.00    -0.003 C 
ENDBRANCH  17  18
ENDBRANCH  15  17
ENDBRANCH  14  15
ENDBRANCH  12  14
ENDBRANCH  11  12
ENDBRANCH   1  11
TORSDOF 9
ENDMDL
MODEL 3
REMARK VINA RESULT:      -4.7      2.514      5.219
REMARK  Name = 20833799
REMARK  9 active torsions:
REMARK  status: ('A' for Active; 'I' for Inactive)
REMARK    1  A    between atoms: C_1  and  N_3
REMARK    2  A    between atoms: C_1  and  C_8
REMARK    3  A    between atoms: C_1  and  C_11
REMARK    4  A    between atoms: C_8  and  O_9
REMARK    5  A    between atoms: C_11  and  S_12
REMARK    6  A    between atoms: S_12  and  C_14
REMARK    7  A    between atoms: C_14  and  N_15
REMARK    8  A    between atoms: N_15  and  C_17
REMARK    9  A    between atoms: C_17  and  C_18
REMARK                            x       y       z     vdW  Elec       q    Type
REMARK                         _______ _______ _______ _____ _____    ______ ____
ROOT
ATOM      1  C   UNK A   1     -36.947  23.472   3.230  0.00  0.00    +0.183 C 
ENDROOT
BRANCH   1   3
ATOM      2  O   UNK A   0     -34.539  23.699   4.837  0.00  0.00    -0.275 OA
ATOM      3  N   UNK A   1     -36.626  22.748   4.435  0.00  0.00    -0.296 N 
ATOM      4  C   UNK A   0     -35.444  22.925   5.137  0.00  0.00    +0.223 C 
ATOM      5  C   UNK A   0     -35.376  22.065   6.370  0.00  0.00    +0.095 C 
ATOM      6  H   UNK A   1     -37.280  22.095   4.777  0.00  0.00    +0.150 HD
ENDBRANCH   1   3
BRANCH   1   8
ATOM      7  O   UNK A   1     -36.936  25.891   3.384  0.00  0.00    -0.248 OA
ATOM      8  C   UNK A   1     -37.543  24.838   3.530  0.00  0.00    +0.333 C 
BRANCH   8   9
ATOM      9  O   UNK A   1     -38.814  24.777   3.993  0.00  0.00    -0.479 OA
ATOM     10  H   UNK A   1     -39.343  24.026   3.810  0.00  0.00    +0.295 HD
ENDBRANCH   8   9
ENDBRANCH   1   8
BRANCH   1  11
ATOM     11  C   UNK A   1     -37.823  22.648   2.283  0.00  0.00    +0.095 C 
BRANCH  11  12
ATOM     12  S   UNK A   1     -36.996  22.197   0.723  0.00  0.00    -0.090 S 
BRANCH  12  14
ATOM     13  S   UNK A   1     -38.126  19.624  -0.330  0.00  0.00    -0.028 S 
ATOM     14  C   UNK A   1     -37.207  20.451   0.797  0.00  0.00    +0.108 C 
BRANCH  14  15
ATOM     15  N   UNK A   1     -36.500  19.913   1.851  0.00  0.00    -0.319 N 
ATOM     16  H   UNK A   1     -36.995  19.325   2.468  0.00  0.00    +0.148 HD
BRANCH  15  17
ATOM     17  C   UNK A   1     -35.095  20.129   2.138  0.00  0.00    +0.115 C 
BRANCH  17  18
ATOM     18  C   UNK A   1     -34.273  19.373   1.150  0.00  0.00    -0.005 C 
ATOM     19  C   UNK A   1     -33.128  18.751   1.453  0.00  0.00    -0.003 C 
ENDBRANCH  17  18
ENDBRANCH  15  17
ENDBRANCH  14  15
ENDBRANCH  12  14
ENDBRANCH  11  12
ENDBRANCH   1  11
TORSDOF 9
ENDMDL
MODEL 4
REMARK VINA RESULT:      -4.7      2.850      4.998
REMARK  Name = 20833799
REMARK  9 active torsions:
REMARK  status: ('A' for Active; 'I' for Inactive)
REMARK    1  A    between atoms: C_1  and  N_3
REMARK    2  A    between atoms: C_1  and  C_8
REMARK    3  A    between atoms: C_1  and  C_11
REMARK    4  A    between atoms: C_8  and  O_9
REMARK    5  A    between atoms: C_11  and  S_12
REMARK    6  A    between atoms: S_12  and  C_14
REMARK    7  A    between atoms: C_14  and  N_15
REMARK    8  A    between atoms: N_15  and  C_17
REMARK    9  A    between atoms: C_17  and  C_18
REMARK                            x       y       z     vdW  Elec       q    Type
REMARK                         _______ _______ _______ _____ _____    ______ ____
ROOT
ATOM      1  C   UNK A   1     -35.558  26.330   4.534  0.00  0.00    +0.183 C 
ENDROOT
BRANCH   1   3
ATOM      2  O   UNK A   0     -34.691  28.905   3.513  0.00  0.00    -0.275 OA
ATOM      3  N   UNK A   1     -35.338  26.697   3.157  0.00  0.00    -0.296 N 
ATOM      4  C   UNK A   0     -34.922  27.959   2.764  0.00  0.00    +0.223 C 
ATOM      5  C   UNK A   0     -34.745  28.065   1.273  0.00  0.00    +0.095 C 
ATOM      6  H   UNK A   1     -35.491  26.017   2.461  0.00  0.00    +0.150 HD
ENDBRANCH   1   3
BRANCH   1   8
ATOM      7  O   UNK A   1     -33.797  26.615   6.175  0.00  0.00    -0.248 OA
ATOM      8  C   UNK A   1     -34.260  25.973   5.241  0.00  0.00    +0.333 C 
BRANCH   8   9
ATOM      9  O   UNK A   1     -33.652  24.878   4.725  0.00  0.00    -0.479 OA
ATOM     10  H   UNK A   1     -32.757  24.698   4.934  0.00  0.00    +0.295 HD
ENDBRANCH   8   9
ENDBRANCH   1   8
BRANCH   1  11
ATOM     11  C   UNK A   1     -36.617  25.233   4.672  0.00  0.00    +0.095 C 
BRANCH  11  12
ATOM     12  S   UNK A   1     -37.556  24.922   3.140  0.00  0.00    -0.090 S 
BRANCH  12  14
ATOM     13  S   UNK A   1     -38.127  22.262   1.873  0.00  0.00    -0.028 S 
ATOM     14  C   UNK A   1     -37.429  23.167   3.094  0.00  0.00    +0.108 C 
BRANCH  14  15
ATOM     15  N   UNK A   1     -36.672  22.699   4.148  0.00  0.00    -0.319 N 
ATOM     16  H   UNK A   1     -36.934  22.991   5.051  0.00  0.00    +0.148 HD
BRANCH  15  17
ATOM     17  C   UNK A   1     -35.525  21.816   4.051  0.00  0.00    +0.115 C 
BRANCH  17  18
ATOM     18  C   UNK A   1     -35.020  21.520   5.423  0.00  0.00    -0.005 C 
ATOM     19  C   UNK A   1     -35.412  22.177   6.520  0.00  0.00    -0.003 C 
ENDBRANCH  17  18
ENDBRANCH  15  17
ENDBRANCH  14  15
ENDBRANCH  12  14
ENDBRANCH  11  12
ENDBRANCH   1  11
TORSDOF 9
ENDMDL
MODEL 5
REMARK VINA RESULT:      -4.6      2.672      5.668
REMARK  Name = 20833799
REMARK  9 active torsions:
REMARK  status: ('A' for Active; 'I' for Inactive)
REMARK    1  A    between atoms: C_1  and  N_3
REMARK    2  A    between atoms: C_1  and  C_8
REMARK    3  A    between atoms: C_1  and  C_11
REMARK    4  A    between atoms: C_8  and  O_9
REMARK    5  A    between atoms: C_11  and  S_12
REMARK    6  A    between atoms: S_12  and  C_14
REMARK    7  A    between atoms: C_14  and  N_15
REMARK    8  A    between atoms: N_15  and  C_17
REMARK    9  A    between atoms: C_17  and  C_18
REMARK                            x       y       z     vdW  Elec       q    Type
REMARK                         _______ _______ _______ _____ _____    ______ ____
ROOT
ATOM      1  C   UNK A   1     -36.748  23.850   3.339  0.00  0.00    +0.183 C 
ENDROOT
BRANCH   1   3
ATOM      2  O   UNK A   0     -34.990  24.176   5.628  0.00  0.00    -0.275 OA
ATOM      3  N   UNK A   1     -36.445  22.875   4.357  0.00  0.00    -0.296 N 
ATOM      4  C   UNK A   0     -35.588  23.123   5.418  0.00  0.00    +0.223 C 
ATOM      5  C   UNK A   0     -35.470  21.945   6.347  0.00  0.00    +0.095 C 
ATOM      6  H   UNK A   1     -36.869  21.988   4.296  0.00  0.00    +0.150 HD
ENDBRANCH   1   3
BRANCH   1   8
ATOM      7  O   UNK A   1     -39.039  24.580   3.645  0.00  0.00    -0.248 OA
ATOM      8  C   UNK A   1     -37.843  24.808   3.779  0.00  0.00    +0.333 C 
BRANCH   8   9
ATOM      9  O   UNK A   1     -37.367  25.952   4.324  0.00  0.00    -0.479 OA
ATOM     10  H   UNK A   1     -36.806  26.511   3.824  0.00  0.00    +0.295 HD
ENDBRANCH   8   9
ENDBRANCH   1   8
BRANCH   1  11
ATOM     11  C   UNK A   1     -37.053  23.194   1.990  0.00  0.00    +0.095 C 
BRANCH  11  12
ATOM     12  S   UNK A   1     -37.144  21.374   2.063  0.00  0.00    -0.090 S 
BRANCH  12  14
ATOM     13  S   UNK A   1     -34.635  22.167   0.620  0.00  0.00    -0.028 S 
ATOM     14  C   UNK A   1     -35.580  20.995   1.351  0.00  0.00    +0.108 C 
BRANCH  14  15
ATOM     15  N   UNK A   1     -35.269  19.662   1.521  0.00  0.00    -0.319 N 
ATOM     16  H   UNK A   1     -35.702  19.196   2.273  0.00  0.00    +0.148 HD
BRANCH  15  17
ATOM     17  C   UNK A   1     -34.365  18.883   0.698  0.00  0.00    +0.115 C 
BRANCH  17  18
ATOM     18  C   UNK A   1     -33.021  18.849   1.346  0.00  0.00    -0.005 C 
ATOM     19  C   UNK A   1     -32.148  17.846   1.200  0.00  0.00    -0.003 C 
ENDBRANCH  17  18
ENDBRANCH  15  17
ENDBRANCH  14  15
ENDBRANCH  12  14
ENDBRANCH  11  12
ENDBRANCH   1  11
TORSDOF 9
ENDMDL
MODEL 6
REMARK VINA RESULT:      -4.5      2.520      3.424
REMARK  Name = 20833799
REMARK  9 active torsions:
REMARK  status: ('A' for Active; 'I' for Inactive)
REMARK    1  A    between atoms: C_1  and  N_3
REMARK    2  A    between atoms: C_1  and  C_8
REMARK    3  A    between atoms: C_1  and  C_11
REMARK    4  A    between atoms: C_8  and  O_9
REMARK    5  A    between atoms: C_11  and  S_12
REMARK    6  A    between atoms: S_12  and  C_14
REMARK    7  A    between atoms: C_14  and  N_15
REMARK    8  A    between atoms: N_15  and  C_17
REMARK    9  A    between atoms: C_17  and  C_18
REMARK                            x       y       z     vdW  Elec       q    Type
REMARK                         _______ _______ _______ _____ _____    ______ ____
ROOT
ATOM      1  C   UNK A   1     -35.397  22.887   4.481  0.00  0.00    +0.183 C 
ENDROOT
BRANCH   1   3
ATOM      2  O   UNK A   0     -36.669  21.646   2.185  0.00  0.00    -0.275 OA
ATOM      3  N   UNK A   1     -36.680  23.211   3.909  0.00  0.00    -0.296 N 
ATOM      4  C   UNK A   0     -37.207  22.560   2.805  0.00  0.00    +0.223 C 
ATOM      5  C   UNK A   0     -38.571  23.077   2.433  0.00  0.00    +0.095 C 
ATOM      6  H   UNK A   1     -37.209  23.931   4.324  0.00  0.00    +0.150 HD
ENDBRANCH   1   3
BRANCH   1   8
ATOM      7  O   UNK A   1     -35.940  22.180   6.735  0.00  0.00    -0.248 OA
ATOM      8  C   UNK A   1     -35.519  21.890   5.622  0.00  0.00    +0.333 C 
BRANCH   8   9
ATOM      9  O   UNK A   1     -35.101  20.645   5.293  0.00  0.00    -0.479 OA
ATOM     10  H   UNK A   1     -34.195  20.487   5.118  0.00  0.00    +0.295 HD
ENDBRANCH   8   9
ENDBRANCH   1   8
BRANCH   1  11
ATOM     11  C   UNK A   1     -34.616  24.141   4.883  0.00  0.00    +0.095 C 
BRANCH  11  12
ATOM     12  S   UNK A   1     -35.675  25.572   5.274  0.00  0.00    -0.090 S 
BRANCH  12  14
ATOM     13  S   UNK A   1     -35.823  26.512   2.428  0.00  0.00    -0.028 S 
ATOM     14  C   UNK A   1     -35.181  26.642   3.967  0.00  0.00    +0.108 C 
BRANCH  14  15
ATOM     15  N   UNK A   1     -34.262  27.571   4.410  0.00  0.00    -0.319 N 
ATOM     16  H   UNK A   1     -34.603  28.470   4.624  0.00  0.00    +0.148 HD
BRANCH  15  17
ATOM     17  C   UNK A   1     -32.841  27.348   4.592  0.00  0.00    +0.115 C 
BRANCH  17  18
ATOM     18  C   UNK A   1     -32.462  27.723   5.985  0.00  0.00    -0.005 C 
ATOM     19  C   UNK A   1     -31.793  28.838   6.302  0.00  0.00    -0.003 C 
ENDBRANCH  17  18
ENDBRANCH  15  17
ENDBRANCH  14  15
ENDBRANCH  12  14
ENDBRANCH  11  12
ENDBRANCH   1  11
TORSDOF 9
ENDMDL
MODEL 7
REMARK VINA RESULT:      -4.5      2.581      3.498
REMARK  Name = 20833799
REMARK  9 active torsions:
REMARK  status: ('A' for Active; 'I' for Inactive)
REMARK    1  A    between atoms: C_1  and  N_3
REMARK    2  A    between atoms: C_1  and  C_8
REMARK    3  A    between atoms: C_1  and  C_11
REMARK    4  A    between atoms: C_8  and  O_9
REMARK    5  A    between atoms: C_11  and  S_12
REMARK    6  A    between atoms: S_12  and  C_14
REMARK    7  A    between atoms: C_14  and  N_15
REMARK    8  A    between atoms: N_15  and  C_17
REMARK    9  A    between atoms: C_17  and  C_18
REMARK                            x       y       z     vdW  Elec       q    Type
REMARK                         _______ _______ _______ _____ _____    ______ ____
ROOT
ATOM      1  C   UNK A   1     -35.721  22.907   4.641  0.00  0.00    +0.183 C 
ENDROOT
BRANCH   1   3
ATOM      2  O   UNK A   0     -36.065  23.101   1.765  0.00  0.00    -0.275 OA
ATOM      3  N   UNK A   1     -36.831  22.426   3.858  0.00  0.00    -0.296 N 
ATOM      4  C   UNK A   0     -36.908  22.566   2.481  0.00  0.00    +0.223 C 
ATOM      5  C   UNK A   0     -38.160  21.954   1.911  0.00  0.00    +0.095 C 
ATOM      6  H   UNK A   1     -37.573  21.976   4.324  0.00  0.00    +0.150 HD
ENDBRANCH   1   3
BRANCH   1   8
ATOM      7  O   UNK A   1     -35.271  22.266   6.935  0.00  0.00    -0.248 OA
ATOM      8  C   UNK A   1     -35.355  21.942   5.758  0.00  0.00    +0.333 C 
BRANCH   8   9
ATOM      9  O   UNK A   1     -35.115  20.683   5.320  0.00  0.00    -0.479 OA
ATOM     10  H   UNK A   1     -35.591  19.963   5.684  0.00  0.00    +0.295 HD
ENDBRANCH   8   9
ENDBRANCH   1   8
BRANCH   1  11
ATOM     11  C   UNK A   1     -35.955  24.330   5.154  0.00  0.00    +0.095 C 
BRANCH  11  12
ATOM     12  S   UNK A   1     -34.717  25.534   4.567  0.00  0.00    -0.090 S 
BRANCH  12  14
ATOM     13  S   UNK A   1     -35.112  27.608   2.435  0.00  0.00    -0.028 S 
ATOM     14  C   UNK A   1     -35.745  26.479   3.495  0.00  0.00    +0.108 C 
BRANCH  14  15
ATOM     15  N   UNK A   1     -37.069  26.125   3.640  0.00  0.00    -0.319 N 
ATOM     16  H   UNK A   1     -37.372  25.891   4.548  0.00  0.00    +0.148 HD
BRANCH  15  17
ATOM     17  C   UNK A   1     -38.059  26.064   2.583  0.00  0.00    +0.115 C 
BRANCH  17  18
ATOM     18  C   UNK A   1     -39.284  25.384   3.099  0.00  0.00    -0.005 C 
ATOM     19  C   UNK A   1     -40.313  25.016   2.328  0.00  0.00    -0.003 C 
ENDBRANCH  17  18
ENDBRANCH  15  17
ENDBRANCH  14  15
ENDBRANCH  12  14
ENDBRANCH  11  12
ENDBRANCH   1  11
TORSDOF 9
ENDMDL
MODEL 8
REMARK VINA RESULT:      -4.4      2.388      3.391
REMARK  Name = 20833799
REMARK  9 active torsions:
REMARK  status: ('A' for Active; 'I' for Inactive)
REMARK    1  A    between atoms: C_1  and  N_3
REMARK    2  A    between atoms: C_1  and  C_8
REMARK    3  A    between atoms: C_1  and  C_11
REMARK    4  A    between atoms: C_8  and  O_9
REMARK    5  A    between atoms: C_11  and  S_12
REMARK    6  A    between atoms: S_12  and  C_14
REMARK    7  A    between atoms: C_14  and  N_15
REMARK    8  A    between atoms: N_15  and  C_17
REMARK    9  A    between atoms: C_17  and  C_18
REMARK                            x       y       z     vdW  Elec       q    Type
REMARK                         _______ _______ _______ _____ _____    ______ ____
ROOT
ATOM      1  C   UNK A   1     -36.232  22.091   2.692  0.00  0.00    +0.183 C 
ENDROOT
BRANCH   1   3
ATOM      2  O   UNK A   0     -36.349  23.767   5.060  0.00  0.00    -0.275 OA
ATOM      3  N   UNK A   1     -35.781  21.762   4.021  0.00  0.00    -0.296 N 
ATOM      4  C   UNK A   0     -35.879  22.632   5.095  0.00  0.00    +0.223 C 
ATOM      5  C   UNK A   0     -35.357  22.028   6.371  0.00  0.00    +0.095 C 
ATOM      6  H   UNK A   1     -35.384  20.874   4.174  0.00  0.00    +0.150 HD
ENDBRANCH   1   3
BRANCH   1   8
ATOM      7  O   UNK A   1     -37.877  21.131   1.192  0.00  0.00    -0.248 OA
ATOM      8  C   UNK A   1     -37.043  20.964   2.073  0.00  0.00    +0.333 C 
BRANCH   8   9
ATOM      9  O   UNK A   1     -36.763  19.749   2.602  0.00  0.00    -0.479 OA
ATOM     10  H   UNK A   1     -37.336  19.026   2.442  0.00  0.00    +0.295 HD
ENDBRANCH   8   9
ENDBRANCH   1   8
BRANCH   1  11
ATOM     11  C   UNK A   1     -35.080  22.544   1.792  0.00  0.00    +0.095 C 
BRANCH  11  12
ATOM     12  S   UNK A   1     -35.487  23.981   0.746  0.00  0.00    -0.090 S 
BRANCH  12  14
ATOM     13  S   UNK A   1     -36.714  26.393   2.042  0.00  0.00    -0.028 S 
ATOM     14  C   UNK A   1     -35.518  25.224   1.991  0.00  0.00    +0.108 C 
BRANCH  14  15
ATOM     15  N   UNK A   1     -34.478  25.058   2.881  0.00  0.00    -0.319 N 
ATOM     16  H   UNK A   1     -34.267  24.135   3.154  0.00  0.00    +0.148 HD
BRANCH  15  17
ATOM     17  C   UNK A   1     -33.666  26.113   3.454  0.00  0.00    +0.115 C 
BRANCH  17  18
ATOM     18  C   UNK A   1     -34.283  26.563   4.737  0.00  0.00    -0.005 C 
ATOM     19  C   UNK A   1     -33.888  26.140   5.943  0.00  0.00    -0.003 C 
ENDBRANCH  17  18
ENDBRANCH  15  17
ENDBRANCH  14  15
ENDBRANCH  12  14
ENDBRANCH  11  12
ENDBRANCH   1  11
TORSDOF 9
ENDMDL
MODEL 9
REMARK VINA RESULT:      -4.4      2.885      5.975
REMARK  Name = 20833799
REMARK  9 active torsions:
REMARK  status: ('A' for Active; 'I' for Inactive)
REMARK    1  A    between atoms: C_1  and  N_3
REMARK    2  A    between atoms: C_1  and  C_8
REMARK    3  A    between atoms: C_1  and  C_11
REMARK    4  A    between atoms: C_8  and  O_9
REMARK    5  A    between atoms: C_11  and  S_12
REMARK    6  A    between atoms: S_12  and  C_14
REMARK    7  A    between atoms: C_14  and  N_15
REMARK    8  A    between atoms: N_15  and  C_17
REMARK    9  A    between atoms: C_17  and  C_18
REMARK                            x       y       z     vdW  Elec       q    Type
REMARK                         _______ _______ _______ _____ _____    ______ ____
ROOT
ATOM      1  C   UNK A   1     -36.725  23.817   3.304  0.00  0.00    +0.183 C 
ENDROOT
BRANCH   1   3
ATOM      2  O   UNK A   0     -35.034  24.179   5.636  0.00  0.00    -0.275 OA
ATOM      3  N   UNK A   1     -36.429  22.849   4.331  0.00  0.00    -0.296 N 
ATOM      4  C   UNK A   0     -35.605  23.115   5.412  0.00  0.00    +0.223 C 
ATOM      5  C   UNK A   0     -35.486  21.940   6.345  0.00  0.00    +0.095 C 
ATOM      6  H   UNK A   1     -36.833  21.953   4.259  0.00  0.00    +0.150 HD
ENDBRANCH   1   3
BRANCH   1   8
ATOM      7  O   UNK A   1     -39.030  24.518   3.577  0.00  0.00    -0.248 OA
ATOM      8  C   UNK A   1     -37.839  24.764   3.722  0.00  0.00    +0.333 C 
BRANCH   8   9
ATOM      9  O   UNK A   1     -37.385  25.921   4.260  0.00  0.00    -0.479 OA
ATOM     10  H   UNK A   1     -37.465  26.722   3.782  0.00  0.00    +0.295 HD
ENDBRANCH   8   9
ENDBRANCH   1   8
BRANCH   1  11
ATOM     11  C   UNK A   1     -37.000  23.154   1.953  0.00  0.00    +0.095 C 
BRANCH  11  12
ATOM     12  S   UNK A   1     -37.777  21.510   2.086  0.00  0.00    -0.090 S 
BRANCH  12  14
ATOM     13  S   UNK A   1     -34.894  21.147   1.338  0.00  0.00    -0.028 S 
ATOM     14  C   UNK A   1     -36.440  20.528   1.499  0.00  0.00    +0.108 C 
BRANCH  14  15
ATOM     15  N   UNK A   1     -36.849  19.235   1.248  0.00  0.00    -0.319 N 
ATOM     16  H   UNK A   1     -37.267  18.746   1.993  0.00  0.00    +0.148 HD
BRANCH  15  17
ATOM     17  C   UNK A   1     -36.722  18.528  -0.012  0.00  0.00    +0.115 C 
BRANCH  17  18
ATOM     18  C   UNK A   1     -38.080  18.316  -0.592  0.00  0.00    -0.005 C 
ATOM     19  C   UNK A   1     -38.890  19.309  -0.976  0.00  0.00    -0.003 C 
ENDBRANCH  17  18
ENDBRANCH  15  17
ENDBRANCH  14  15
ENDBRANCH  12  14
ENDBRANCH  11  12
ENDBRANCH   1  11
TORSDOF 9
ENDMDL
