MODEL 1
REMARK VINA RESULT:      -5.7      0.000      0.000
REMARK  Name = 5280707
REMARK  4 active torsions:
REMARK  status: ('A' for Active; 'I' for Inactive)
REMARK    1  A    between atoms: C_1  and  C_12
REMARK    2  A    between atoms: C_1  and  C_18
REMARK    3  A    between atoms: C_2  and  C_4
REMARK    4  A    between atoms: C_6  and  N_10
REMARK                            x       y       z     vdW  Elec       q    Type
REMARK                         _______ _______ _______ _____ _____    ______ ____
ROOT
ATOM      1  C   UNL     1     -34.731  24.943   4.476  0.00  0.00    +0.091 C 
ATOM      2  C   UNL     1     -34.239  25.410   3.308  0.00  0.00    +0.045 C 
ENDROOT
BRANCH   2   4
ATOM      3  O   UNL     1     -34.982  27.703   3.030  0.00  0.00    -0.433 OA
ATOM      4  C   UNL     1     -33.986  26.791   3.041  0.00  0.00    +0.148 C 
ATOM      5  C   UNL     1     -32.775  27.364   2.771  0.00  0.00    +0.043 C 
ATOM      6  C   UNL     1     -34.396  28.896   2.746  0.00  0.00    +0.289 C 
ATOM      7  C   UNL     1     -33.039  28.740   2.579  0.00  0.00    +0.066 C 
BRANCH   6  10
ATOM      8  O   UNL     1     -36.044  30.118   1.702  0.00  0.00    -0.123 OA
ATOM      9  O   UNL     1     -35.250  30.847   3.620  0.00  0.00    -0.123 OA
ATOM     10  N   UNL     1     -35.260  29.992   2.687  0.00  0.00    +0.093 N 
ENDBRANCH   6  10
ENDBRANCH   2   4
BRANCH   1  12
ATOM     11  O   UNL     1     -35.245  22.708   3.683  0.00  0.00    -0.450 OA
ATOM     12  C   UNL     1     -34.969  23.548   4.702  0.00  0.00    +0.150 C 
ATOM     13  C   UNL     1     -34.951  22.903   5.902  0.00  0.00    +0.041 C 
ATOM     14  C   UNL     1     -35.240  21.548   5.609  0.00  0.00    +0.044 C 
ATOM     15  C   UNL     1     -35.411  21.482   4.246  0.00  0.00    +0.180 C 
ENDBRANCH   1  12
BRANCH   1  18
ATOM     16  O   UNL     1     -34.159  26.381   6.311  0.00  0.00    -0.270 OA
ATOM     17  N   UNL     1     -36.326  26.412   5.588  0.00  0.00    -0.325 N 
ATOM     18  C   UNL     1     -35.024  25.968   5.540  0.00  0.00    +0.246 C 
ATOM     19  H   UNL     1     -36.593  27.082   6.257  0.00  0.00    +0.145 HD
ATOM     20  H   UNL     1     -36.990  26.060   4.952  0.00  0.00    +0.145 HD
ENDBRANCH   1  18
TORSDOF 4
ENDMDL
MODEL 2
REMARK VINA RESULT:      -5.6      2.808      6.305
REMARK  Name = 5280707
REMARK  4 active torsions:
REMARK  status: ('A' for Active; 'I' for Inactive)
REMARK    1  A    between atoms: C_1  and  C_12
REMARK    2  A    between atoms: C_1  and  C_18
REMARK    3  A    between atoms: C_2  and  C_4
REMARK    4  A    between atoms: C_6  and  N_10
REMARK                            x       y       z     vdW  Elec       q    Type
REMARK                         _______ _______ _______ _____ _____    ______ ____
ROOT
ATOM      1  C   UNL     1     -32.771  27.331   5.193  0.00  0.00    +0.091 C 
ATOM      2  C   UNL     1     -33.612  26.720   6.054  0.00  0.00    +0.045 C 
ENDROOT
BRANCH   2   4
ATOM      3  O   UNL     1     -34.487  24.476   5.755  0.00  0.00    -0.433 OA
ATOM      4  C   UNL     1     -34.644  25.814   5.658  0.00  0.00    +0.148 C 
ATOM      5  C   UNL     1     -35.871  26.142   5.151  0.00  0.00    +0.043 C 
ATOM      6  C   UNL     1     -35.643  23.928   5.299  0.00  0.00    +0.289 C 
ATOM      7  C   UNL     1     -36.526  24.911   4.916  0.00  0.00    +0.066 C 
BRANCH   6  10
ATOM      8  O   UNL     1     -35.507  21.887   4.241  0.00  0.00    -0.123 OA
ATOM      9  O   UNL     1     -35.926  21.926   6.399  0.00  0.00    -0.123 OA
ATOM     10  N   UNL     1     -35.694  22.532   5.313  0.00  0.00    +0.093 N 
ENDBRANCH   6  10
ENDBRANCH   2   4
BRANCH   1  12
ATOM     11  O   UNL     1     -30.548  27.782   6.056  0.00  0.00    -0.450 OA
ATOM     12  C   UNL     1     -31.748  28.232   5.635  0.00  0.00    +0.150 C 
ATOM     13  C   UNL     1     -31.829  29.592   5.692  0.00  0.00    +0.041 C 
ATOM     14  C   UNL     1     -30.577  30.026   6.189  0.00  0.00    +0.044 C 
ATOM     15  C   UNL     1     -29.833  28.887   6.394  0.00  0.00    +0.180 C 
ENDBRANCH   1  12
BRANCH   1  18
ATOM     16  O   UNL     1     -32.510  26.004   3.211  0.00  0.00    -0.270 OA
ATOM     17  N   UNL     1     -33.681  27.956   3.021  0.00  0.00    -0.325 N 
ATOM     18  C   UNL     1     -32.962  27.022   3.732  0.00  0.00    +0.246 C 
ATOM     19  H   UNL     1     -33.847  27.822   2.060  0.00  0.00    +0.145 HD
ATOM     20  H   UNL     1     -34.029  28.757   3.473  0.00  0.00    +0.145 HD
ENDBRANCH   1  18
TORSDOF 4
ENDMDL
MODEL 3
REMARK VINA RESULT:      -5.5      1.343      1.798
REMARK  Name = 5280707
REMARK  4 active torsions:
REMARK  status: ('A' for Active; 'I' for Inactive)
REMARK    1  A    between atoms: C_1  and  C_12
REMARK    2  A    between atoms: C_1  and  C_18
REMARK    3  A    between atoms: C_2  and  C_4
REMARK    4  A    between atoms: C_6  and  N_10
REMARK                            x       y       z     vdW  Elec       q    Type
REMARK                         _______ _______ _______ _____ _____    ______ ____
ROOT
ATOM      1  C   UNL     1     -34.982  24.907   4.224  0.00  0.00    +0.091 C 
ATOM      2  C   UNL     1     -33.790  25.416   3.845  0.00  0.00    +0.045 C 
ENDROOT
BRANCH   2   4
ATOM      3  O   UNL     1     -33.633  27.811   4.200  0.00  0.00    -0.433 OA
ATOM      4  C   UNL     1     -33.605  26.749   3.365  0.00  0.00    +0.148 C 
ATOM      5  C   UNL     1     -33.388  27.131   2.071  0.00  0.00    +0.043 C 
ATOM      6  C   UNL     1     -33.427  28.906   3.422  0.00  0.00    +0.289 C 
ATOM      7  C   UNL     1     -33.270  28.540   2.105  0.00  0.00    +0.066 C 
BRANCH   6  10
ATOM      8  O   UNL     1     -32.629  30.301   5.070  0.00  0.00    -0.123 OA
ATOM      9  O   UNL     1     -34.195  31.055   3.723  0.00  0.00    -0.123 OA
ATOM     10  N   UNL     1     -33.416  30.130   4.095  0.00  0.00    +0.093 N 
ENDBRANCH   6  10
ENDBRANCH   2   4
BRANCH   1  12
ATOM     11  O   UNL     1     -35.260  22.524   3.850  0.00  0.00    -0.450 OA
ATOM     12  C   UNL     1     -35.121  23.562   4.700  0.00  0.00    +0.150 C 
ATOM     13  C   UNL     1     -35.132  23.157   6.002  0.00  0.00    +0.041 C 
ATOM     14  C   UNL     1     -35.291  21.751   5.961  0.00  0.00    +0.044 C 
ATOM     15  C   UNL     1     -35.363  21.416   4.629  0.00  0.00    +0.180 C 
ENDBRANCH   1  12
BRANCH   1  18
ATOM     16  O   UNL     1     -36.857  25.896   3.100  0.00  0.00    -0.270 OA
ATOM     17  N   UNL     1     -36.437  26.576   5.239  0.00  0.00    -0.325 N 
ATOM     18  C   UNL     1     -36.170  25.825   4.117  0.00  0.00    +0.246 C 
ATOM     19  H   UNL     1     -37.198  27.200   5.245  0.00  0.00    +0.145 HD
ATOM     20  H   UNL     1     -35.866  26.490   6.037  0.00  0.00    +0.145 HD
ENDBRANCH   1  18
TORSDOF 4
ENDMDL
MODEL 4
REMARK VINA RESULT:      -5.5      2.770      5.749
REMARK  Name = 5280707
REMARK  4 active torsions:
REMARK  status: ('A' for Active; 'I' for Inactive)
REMARK    1  A    between atoms: C_1  and  C_12
REMARK    2  A    between atoms: C_1  and  C_18
REMARK    3  A    between atoms: C_2  and  C_4
REMARK    4  A    between atoms: C_6  and  N_10
REMARK                            x       y       z     vdW  Elec       q    Type
REMARK                         _______ _______ _______ _____ _____    ______ ____
ROOT
ATOM      1  C   UNL     1     -33.363  26.952   4.956  0.00  0.00    +0.091 C 
ATOM      2  C   UNL     1     -34.151  26.144   5.698  0.00  0.00    +0.045 C 
ENDROOT
BRANCH   2   4
ATOM      3  O   UNL     1     -35.943  25.164   4.388  0.00  0.00    -0.433 OA
ATOM      4  C   UNL     1     -34.856  25.015   5.176  0.00  0.00    +0.148 C 
ATOM      5  C   UNL     1     -34.560  23.697   5.384  0.00  0.00    +0.043 C 
ATOM      6  C   UNL     1     -36.357  23.907   4.079  0.00  0.00    +0.289 C 
ATOM      7  C   UNL     1     -35.539  22.970   4.666  0.00  0.00    +0.066 C 
BRANCH   6  10
ATOM      8  O   UNL     1     -38.576  24.341   3.643  0.00  0.00    -0.123 OA
ATOM      9  O   UNL     1     -37.403  23.250   2.136  0.00  0.00    -0.123 OA
ATOM     10  N   UNL     1     -37.485  23.830   3.258  0.00  0.00    +0.093 N 
ENDBRANCH   6  10
ENDBRANCH   2   4
BRANCH   1  12
ATOM     11  O   UNL     1     -32.618  29.261   4.884  0.00  0.00    -0.450 OA
ATOM     12  C   UNL     1     -32.672  28.073   5.522  0.00  0.00    +0.150 C 
ATOM     13  C   UNL     1     -32.008  28.104   6.712  0.00  0.00    +0.041 C 
ATOM     14  C   UNL     1     -31.499  29.420   6.828  0.00  0.00    +0.044 C 
ATOM     15  C   UNL     1     -31.898  30.084   5.691  0.00  0.00    +0.180 C 
ENDBRANCH   1  12
BRANCH   1  18
ATOM     16  O   UNL     1     -32.419  25.813   3.066  0.00  0.00    -0.270 OA
ATOM     17  N   UNL     1     -34.128  27.275   2.666  0.00  0.00    -0.325 N 
ATOM     18  C   UNL     1     -33.245  26.618   3.492  0.00  0.00    +0.246 C 
ATOM     19  H   UNL     1     -34.111  27.109   1.696  0.00  0.00    +0.145 HD
ATOM     20  H   UNL     1     -34.777  27.911   3.044  0.00  0.00    +0.145 HD
ENDBRANCH   1  18
TORSDOF 4
ENDMDL
MODEL 5
REMARK VINA RESULT:      -5.4      2.020      6.193
REMARK  Name = 5280707
REMARK  4 active torsions:
REMARK  status: ('A' for Active; 'I' for Inactive)
REMARK    1  A    between atoms: C_1  and  C_12
REMARK    2  A    between atoms: C_1  and  C_18
REMARK    3  A    between atoms: C_2  and  C_4
REMARK    4  A    between atoms: C_6  and  N_10
REMARK                            x       y       z     vdW  Elec       q    Type
REMARK                         _______ _______ _______ _____ _____    ______ ____
ROOT
ATOM      1  C   UNL     1     -34.272  26.346   4.152  0.00  0.00    +0.091 C 
ATOM      2  C   UNL     1     -33.739  25.125   4.376  0.00  0.00    +0.045 C 
ENDROOT
BRANCH   2   4
ATOM      3  O   UNL     1     -34.955  23.255   3.421  0.00  0.00    -0.433 OA
ATOM      4  C   UNL     1     -34.508  23.927   4.504  0.00  0.00    +0.148 C 
ATOM      5  C   UNL     1     -34.886  23.318   5.667  0.00  0.00    +0.043 C 
ATOM      6  C   UNL     1     -35.639  22.183   3.901  0.00  0.00    +0.289 C 
ATOM      7  C   UNL     1     -35.625  22.177   5.276  0.00  0.00    +0.066 C 
BRANCH   6  10
ATOM      8  O   UNL     1     -35.664  20.215   2.706  0.00  0.00    -0.123 OA
ATOM      9  O   UNL     1     -37.220  21.713   2.295  0.00  0.00    -0.123 OA
ATOM     10  N   UNL     1     -36.193  21.341   2.934  0.00  0.00    +0.093 N 
ENDBRANCH   6  10
ENDBRANCH   2   4
BRANCH   1  12
ATOM     11  O   UNL     1     -32.914  28.115   5.109  0.00  0.00    -0.450 OA
ATOM     12  C   UNL     1     -33.462  27.521   4.028  0.00  0.00    +0.150 C 
ATOM     13  C   UNL     1     -33.144  28.174   2.874  0.00  0.00    +0.041 C 
ATOM     14  C   UNL     1     -32.331  29.264   3.266  0.00  0.00    +0.044 C 
ATOM     15  C   UNL     1     -32.220  29.184   4.635  0.00  0.00    +0.180 C 
ENDBRANCH   1  12
BRANCH   1  18
ATOM     16  O   UNL     1     -36.356  26.312   2.962  0.00  0.00    -0.270 OA
ATOM     17  N   UNL     1     -36.444  26.596   5.227  0.00  0.00    -0.325 N 
ATOM     18  C   UNL     1     -35.772  26.415   4.040  0.00  0.00    +0.246 C 
ATOM     19  H   UNL     1     -37.426  26.651   5.234  0.00  0.00    +0.145 HD
ATOM     20  H   UNL     1     -35.941  26.671   6.070  0.00  0.00    +0.145 HD
ENDBRANCH   1  18
TORSDOF 4
ENDMDL
MODEL 6
REMARK VINA RESULT:      -5.4      4.040      5.063
REMARK  Name = 5280707
REMARK  4 active torsions:
REMARK  status: ('A' for Active; 'I' for Inactive)
REMARK    1  A    between atoms: C_1  and  C_12
REMARK    2  A    between atoms: C_1  and  C_18
REMARK    3  A    between atoms: C_2  and  C_4
REMARK    4  A    between atoms: C_6  and  N_10
REMARK                            x       y       z     vdW  Elec       q    Type
REMARK                         _______ _______ _______ _____ _____    ______ ____
ROOT
ATOM      1  C   UNL     1     -33.488  26.777   5.200  0.00  0.00    +0.091 C 
ATOM      2  C   UNL     1     -32.848  27.061   6.355  0.00  0.00    +0.045 C 
ENDROOT
BRANCH   2   4
ATOM      3  O   UNL     1     -30.470  27.540   6.292  0.00  0.00    -0.433 OA
ATOM      4  C   UNL     1     -31.743  27.961   6.457  0.00  0.00    +0.148 C 
ATOM      5  C   UNL     1     -31.800  29.300   6.723  0.00  0.00    +0.043 C 
ATOM      6  C   UNL     1     -29.687  28.638   6.455  0.00  0.00    +0.289 C 
ATOM      7  C   UNL     1     -30.458  29.746   6.721  0.00  0.00    +0.066 C 
BRANCH   6  10
ATOM      8  O   UNL     1     -27.877  27.247   6.153  0.00  0.00    -0.123 OA
ATOM      9  O   UNL     1     -27.519  29.406   6.373  0.00  0.00    -0.123 OA
ATOM     10  N   UNL     1     -28.313  28.423   6.323  0.00  0.00    +0.093 N 
ENDBRANCH   6  10
ENDBRANCH   2   4
BRANCH   1  12
ATOM     11  O   UNL     1     -35.812  26.265   4.719  0.00  0.00    -0.450 OA
ATOM     12  C   UNL     1     -34.594  25.867   5.144  0.00  0.00    +0.150 C 
ATOM     13  C   UNL     1     -34.582  24.548   5.488  0.00  0.00    +0.041 C 
ATOM     14  C   UNL     1     -35.900  24.085   5.260  0.00  0.00    +0.044 C 
ATOM     15  C   UNL     1     -36.609  25.167   4.792  0.00  0.00    +0.180 C 
ENDBRANCH   1  12
BRANCH   1  18
ATOM     16  O   UNL     1     -31.991  27.065   3.347  0.00  0.00    -0.270 OA
ATOM     17  N   UNL     1     -33.695  28.570   3.563  0.00  0.00    -0.325 N 
ATOM     18  C   UNL     1     -32.978  27.465   3.961  0.00  0.00    +0.246 C 
ATOM     19  H   UNL     1     -33.422  29.072   2.762  0.00  0.00    +0.145 HD
ATOM     20  H   UNL     1     -34.482  28.858   4.080  0.00  0.00    +0.145 HD
ENDBRANCH   1  18
TORSDOF 4
ENDMDL
MODEL 7
REMARK VINA RESULT:      -5.3      2.681      5.780
REMARK  Name = 5280707
REMARK  4 active torsions:
REMARK  status: ('A' for Active; 'I' for Inactive)
REMARK    1  A    between atoms: C_1  and  C_12
REMARK    2  A    between atoms: C_1  and  C_18
REMARK    3  A    between atoms: C_2  and  C_4
REMARK    4  A    between atoms: C_6  and  N_10
REMARK                            x       y       z     vdW  Elec       q    Type
REMARK                         _______ _______ _______ _____ _____    ______ ____
ROOT
ATOM      1  C   UNL     1     -34.263  25.978   4.671  0.00  0.00    +0.091 C 
ATOM      2  C   UNL     1     -33.981  25.363   3.503  0.00  0.00    +0.045 C 
ENDROOT
BRANCH   2   4
ATOM      3  O   UNL     1     -34.840  23.108   3.247  0.00  0.00    -0.433 OA
ATOM      4  C   UNL     1     -34.838  24.407   2.875  0.00  0.00    +0.148 C 
ATOM      5  C   UNL     1     -35.728  24.643   1.865  0.00  0.00    +0.043 C 
ATOM      6  C   UNL     1     -35.757  22.492   2.455  0.00  0.00    +0.289 C 
ATOM      7  C   UNL     1     -36.331  23.394   1.589  0.00  0.00    +0.066 C 
BRANCH   6  10
ATOM      8  O   UNL     1     -36.731  20.465   1.962  0.00  0.00    -0.123 OA
ATOM      9  O   UNL     1     -35.258  20.554   3.592  0.00  0.00    -0.123 OA
ATOM     10  N   UNL     1     -35.922  21.123   2.677  0.00  0.00    +0.093 N 
ENDBRANCH   6  10
ENDBRANCH   2   4
BRANCH   1  12
ATOM     11  O   UNL     1     -32.856  27.953   4.549  0.00  0.00    -0.450 OA
ATOM     12  C   UNL     1     -33.374  26.933   5.265  0.00  0.00    +0.150 C 
ATOM     13  C   UNL     1     -32.947  26.953   6.559  0.00  0.00    +0.041 C 
ATOM     14  C   UNL     1     -32.092  28.077   6.660  0.00  0.00    +0.044 C 
ATOM     15  C   UNL     1     -32.071  28.651   5.410  0.00  0.00    +0.180 C 
ENDBRANCH   1  12
BRANCH   1  18
ATOM     16  O   UNL     1     -35.721  24.547   5.930  0.00  0.00    -0.270 OA
ATOM     17  N   UNL     1     -36.569  26.544   5.216  0.00  0.00    -0.325 N 
ATOM     18  C   UNL     1     -35.566  25.609   5.329  0.00  0.00    +0.246 C 
ATOM     19  H   UNL     1     -37.450  26.374   5.621  0.00  0.00    +0.145 HD
ATOM     20  H   UNL     1     -36.406  27.385   4.730  0.00  0.00    +0.145 HD
ENDBRANCH   1  18
TORSDOF 4
ENDMDL
MODEL 8
REMARK VINA RESULT:      -5.3      4.532      6.793
REMARK  Name = 5280707
REMARK  4 active torsions:
REMARK  status: ('A' for Active; 'I' for Inactive)
REMARK    1  A    between atoms: C_1  and  C_12
REMARK    2  A    between atoms: C_1  and  C_18
REMARK    3  A    between atoms: C_2  and  C_4
REMARK    4  A    between atoms: C_6  and  N_10
REMARK                            x       y       z     vdW  Elec       q    Type
REMARK                         _______ _______ _______ _____ _____    ______ ____
ROOT
ATOM      1  C   UNL     1     -39.018  24.976   2.550  0.00  0.00    +0.091 C 
ATOM      2  C   UNL     1     -38.814  23.642   2.595  0.00  0.00    +0.045 C 
ENDROOT
BRANCH   2   4
ATOM      3  O   UNL     1     -37.052  22.971   4.123  0.00  0.00    -0.433 OA
ATOM      4  C   UNL     1     -37.550  23.034   2.869  0.00  0.00    +0.148 C 
ATOM      5  C   UNL     1     -36.703  22.463   1.961  0.00  0.00    +0.043 C 
ATOM      6  C   UNL     1     -35.853  22.340   4.020  0.00  0.00    +0.289 C 
ATOM      7  C   UNL     1     -35.593  22.007   2.711  0.00  0.00    +0.066 C 
BRANCH   6  10
ATOM      8  O   UNL     1     -34.881  20.999   5.620  0.00  0.00    -0.123 OA
ATOM      9  O   UNL     1     -34.815  23.180   5.895  0.00  0.00    -0.123 OA
ATOM     10  N   UNL     1     -35.160  22.167   5.220  0.00  0.00    +0.093 N 
ENDBRANCH   6  10
ENDBRANCH   2   4
BRANCH   1  12
ATOM     11  O   UNL     1     -40.681  26.726   2.801  0.00  0.00    -0.450 OA
ATOM     12  C   UNL     1     -40.305  25.543   2.273  0.00  0.00    +0.150 C 
ATOM     13  C   UNL     1     -41.279  25.005   1.485  0.00  0.00    +0.041 C 
ATOM     14  C   UNL     1     -42.351  25.929   1.524  0.00  0.00    +0.044 C 
ATOM     15  C   UNL     1     -41.937  26.958   2.337  0.00  0.00    +0.180 C 
ENDBRANCH   1  12
BRANCH   1  18
ATOM     16  O   UNL     1     -37.113  26.280   1.891  0.00  0.00    -0.270 OA
ATOM     17  N   UNL     1     -37.566  26.136   4.125  0.00  0.00    -0.325 N 
ATOM     18  C   UNL     1     -37.818  25.850   2.803  0.00  0.00    +0.246 C 
ATOM     19  H   UNL     1     -36.798  26.702   4.370  0.00  0.00    +0.145 HD
ATOM     20  H   UNL     1     -38.154  25.776   4.828  0.00  0.00    +0.145 HD
ENDBRANCH   1  18
TORSDOF 4
ENDMDL
MODEL 9
REMARK VINA RESULT:      -5.3      2.111      2.386
REMARK  Name = 5280707
REMARK  4 active torsions:
REMARK  status: ('A' for Active; 'I' for Inactive)
REMARK    1  A    between atoms: C_1  and  C_12
REMARK    2  A    between atoms: C_1  and  C_18
REMARK    3  A    between atoms: C_2  and  C_4
REMARK    4  A    between atoms: C_6  and  N_10
REMARK                            x       y       z     vdW  Elec       q    Type
REMARK                         _______ _______ _______ _____ _____    ______ ____
ROOT
ATOM      1  C   UNL     1     -34.480  24.905   4.590  0.00  0.00    +0.091 C 
ATOM      2  C   UNL     1     -33.730  25.293   3.536  0.00  0.00    +0.045 C 
ENDROOT
BRANCH   2   4
ATOM      3  O   UNL     1     -32.165  27.128   3.805  0.00  0.00    -0.433 OA
ATOM      4  C   UNL     1     -33.320  26.641   3.300  0.00  0.00    +0.148 C 
ATOM      5  C   UNL     1     -33.990  27.586   2.574  0.00  0.00    +0.043 C 
ATOM      6  C   UNL     1     -32.090  28.421   3.392  0.00  0.00    +0.289 C 
ATOM      7  C   UNL     1     -33.188  28.750   2.632  0.00  0.00    +0.066 C 
BRANCH   6  10
ATOM      8  O   UNL     1     -30.951  30.385   3.773  0.00  0.00    -0.123 OA
ATOM      9  O   UNL     1     -29.943  28.482   4.221  0.00  0.00    -0.123 OA
ATOM     10  N   UNL     1     -30.955  29.121   3.810  0.00  0.00    +0.093 N 
ENDBRANCH   6  10
ENDBRANCH   2   4
BRANCH   1  12
ATOM     11  O   UNL     1     -35.188  22.740   3.750  0.00  0.00    -0.450 OA
ATOM     12  C   UNL     1     -34.868  23.539   4.789  0.00  0.00    +0.150 C 
ATOM     13  C   UNL     1     -34.964  22.886   5.982  0.00  0.00    +0.041 C 
ATOM     14  C   UNL     1     -35.378  21.571   5.661  0.00  0.00    +0.044 C 
ATOM     15  C   UNL     1     -35.500  21.533   4.291  0.00  0.00    +0.180 C 
ENDBRANCH   1  12
BRANCH   1  18
ATOM     16  O   UNL     1     -34.130  26.442   6.399  0.00  0.00    -0.270 OA
ATOM     17  N   UNL     1     -36.194  26.424   5.420  0.00  0.00    -0.325 N 
ATOM     18  C   UNL     1     -34.897  25.984   5.554  0.00  0.00    +0.246 C 
ATOM     19  H   UNL     1     -36.538  27.129   6.015  0.00  0.00    +0.145 HD
ATOM     20  H   UNL     1     -36.777  26.035   4.729  0.00  0.00    +0.145 HD
ENDBRANCH   1  18
TORSDOF 4
ENDMDL
