MODEL 1
REMARK VINA RESULT:      -5.7      0.000      0.000
REMARK  Name = 54691490
REMARK  11 active torsions:
REMARK  status: ('A' for Active; 'I' for Inactive)
REMARK    1  A    between atoms: C_4  and  C_19
REMARK    2  A    between atoms: C_9  and  O_10
REMARK    3  A    between atoms: C_9  and  C_12
REMARK    4  A    between atoms: C_13  and  C_14
REMARK    5  A    between atoms: C_15  and  C_16
REMARK    6  A    between atoms: C_16  and  C_17
REMARK    7  A    between atoms: C_19  and  C_20
REMARK    8  A    between atoms: C_20  and  C_21
REMARK    9  A    between atoms: C_20  and  O_24
REMARK   10  A    between atoms: C_20  and  C_27
REMARK   11  A    between atoms: C_27  and  O_28
REMARK                            x       y       z     vdW  Elec       q    Type
REMARK                         _______ _______ _______ _____ _____    ______ ____
ROOT
ATOM      1  O   UNL     1     -34.768  25.455   6.345  0.00  0.00    -0.289 OA
ATOM      2  O   UNL     1     -32.357  27.927   3.145  0.00  0.00    -0.270 OA
ATOM      3  N   UNL     1     -34.090  26.312   3.028  0.00  0.00    -0.269 N 
ATOM      4  C   UNL     1     -34.915  25.471   3.913  0.00  0.00    +0.141 C 
ATOM      5  C   UNL     1     -34.386  25.883   5.269  0.00  0.00    +0.198 C 
ATOM      6  C   UNL     1     -33.320  26.888   5.083  0.00  0.00    +0.123 C 
ATOM      7  C   UNL     1     -33.149  27.145   3.642  0.00  0.00    +0.255 C 
ATOM      8  C   UNL     1     -34.306  26.300   1.594  0.00  0.00    +0.116 C 
ATOM      9  C   UNL     1     -32.621  27.472   6.066  0.00  0.00    +0.141 C 
ENDROOT
BRANCH   9  10
ATOM     10  O   UNL     1     -32.845  27.173   7.395  0.00  0.00    -0.505 OA
ATOM     11  H   UNL     1     -33.471  27.669   7.887  0.00  0.00    +0.292 HD
ENDBRANCH   9  10
BRANCH   9  12
ATOM     12  C   UNL     1     -31.585  28.454   5.806  0.00  0.00    +0.037 C 
ATOM     13  C   UNL     1     -31.725  29.785   5.917  0.00  0.00    +0.003 C 
BRANCH  13  14
ATOM     14  C   UNL     1     -30.651  30.714   5.642  0.00  0.00    -0.004 C 
ATOM     15  C   UNL     1     -29.364  30.346   5.567  0.00  0.00    -0.026 C 
BRANCH  15  16
ATOM     16  C   UNL     1     -28.241  31.301   5.278  0.00  0.00    +0.026 C 
BRANCH  16  17
ATOM     17  C   UNL     1     -27.389  31.550   6.524  0.00  0.00    +0.005 C 
ATOM     18  C   UNL     1     -27.394  30.344   7.450  0.00  0.00    +0.000 C 
ENDBRANCH  16  17
ENDBRANCH  15  16
ENDBRANCH  13  14
ENDBRANCH   9  12
BRANCH   4  19
ATOM     19  C   UNL     1     -34.725  23.984   3.682  0.00  0.00    +0.066 C 
BRANCH  19  20
ATOM     20  C   UNL     1     -35.944  23.096   4.051  0.00  0.00    +0.179 C 
BRANCH  20  21
ATOM     21  C   UNL     1     -36.519  22.363   2.799  0.00  0.00    +0.035 C 
ATOM     22  C   UNL     1     -35.725  22.591   1.508  0.00  0.00    +0.003 C 
ATOM     23  C   UNL     1     -38.000  22.688   2.544  0.00  0.00    +0.003 C 
ENDBRANCH  20  21
BRANCH  20  24
ATOM     24  O   UNL     1     -36.979  23.947   4.543  0.00  0.00    -0.376 OA
ATOM     25  H   UNL     1     -36.585  24.741   4.935  0.00  0.00    +0.211 HD
ENDBRANCH  20  24
BRANCH  20  27
ATOM     26  O   UNL     1     -35.058  20.986   4.908  0.00  0.00    -0.248 OA
ATOM     27  C   UNL     1     -35.549  22.087   5.135  0.00  0.00    +0.338 C 
BRANCH  27  28
ATOM     28  O   UNL     1     -35.776  22.535   6.395  0.00  0.00    -0.479 OA
ATOM     29  H   UNL     1     -35.622  23.434   6.608  0.00  0.00    +0.295 HD
ENDBRANCH  27  28
ENDBRANCH  20  27
ENDBRANCH  19  20
ENDBRANCH   4  19
TORSDOF 11
ENDMDL
MODEL 2
REMARK VINA RESULT:      -5.6      2.519      3.196
REMARK  Name = 54691490
REMARK  11 active torsions:
REMARK  status: ('A' for Active; 'I' for Inactive)
REMARK    1  A    between atoms: C_4  and  C_19
REMARK    2  A    between atoms: C_9  and  O_10
REMARK    3  A    between atoms: C_9  and  C_12
REMARK    4  A    between atoms: C_13  and  C_14
REMARK    5  A    between atoms: C_15  and  C_16
REMARK    6  A    between atoms: C_16  and  C_17
REMARK    7  A    between atoms: C_19  and  C_20
REMARK    8  A    between atoms: C_20  and  C_21
REMARK    9  A    between atoms: C_20  and  O_24
REMARK   10  A    between atoms: C_20  and  C_27
REMARK   11  A    between atoms: C_27  and  O_28
REMARK                            x       y       z     vdW  Elec       q    Type
REMARK                         _______ _______ _______ _____ _____    ______ ____
ROOT
ATOM      1  O   UNL     1     -33.665  25.514   5.757  0.00  0.00    -0.289 OA
ATOM      2  O   UNL     1     -34.560  28.128   1.947  0.00  0.00    -0.270 OA
ATOM      3  N   UNL     1     -35.444  26.104   2.810  0.00  0.00    -0.269 N 
ATOM      4  C   UNL     1     -35.268  25.189   3.951  0.00  0.00    +0.141 C 
ATOM      5  C   UNL     1     -34.166  25.893   4.712  0.00  0.00    +0.198 C 
ATOM      6  C   UNL     1     -33.784  27.116   3.979  0.00  0.00    +0.123 C 
ATOM      7  C   UNL     1     -34.614  27.230   2.768  0.00  0.00    +0.255 C 
ATOM      8  C   UNL     1     -36.478  25.858   1.824  0.00  0.00    +0.116 C 
ATOM      9  C   UNL     1     -32.835  27.985   4.357  0.00  0.00    +0.141 C 
ENDROOT
BRANCH   9  10
ATOM     10  O   UNL     1     -32.100  27.803   5.511  0.00  0.00    -0.505 OA
ATOM     11  H   UNL     1     -32.519  27.489   6.289  0.00  0.00    +0.292 HD
ENDBRANCH   9  10
BRANCH   9  12
ATOM     12  C   UNL     1     -32.513  29.169   3.583  0.00  0.00    +0.037 C 
ATOM     13  C   UNL     1     -32.818  30.431   3.926  0.00  0.00    +0.003 C 
BRANCH  13  14
ATOM     14  C   UNL     1     -32.470  31.574   3.109  0.00  0.00    -0.004 C 
ATOM     15  C   UNL     1     -33.384  32.361   2.523  0.00  0.00    -0.026 C 
BRANCH  15  16
ATOM     16  C   UNL     1     -33.034  33.552   1.677  0.00  0.00    +0.026 C 
BRANCH  16  17
ATOM     17  C   UNL     1     -33.316  34.861   2.418  0.00  0.00    +0.005 C 
ATOM     18  C   UNL     1     -32.055  35.418   3.061  0.00  0.00    +0.000 C 
ENDBRANCH  16  17
ENDBRANCH  15  16
ENDBRANCH  13  14
ENDBRANCH   9  12
BRANCH   4  19
ATOM     19  C   UNL     1     -34.842  23.791   3.543  0.00  0.00    +0.066 C 
BRANCH  19  20
ATOM     20  C   UNL     1     -35.835  22.659   3.923  0.00  0.00    +0.179 C 
BRANCH  20  21
ATOM     21  C   UNL     1     -35.933  21.581   2.798  0.00  0.00    +0.035 C 
ATOM     22  C   UNL     1     -34.891  21.728   1.684  0.00  0.00    +0.003 C 
ATOM     23  C   UNL     1     -37.334  21.498   2.172  0.00  0.00    +0.003 C 
ENDBRANCH  20  21
BRANCH  20  24
ATOM     24  O   UNL     1     -37.134  23.235   4.056  0.00  0.00    -0.376 OA
ATOM     25  H   UNL     1     -37.238  23.593   4.952  0.00  0.00    +0.211 HD
ENDBRANCH  20  24
BRANCH  20  27
ATOM     26  O   UNL     1     -35.355  22.620   6.318  0.00  0.00    -0.248 OA
ATOM     27  C   UNL     1     -35.416  22.019   5.251  0.00  0.00    +0.338 C 
BRANCH  27  28
ATOM     28  O   UNL     1     -35.133  20.697   5.145  0.00  0.00    -0.479 OA
ATOM     29  H   UNL     1     -34.394  20.414   4.644  0.00  0.00    +0.295 HD
ENDBRANCH  27  28
ENDBRANCH  20  27
ENDBRANCH  19  20
ENDBRANCH   4  19
TORSDOF 11
ENDMDL
MODEL 3
REMARK VINA RESULT:      -5.6      1.801      2.504
REMARK  Name = 54691490
REMARK  11 active torsions:
REMARK  status: ('A' for Active; 'I' for Inactive)
REMARK    1  A    between atoms: C_4  and  C_19
REMARK    2  A    between atoms: C_9  and  O_10
REMARK    3  A    between atoms: C_9  and  C_12
REMARK    4  A    between atoms: C_13  and  C_14
REMARK    5  A    between atoms: C_15  and  C_16
REMARK    6  A    between atoms: C_16  and  C_17
REMARK    7  A    between atoms: C_19  and  C_20
REMARK    8  A    between atoms: C_20  and  C_21
REMARK    9  A    between atoms: C_20  and  O_24
REMARK   10  A    between atoms: C_20  and  C_27
REMARK   11  A    between atoms: C_27  and  O_28
REMARK                            x       y       z     vdW  Elec       q    Type
REMARK                         _______ _______ _______ _____ _____    ______ ____
ROOT
ATOM      1  O   UNL     1     -33.762  25.537   6.413  0.00  0.00    -0.289 OA
ATOM      2  O   UNL     1     -33.512  28.649   2.890  0.00  0.00    -0.270 OA
ATOM      3  N   UNL     1     -34.855  26.744   3.323  0.00  0.00    -0.269 N 
ATOM      4  C   UNL     1     -35.041  25.699   4.345  0.00  0.00    +0.141 C 
ATOM      5  C   UNL     1     -33.996  26.107   5.360  0.00  0.00    +0.198 C 
ATOM      6  C   UNL     1     -33.293  27.308   4.868  0.00  0.00    +0.123 C 
ATOM      7  C   UNL     1     -33.859  27.696   3.565  0.00  0.00    +0.255 C 
ATOM      8  C   UNL     1     -35.719  26.794   2.159  0.00  0.00    +0.116 C 
ATOM      9  C   UNL     1     -32.300  27.944   5.505  0.00  0.00    +0.141 C 
ENDROOT
BRANCH   9  10
ATOM     10  O   UNL     1     -31.826  27.513   6.728  0.00  0.00    -0.505 OA
ATOM     11  H   UNL     1     -32.428  27.307   7.417  0.00  0.00    +0.292 HD
ENDBRANCH   9  10
BRANCH   9  12
ATOM     12  C   UNL     1     -31.654  29.123   4.958  0.00  0.00    +0.037 C 
ATOM     13  C   UNL     1     -31.731  30.362   5.469  0.00  0.00    +0.003 C 
BRANCH  13  14
ATOM     14  C   UNL     1     -31.064  31.500   4.875  0.00  0.00    -0.004 C 
ATOM     15  C   UNL     1     -31.508  32.116   3.769  0.00  0.00    -0.026 C 
BRANCH  15  16
ATOM     16  C   UNL     1     -30.826  33.300   3.147  0.00  0.00    +0.026 C 
BRANCH  16  17
ATOM     17  C   UNL     1     -31.788  34.481   3.000  0.00  0.00    +0.005 C 
ATOM     18  C   UNL     1     -33.048  34.079   2.250  0.00  0.00    +0.000 C 
ENDBRANCH  16  17
ENDBRANCH  15  16
ENDBRANCH  13  14
ENDBRANCH   9  12
BRANCH   4  19
ATOM     19  C   UNL     1     -34.781  24.296   3.828  0.00  0.00    +0.066 C 
BRANCH  19  20
ATOM     20  C   UNL     1     -35.924  23.276   4.081  0.00  0.00    +0.179 C 
BRANCH  20  21
ATOM     21  C   UNL     1     -36.315  22.517   2.774  0.00  0.00    +0.035 C 
ATOM     22  C   UNL     1     -35.517  22.934   1.534  0.00  0.00    +0.003 C 
ATOM     23  C   UNL     1     -37.817  22.606   2.460  0.00  0.00    +0.003 C 
ENDBRANCH  20  21
BRANCH  20  24
ATOM     24  O   UNL     1     -37.080  24.000   4.500  0.00  0.00    -0.376 OA
ATOM     25  H   UNL     1     -37.375  24.581   3.781  0.00  0.00    +0.211 HD
ENDBRANCH  20  24
BRANCH  20  27
ATOM     26  O   UNL     1     -35.260  22.605   6.335  0.00  0.00    -0.248 OA
ATOM     27  C   UNL     1     -35.511  22.287   5.177  0.00  0.00    +0.338 C 
BRANCH  27  28
ATOM     28  O   UNL     1     -35.464  21.000   4.751  0.00  0.00    -0.479 OA
ATOM     29  H   UNL     1     -34.959  20.775   3.994  0.00  0.00    +0.295 HD
ENDBRANCH  27  28
ENDBRANCH  20  27
ENDBRANCH  19  20
ENDBRANCH   4  19
TORSDOF 11
ENDMDL
MODEL 4
REMARK VINA RESULT:      -5.6      2.527      4.205
REMARK  Name = 54691490
REMARK  11 active torsions:
REMARK  status: ('A' for Active; 'I' for Inactive)
REMARK    1  A    between atoms: C_4  and  C_19
REMARK    2  A    between atoms: C_9  and  O_10
REMARK    3  A    between atoms: C_9  and  C_12
REMARK    4  A    between atoms: C_13  and  C_14
REMARK    5  A    between atoms: C_15  and  C_16
REMARK    6  A    between atoms: C_16  and  C_17
REMARK    7  A    between atoms: C_19  and  C_20
REMARK    8  A    between atoms: C_20  and  C_21
REMARK    9  A    between atoms: C_20  and  O_24
REMARK   10  A    between atoms: C_20  and  C_27
REMARK   11  A    between atoms: C_27  and  O_28
REMARK                            x       y       z     vdW  Elec       q    Type
REMARK                         _______ _______ _______ _____ _____    ______ ____
ROOT
ATOM      1  O   UNL     1     -36.852  22.842   3.716  0.00  0.00    -0.289 OA
ATOM      2  O   UNL     1     -33.254  25.766   2.900  0.00  0.00    -0.270 OA
ATOM      3  N   UNL     1     -34.234  23.972   1.698  0.00  0.00    -0.269 N 
ATOM      4  C   UNL     1     -35.326  22.989   1.822  0.00  0.00    +0.141 C 
ATOM      5  C   UNL     1     -35.904  23.376   3.166  0.00  0.00    +0.198 C 
ATOM      6  C   UNL     1     -35.128  24.507   3.714  0.00  0.00    +0.123 C 
ATOM      7  C   UNL     1     -34.067  24.869   2.758  0.00  0.00    +0.255 C 
ATOM      8  C   UNL     1     -33.426  24.023   0.495  0.00  0.00    +0.116 C 
ATOM      9  C   UNL     1     -35.353  25.107   4.891  0.00  0.00    +0.141 C 
ENDROOT
BRANCH   9  10
ATOM     10  O   UNL     1     -36.373  24.704   5.730  0.00  0.00    -0.505 OA
ATOM     11  H   UNL     1     -36.804  23.885   5.583  0.00  0.00    +0.292 HD
ENDBRANCH   9  10
BRANCH   9  12
ATOM     12  C   UNL     1     -34.547  26.216   5.365  0.00  0.00    +0.037 C 
ATOM     13  C   UNL     1     -33.609  26.144   6.323  0.00  0.00    +0.003 C 
BRANCH  13  14
ATOM     14  C   UNL     1     -32.836  27.289   6.754  0.00  0.00    -0.004 C 
ATOM     15  C   UNL     1     -32.187  28.098   5.903  0.00  0.00    -0.026 C 
BRANCH  15  16
ATOM     16  C   UNL     1     -31.386  29.292   6.339  0.00  0.00    +0.026 C 
BRANCH  16  17
ATOM     17  C   UNL     1     -32.013  30.593   5.834  0.00  0.00    +0.005 C 
ATOM     18  C   UNL     1     -32.539  30.444   4.416  0.00  0.00    +0.000 C 
ENDBRANCH  16  17
ENDBRANCH  15  16
ENDBRANCH  13  14
ENDBRANCH   9  12
BRANCH   4  19
ATOM     19  C   UNL     1     -34.844  21.550   1.830  0.00  0.00    +0.066 C 
BRANCH  19  20
ATOM     20  C   UNL     1     -35.371  20.670   0.665  0.00  0.00    +0.179 C 
BRANCH  20  21
ATOM     21  C   UNL     1     -34.246  19.759   0.080  0.00  0.00    +0.035 C 
ATOM     22  C   UNL     1     -33.681  18.734   1.069  0.00  0.00    +0.003 C 
ATOM     23  C   UNL     1     -33.088  20.560  -0.533  0.00  0.00    +0.003 C 
ENDBRANCH  20  21
BRANCH  20  24
ATOM     24  O   UNL     1     -35.791  21.535  -0.389  0.00  0.00    -0.376 OA
ATOM     25  H   UNL     1     -36.680  21.871  -0.196  0.00  0.00    +0.211 HD
ENDBRANCH  20  24
BRANCH  20  27
ATOM     26  O   UNL     1     -37.276  19.163   0.402  0.00  0.00    -0.248 OA
ATOM     27  C   UNL     1     -36.558  19.826   1.142  0.00  0.00    +0.338 C 
BRANCH  27  28
ATOM     28  O   UNL     1     -36.738  19.861   2.487  0.00  0.00    -0.479 OA
ATOM     29  H   UNL     1     -36.435  19.152   3.019  0.00  0.00    +0.295 HD
ENDBRANCH  27  28
ENDBRANCH  20  27
ENDBRANCH  19  20
ENDBRANCH   4  19
TORSDOF 11
ENDMDL
MODEL 5
REMARK VINA RESULT:      -5.4      2.294      3.844
REMARK  Name = 54691490
REMARK  11 active torsions:
REMARK  status: ('A' for Active; 'I' for Inactive)
REMARK    1  A    between atoms: C_4  and  C_19
REMARK    2  A    between atoms: C_9  and  O_10
REMARK    3  A    between atoms: C_9  and  C_12
REMARK    4  A    between atoms: C_13  and  C_14
REMARK    5  A    between atoms: C_15  and  C_16
REMARK    6  A    between atoms: C_16  and  C_17
REMARK    7  A    between atoms: C_19  and  C_20
REMARK    8  A    between atoms: C_20  and  C_21
REMARK    9  A    between atoms: C_20  and  O_24
REMARK   10  A    between atoms: C_20  and  C_27
REMARK   11  A    between atoms: C_27  and  O_28
REMARK                            x       y       z     vdW  Elec       q    Type
REMARK                         _______ _______ _______ _____ _____    ______ ____
ROOT
ATOM      1  O   UNL     1     -36.501  22.505   4.363  0.00  0.00    -0.289 OA
ATOM      2  O   UNL     1     -35.603  26.968   3.166  0.00  0.00    -0.270 OA
ATOM      3  N   UNL     1     -36.948  25.246   2.245  0.00  0.00    -0.269 N 
ATOM      4  C   UNL     1     -37.315  23.841   2.495  0.00  0.00    +0.141 C 
ATOM      5  C   UNL     1     -36.523  23.561   3.754  0.00  0.00    +0.198 C 
ATOM      6  C   UNL     1     -35.769  24.775   4.126  0.00  0.00    +0.123 C 
ATOM      7  C   UNL     1     -36.057  25.838   3.147  0.00  0.00    +0.255 C 
ATOM      8  C   UNL     1     -37.545  25.975   1.143  0.00  0.00    +0.116 C 
ATOM      9  C   UNL     1     -34.956  24.892   5.185  0.00  0.00    +0.141 C 
ENDROOT
BRANCH   9  10
ATOM     10  O   UNL     1     -34.741  23.843   6.056  0.00  0.00    -0.505 OA
ATOM     11  H   UNL     1     -35.008  22.975   5.820  0.00  0.00    +0.292 HD
ENDBRANCH   9  10
BRANCH   9  12
ATOM     12  C   UNL     1     -34.246  26.120   5.488  0.00  0.00    +0.037 C 
ATOM     13  C   UNL     1     -33.364  26.285   6.487  0.00  0.00    +0.003 C 
BRANCH  13  14
ATOM     14  C   UNL     1     -32.688  27.539   6.739  0.00  0.00    -0.004 C 
ATOM     15  C   UNL     1     -31.978  28.190   5.805  0.00  0.00    -0.026 C 
BRANCH  15  16
ATOM     16  C   UNL     1     -31.276  29.494   6.055  0.00  0.00    +0.026 C 
BRANCH  16  17
ATOM     17  C   UNL     1     -32.105  30.676   5.548  0.00  0.00    +0.005 C 
ATOM     18  C   UNL     1     -32.674  30.403   4.165  0.00  0.00    +0.000 C 
ENDBRANCH  16  17
ENDBRANCH  15  16
ENDBRANCH  13  14
ENDBRANCH   9  12
BRANCH   4  19
ATOM     19  C   UNL     1     -36.906  22.902   1.374  0.00  0.00    +0.066 C 
BRANCH  19  20
ATOM     20  C   UNL     1     -37.672  21.552   1.331  0.00  0.00    +0.179 C 
BRANCH  20  21
ATOM     21  C   UNL     1     -38.472  21.389  -0.000  0.00  0.00    +0.035 C 
ATOM     22  C   UNL     1     -38.186  22.468  -1.050  0.00  0.00    +0.003 C 
ATOM     23  C   UNL     1     -39.989  21.293   0.224  0.00  0.00    +0.003 C 
ENDBRANCH  20  21
BRANCH  20  24
ATOM     24  O   UNL     1     -38.629  21.551   2.390  0.00  0.00    -0.376 OA
ATOM     25  H   UNL     1     -39.520  21.641   2.019  0.00  0.00    +0.211 HD
ENDBRANCH  20  24
BRANCH  20  27
ATOM     26  O   UNL     1     -35.952  19.960   0.642  0.00  0.00    -0.248 OA
ATOM     27  C   UNL     1     -36.693  20.388   1.520  0.00  0.00    +0.338 C 
BRANCH  27  28
ATOM     28  O   UNL     1     -36.703  19.875   2.776  0.00  0.00    -0.479 OA
ATOM     29  H   UNL     1     -36.732  20.448   3.516  0.00  0.00    +0.295 HD
ENDBRANCH  27  28
ENDBRANCH  20  27
ENDBRANCH  19  20
ENDBRANCH   4  19
TORSDOF 11
ENDMDL
MODEL 6
REMARK VINA RESULT:      -5.3      5.409      8.362
REMARK  Name = 54691490
REMARK  11 active torsions:
REMARK  status: ('A' for Active; 'I' for Inactive)
REMARK    1  A    between atoms: C_4  and  C_19
REMARK    2  A    between atoms: C_9  and  O_10
REMARK    3  A    between atoms: C_9  and  C_12
REMARK    4  A    between atoms: C_13  and  C_14
REMARK    5  A    between atoms: C_15  and  C_16
REMARK    6  A    between atoms: C_16  and  C_17
REMARK    7  A    between atoms: C_19  and  C_20
REMARK    8  A    between atoms: C_20  and  C_21
REMARK    9  A    between atoms: C_20  and  O_24
REMARK   10  A    between atoms: C_20  and  C_27
REMARK   11  A    between atoms: C_27  and  O_28
REMARK                            x       y       z     vdW  Elec       q    Type
REMARK                         _______ _______ _______ _____ _____    ______ ____
ROOT
ATOM      1  O   UNL     1     -37.344  22.435   3.275  0.00  0.00    -0.289 OA
ATOM      2  O   UNL     1     -33.628  22.070   0.408  0.00  0.00    -0.270 OA
ATOM      3  N   UNL     1     -34.838  23.891   1.325  0.00  0.00    -0.269 N 
ATOM      4  C   UNL     1     -35.990  24.156   2.205  0.00  0.00    +0.141 C 
ATOM      5  C   UNL     1     -36.412  22.745   2.551  0.00  0.00    +0.198 C 
ATOM      6  C   UNL     1     -35.516  21.794   1.863  0.00  0.00    +0.123 C 
ATOM      7  C   UNL     1     -34.519  22.550   1.086  0.00  0.00    +0.255 C 
ATOM      8  C   UNL     1     -34.052  24.989   0.795  0.00  0.00    +0.116 C 
ATOM      9  C   UNL     1     -35.597  20.458   1.934  0.00  0.00    +0.141 C 
ENDROOT
BRANCH   9  10
ATOM     10  O   UNL     1     -36.566  19.827   2.689  0.00  0.00    -0.505 OA
ATOM     11  H   UNL     1     -36.604  18.890   2.714  0.00  0.00    +0.292 HD
ENDBRANCH   9  10
BRANCH   9  12
ATOM     12  C   UNL     1     -34.679  19.585   1.228  0.00  0.00    +0.037 C 
ATOM     13  C   UNL     1     -33.599  18.992   1.762  0.00  0.00    +0.003 C 
BRANCH  13  14
ATOM     14  C   UNL     1     -32.718  18.131   1.003  0.00  0.00    -0.004 C 
ATOM     15  C   UNL     1     -31.428  18.418   0.775  0.00  0.00    -0.026 C 
BRANCH  15  16
ATOM     16  C   UNL     1     -30.504  17.529  -0.007  0.00  0.00    +0.026 C 
BRANCH  16  17
ATOM     17  C   UNL     1     -29.401  18.339  -0.691  0.00  0.00    +0.005 C 
ATOM     18  C   UNL     1     -29.644  19.834  -0.553  0.00  0.00    +0.000 C 
ENDBRANCH  16  17
ENDBRANCH  15  16
ENDBRANCH  13  14
ENDBRANCH   9  12
BRANCH   4  19
ATOM     19  C   UNL     1     -37.115  24.908   1.517  0.00  0.00    +0.066 C 
BRANCH  19  20
ATOM     20  C   UNL     1     -37.583  26.201   2.238  0.00  0.00    +0.179 C 
BRANCH  20  21
ATOM     21  C   UNL     1     -37.671  27.408   1.251  0.00  0.00    +0.035 C 
ATOM     22  C   UNL     1     -37.921  27.017  -0.209  0.00  0.00    +0.003 C 
ATOM     23  C   UNL     1     -36.442  28.328   1.323  0.00  0.00    +0.003 C 
ENDBRANCH  20  21
BRANCH  20  24
ATOM     24  O   UNL     1     -36.604  26.541   3.219  0.00  0.00    -0.376 OA
ATOM     25  H   UNL     1     -36.978  27.189   3.837  0.00  0.00    +0.211 HD
ENDBRANCH  20  24
BRANCH  20  27
ATOM     26  O   UNL     1     -39.963  26.568   2.647  0.00  0.00    -0.248 OA
ATOM     27  C   UNL     1     -38.934  25.960   2.920  0.00  0.00    +0.338 C 
BRANCH  27  28
ATOM     28  O   UNL     1     -38.896  24.981   3.858  0.00  0.00    -0.479 OA
ATOM     29  H   UNL     1     -38.143  24.427   3.927  0.00  0.00    +0.295 HD
ENDBRANCH  27  28
ENDBRANCH  20  27
ENDBRANCH  19  20
ENDBRANCH   4  19
TORSDOF 11
ENDMDL
MODEL 7
REMARK VINA RESULT:      -5.3      2.243      3.626
REMARK  Name = 54691490
REMARK  11 active torsions:
REMARK  status: ('A' for Active; 'I' for Inactive)
REMARK    1  A    between atoms: C_4  and  C_19
REMARK    2  A    between atoms: C_9  and  O_10
REMARK    3  A    between atoms: C_9  and  C_12
REMARK    4  A    between atoms: C_13  and  C_14
REMARK    5  A    between atoms: C_15  and  C_16
REMARK    6  A    between atoms: C_16  and  C_17
REMARK    7  A    between atoms: C_19  and  C_20
REMARK    8  A    between atoms: C_20  and  C_21
REMARK    9  A    between atoms: C_20  and  O_24
REMARK   10  A    between atoms: C_20  and  C_27
REMARK   11  A    between atoms: C_27  and  O_28
REMARK                            x       y       z     vdW  Elec       q    Type
REMARK                         _______ _______ _______ _____ _____    ______ ____
ROOT
ATOM      1  O   UNL     1     -37.004  23.402   4.235  0.00  0.00    -0.289 OA
ATOM      2  O   UNL     1     -33.135  25.576   2.667  0.00  0.00    -0.270 OA
ATOM      3  N   UNL     1     -34.499  23.823   1.838  0.00  0.00    -0.269 N 
ATOM      4  C   UNL     1     -35.701  23.053   2.206  0.00  0.00    +0.141 C 
ATOM      5  C   UNL     1     -36.058  23.700   3.526  0.00  0.00    +0.198 C 
ATOM      6  C   UNL     1     -35.067  24.752   3.828  0.00  0.00    +0.123 C 
ATOM      7  C   UNL     1     -34.081  24.812   2.735  0.00  0.00    +0.255 C 
ATOM      8  C   UNL     1     -33.836  23.586   0.570  0.00  0.00    +0.116 C 
ATOM      9  C   UNL     1     -35.065  25.530   4.920  0.00  0.00    +0.141 C 
ENDROOT
BRANCH   9  10
ATOM     10  O   UNL     1     -36.029  25.409   5.901  0.00  0.00    -0.505 OA
ATOM     11  H   UNL     1     -36.190  24.576   6.300  0.00  0.00    +0.292 HD
ENDBRANCH   9  10
BRANCH   9  12
ATOM     12  C   UNL     1     -34.055  26.546   5.149  0.00  0.00    +0.037 C 
ATOM     13  C   UNL     1     -33.312  26.670   6.261  0.00  0.00    +0.003 C 
BRANCH  13  14
ATOM     14  C   UNL     1     -32.319  27.709   6.430  0.00  0.00    -0.004 C 
ATOM     15  C   UNL     1     -31.997  28.580   5.462  0.00  0.00    -0.026 C 
BRANCH  15  16
ATOM     16  C   UNL     1     -30.971  29.664   5.629  0.00  0.00    +0.026 C 
BRANCH  16  17
ATOM     17  C   UNL     1     -30.171  29.477   6.919  0.00  0.00    +0.005 C 
ATOM     18  C   UNL     1     -28.678  29.396   6.640  0.00  0.00    +0.000 C 
ENDBRANCH  16  17
ENDBRANCH  15  16
ENDBRANCH  13  14
ENDBRANCH   9  12
BRANCH   4  19
ATOM     19  C   UNL     1     -35.437  21.569   2.380  0.00  0.00    +0.066 C 
BRANCH  19  20
ATOM     20  C   UNL     1     -36.449  20.630   1.667  0.00  0.00    +0.179 C 
BRANCH  20  21
ATOM     21  C   UNL     1     -37.638  21.432   1.049  0.00  0.00    +0.035 C 
ATOM     22  C   UNL     1     -38.902  21.461   1.915  0.00  0.00    +0.003 C 
ATOM     23  C   UNL     1     -38.006  20.957  -0.365  0.00  0.00    +0.003 C 
ENDBRANCH  20  21
BRANCH  20  24
ATOM     24  O   UNL     1     -37.006  19.754   2.646  0.00  0.00    -0.376 OA
ATOM     25  H   UNL     1     -36.319  19.150   2.967  0.00  0.00    +0.211 HD
ENDBRANCH  20  24
BRANCH  20  27
ATOM     26  O   UNL     1     -34.896  20.265  -0.184  0.00  0.00    -0.248 OA
ATOM     27  C   UNL     1     -35.731  19.809   0.590  0.00  0.00    +0.338 C 
BRANCH  27  28
ATOM     28  O   UNL     1     -36.095  18.502   0.579  0.00  0.00    -0.479 OA
ATOM     29  H   UNL     1     -36.637  18.172  -0.110  0.00  0.00    +0.295 HD
ENDBRANCH  27  28
ENDBRANCH  20  27
ENDBRANCH  19  20
ENDBRANCH   4  19
TORSDOF 11
ENDMDL
MODEL 8
REMARK VINA RESULT:      -5.3      6.844      9.211
REMARK  Name = 54691490
REMARK  11 active torsions:
REMARK  status: ('A' for Active; 'I' for Inactive)
REMARK    1  A    between atoms: C_4  and  C_19
REMARK    2  A    between atoms: C_9  and  O_10
REMARK    3  A    between atoms: C_9  and  C_12
REMARK    4  A    between atoms: C_13  and  C_14
REMARK    5  A    between atoms: C_15  and  C_16
REMARK    6  A    between atoms: C_16  and  C_17
REMARK    7  A    between atoms: C_19  and  C_20
REMARK    8  A    between atoms: C_20  and  C_21
REMARK    9  A    between atoms: C_20  and  O_24
REMARK   10  A    between atoms: C_20  and  C_27
REMARK   11  A    between atoms: C_27  and  O_28
REMARK                            x       y       z     vdW  Elec       q    Type
REMARK                         _______ _______ _______ _____ _____    ______ ____
ROOT
ATOM      1  O   UNL     1     -37.502  24.104   3.720  0.00  0.00    -0.289 OA
ATOM      2  O   UNL     1     -41.292  23.736   0.953  0.00  0.00    -0.270 OA
ATOM      3  N   UNL     1     -39.512  22.278   1.523  0.00  0.00    -0.269 N 
ATOM      4  C   UNL     1     -38.288  22.253   2.344  0.00  0.00    +0.141 C 
ATOM      5  C   UNL     1     -38.323  23.640   2.947  0.00  0.00    +0.198 C 
ATOM      6  C   UNL     1     -39.514  24.352   2.442  0.00  0.00    +0.123 C 
ATOM      7  C   UNL     1     -40.258  23.462   1.534  0.00  0.00    +0.255 C 
ATOM      8  C   UNL     1     -39.931  21.096   0.795  0.00  0.00    +0.116 C 
ATOM      9  C   UNL     1     -39.864  25.607   2.760  0.00  0.00    +0.141 C 
ENDROOT
BRANCH   9  10
ATOM     10  O   UNL     1     -39.108  26.376   3.623  0.00  0.00    -0.505 OA
ATOM     11  H   UNL     1     -39.464  27.168   3.977  0.00  0.00    +0.292 HD
ENDBRANCH   9  10
BRANCH   9  12
ATOM     12  C   UNL     1     -41.052  26.243   2.223  0.00  0.00    +0.037 C 
ATOM     13  C   UNL     1     -42.029  26.809   2.948  0.00  0.00    +0.003 C 
BRANCH  13  14
ATOM     14  C   UNL     1     -43.193  27.428   2.352  0.00  0.00    -0.004 C 
ATOM     15  C   UNL     1     -43.540  28.705   2.576  0.00  0.00    -0.026 C 
BRANCH  15  16
ATOM     16  C   UNL     1     -44.743  29.359   1.959  0.00  0.00    +0.026 C 
BRANCH  16  17
ATOM     17  C   UNL     1     -45.594  30.065   3.017  0.00  0.00    +0.005 C 
ATOM     18  C   UNL     1     -45.321  29.515   4.408  0.00  0.00    +0.000 C 
ENDBRANCH  16  17
ENDBRANCH  15  16
ENDBRANCH  13  14
ENDBRANCH   9  12
BRANCH   4  19
ATOM     19  C   UNL     1     -37.022  22.043   1.534  0.00  0.00    +0.066 C 
BRANCH  19  20
ATOM     20  C   UNL     1     -36.031  20.999   2.116  0.00  0.00    +0.179 C 
BRANCH  20  21
ATOM     21  C   UNL     1     -34.927  20.617   1.080  0.00  0.00    +0.035 C 
ATOM     22  C   UNL     1     -35.452  20.320  -0.328  0.00  0.00    +0.003 C 
ATOM     23  C   UNL     1     -34.049  19.446   1.549  0.00  0.00    +0.003 C 
ENDBRANCH  20  21
BRANCH  20  24
ATOM     24  O   UNL     1     -36.760  19.806   2.401  0.00  0.00    -0.376 OA
ATOM     25  H   UNL     1     -36.195  19.035   2.234  0.00  0.00    +0.211 HD
ENDBRANCH  20  24
BRANCH  20  27
ATOM     26  O   UNL     1     -35.270  20.885   4.435  0.00  0.00    -0.248 OA
ATOM     27  C   UNL     1     -35.400  21.538   3.405  0.00  0.00    +0.338 C 
BRANCH  27  28
ATOM     28  O   UNL     1     -34.972  22.821   3.299  0.00  0.00    -0.479 OA
ATOM     29  H   UNL     1     -34.066  23.001   3.146  0.00  0.00    +0.295 HD
ENDBRANCH  27  28
ENDBRANCH  20  27
ENDBRANCH  19  20
ENDBRANCH   4  19
TORSDOF 11
ENDMDL
MODEL 9
REMARK VINA RESULT:      -5.2      6.661      9.771
REMARK  Name = 54691490
REMARK  11 active torsions:
REMARK  status: ('A' for Active; 'I' for Inactive)
REMARK    1  A    between atoms: C_4  and  C_19
REMARK    2  A    between atoms: C_9  and  O_10
REMARK    3  A    between atoms: C_9  and  C_12
REMARK    4  A    between atoms: C_13  and  C_14
REMARK    5  A    between atoms: C_15  and  C_16
REMARK    6  A    between atoms: C_16  and  C_17
REMARK    7  A    between atoms: C_19  and  C_20
REMARK    8  A    between atoms: C_20  and  C_21
REMARK    9  A    between atoms: C_20  and  O_24
REMARK   10  A    between atoms: C_20  and  C_27
REMARK   11  A    between atoms: C_27  and  O_28
REMARK                            x       y       z     vdW  Elec       q    Type
REMARK                         _______ _______ _______ _____ _____    ______ ____
ROOT
ATOM      1  O   UNL     1     -37.733  24.363   3.868  0.00  0.00    -0.289 OA
ATOM      2  O   UNL     1     -41.244  23.634   0.819  0.00  0.00    -0.270 OA
ATOM      3  N   UNL     1     -39.407  22.336   1.568  0.00  0.00    -0.269 N 
ATOM      4  C   UNL     1     -38.257  22.426   2.485  0.00  0.00    +0.141 C 
ATOM      5  C   UNL     1     -38.450  23.819   3.045  0.00  0.00    +0.198 C 
ATOM      6  C   UNL     1     -39.648  24.422   2.428  0.00  0.00    +0.123 C 
ATOM      7  C   UNL     1     -40.242  23.456   1.488  0.00  0.00    +0.255 C 
ATOM      8  C   UNL     1     -39.673  21.109   0.842  0.00  0.00    +0.116 C 
ATOM      9  C   UNL     1     -40.119  25.651   2.682  0.00  0.00    +0.141 C 
ENDROOT
BRANCH   9  10
ATOM     10  O   UNL     1     -39.500  26.496   3.581  0.00  0.00    -0.505 OA
ATOM     11  H   UNL     1     -38.673  26.258   3.954  0.00  0.00    +0.292 HD
ENDBRANCH   9  10
BRANCH   9  12
ATOM     12  C   UNL     1     -41.306  26.178   2.035  0.00  0.00    +0.037 C 
ATOM     13  C   UNL     1     -42.464  26.469   2.647  0.00  0.00    +0.003 C 
BRANCH  13  14
ATOM     14  C   UNL     1     -43.615  26.993   1.944  0.00  0.00    -0.004 C 
ATOM     15  C   UNL     1     -44.659  26.234   1.578  0.00  0.00    -0.026 C 
BRANCH  15  16
ATOM     16  C   UNL     1     -45.861  26.768   0.853  0.00  0.00    +0.026 C 
BRANCH  16  17
ATOM     17  C   UNL     1     -45.573  26.948  -0.639  0.00  0.00    +0.005 C 
ATOM     18  C   UNL     1     -44.990  25.683  -1.249  0.00  0.00    +0.000 C 
ENDBRANCH  16  17
ENDBRANCH  15  16
ENDBRANCH  13  14
ENDBRANCH   9  12
BRANCH   4  19
ATOM     19  C   UNL     1     -36.917  22.302   1.785  0.00  0.00    +0.066 C 
BRANCH  19  20
ATOM     20  C   UNL     1     -35.951  21.246   2.388  0.00  0.00    +0.179 C 
BRANCH  20  21
ATOM     21  C   UNL     1     -34.770  20.928   1.418  0.00  0.00    +0.035 C 
ATOM     22  C   UNL     1     -35.109  21.083  -0.068  0.00  0.00    +0.003 C 
ATOM     23  C   UNL     1     -34.162  19.536   1.654  0.00  0.00    +0.003 C 
ENDBRANCH  20  21
BRANCH  20  24
ATOM     24  O   UNL     1     -36.678  20.030   2.565  0.00  0.00    -0.376 OA
ATOM     25  H   UNL     1     -36.056  19.288   2.619  0.00  0.00    +0.211 HD
ENDBRANCH  20  24
BRANCH  20  27
ATOM     26  O   UNL     1     -34.998  22.863   3.952  0.00  0.00    -0.248 OA
ATOM     27  C   UNL     1     -35.423  21.732   3.743  0.00  0.00    +0.338 C 
BRANCH  27  28
ATOM     28  O   UNL     1     -35.488  20.788   4.715  0.00  0.00    -0.479 OA
ATOM     29  H   UNL     1     -36.062  20.054   4.618  0.00  0.00    +0.295 HD
ENDBRANCH  27  28
ENDBRANCH  20  27
ENDBRANCH  19  20
ENDBRANCH   4  19
TORSDOF 11
ENDMDL
