MODEL 1
REMARK VINA RESULT:      -5.7      0.000      0.000
REMARK  Name = 5492682
REMARK  10 active torsions:
REMARK  status: ('A' for Active; 'I' for Inactive)
REMARK    1  A    between atoms: C_1  and  C_4
REMARK    2  A    between atoms: C_1  and  C_12
REMARK    3  A    between atoms: C_1  and  C_20
REMARK    4  A    between atoms: N_3  and  CA_6
REMARK    5  A    between atoms: CA_6  and  C_9
REMARK    6  A    between atoms: C_9  and  O_10
REMARK    7  A    between atoms: C_12  and  C_14
REMARK    8  A    between atoms: C_20  and  S_21
REMARK    9  A    between atoms: S_21  and  C_23
REMARK   10  A    between atoms: C_23  and  C_24
REMARK                            x       y       z     vdW  Elec       q    Type
REMARK                         _______ _______ _______ _____ _____    ______ ____
ROOT
ATOM      1  C   UNL     1     -36.948  21.587   2.028  0.00  0.00    +0.092 C 
ENDROOT
BRANCH   1   4
ATOM      2  O   UNL     1     -37.703  23.445   3.364  0.00  0.00    -0.275 OA
ATOM      3  N   UNL     1     -35.933  22.192   4.182  0.00  0.00    -0.297 N 
ATOM      4  C   ACE A   0     -36.912  22.508   3.257  0.00  0.00    +0.224 C 
ATOM      5  H   UNL     1     -35.349  21.420   4.003  0.00  0.00    +0.150 HD
BRANCH   3   6
ATOM      6  CA  UNL     1     -35.728  22.942   5.400  0.00  0.00    +0.171 C 
ATOM      7  CB  UNL     1     -34.955  22.114   6.415  0.00  0.00    +0.033 C 
BRANCH   6   9
ATOM      8  OXT UNL     1     -33.802  24.332   4.950  0.00  0.00    -0.248 OA
ATOM      9  C   UNL     1     -35.011  24.256   5.137  0.00  0.00    +0.332 C 
BRANCH   9  10
ATOM     10  O   UNL     1     -35.814  25.349   5.137  0.00  0.00    -0.479 OA
ATOM     11  H   UNL     1     -36.172  25.666   5.943  0.00  0.00    +0.295 HD
ENDBRANCH   9  10
ENDBRANCH   6   9
ENDBRANCH   3   6
ENDBRANCH   1   4
BRANCH   1  12
ATOM     12  C   UNL     1     -35.888  22.028   0.969  0.00  0.00    +0.032 C 
ATOM     13  C   UNL     1     -35.391  23.462   1.222  0.00  0.00    +0.005 C 
BRANCH  12  14
ATOM     14  C   UNL     1     -34.690  21.090   0.903  0.00  0.00    -0.022 C 
ATOM     15  C   UNL     1     -33.603  21.404   0.088  0.00  0.00    -0.004 C 
ATOM     16  C   UNL     1     -34.679  19.918   1.660  0.00  0.00    -0.004 C 
ATOM     17  C   UNL     1     -32.505  20.546   0.028  0.00  0.00    -0.000 C 
ATOM     18  C   UNL     1     -33.581  19.059   1.600  0.00  0.00    -0.000 C 
ATOM     19  C   UNL     1     -32.495  19.373   0.784  0.00  0.00    -0.000 C 
ENDBRANCH  12  14
ENDBRANCH   1  12
BRANCH   1  20
ATOM     20  C   UNL     1     -38.369  21.519   1.426  0.00  0.00    +0.075 C 
BRANCH  20  21
ATOM     21  S   UNL     1     -38.355  21.553  -0.396  0.00  0.00    -0.072 S 
BRANCH  21  23
ATOM     22  O   UNL     1     -39.611  19.266  -0.738  0.00  0.00    -0.280 OA
ATOM     23  C   UNL     1     -38.527  19.836  -0.739  0.00  0.00    +0.221 C 
BRANCH  23  24
ATOM     24  C   UNL     1     -37.281  19.072  -0.999  0.00  0.00    +0.045 C 
ATOM     25  C   UNL     1     -36.350  19.547  -1.923  0.00  0.00    +0.004 C 
ATOM     26  C   UNL     1     -37.040  17.877  -0.319  0.00  0.00    +0.004 C 
ATOM     27  C   UNL     1     -35.180  18.828  -2.167  0.00  0.00    +0.000 C 
ATOM     28  C   UNL     1     -35.870  17.160  -0.562  0.00  0.00    +0.000 C 
ATOM     29  C   UNL     1     -34.939  17.635  -1.486  0.00  0.00    +0.000 C 
ENDBRANCH  23  24
ENDBRANCH  21  23
ENDBRANCH  20  21
ENDBRANCH   1  20
TORSDOF 10
ENDMDL
MODEL 2
REMARK VINA RESULT:      -5.6      1.283      2.090
REMARK  Name = 5492682
REMARK  10 active torsions:
REMARK  status: ('A' for Active; 'I' for Inactive)
REMARK    1  A    between atoms: C_1  and  C_4
REMARK    2  A    between atoms: C_1  and  C_12
REMARK    3  A    between atoms: C_1  and  C_20
REMARK    4  A    between atoms: N_3  and  CA_6
REMARK    5  A    between atoms: CA_6  and  C_9
REMARK    6  A    between atoms: C_9  and  O_10
REMARK    7  A    between atoms: C_12  and  C_14
REMARK    8  A    between atoms: C_20  and  S_21
REMARK    9  A    between atoms: S_21  and  C_23
REMARK   10  A    between atoms: C_23  and  C_24
REMARK                            x       y       z     vdW  Elec       q    Type
REMARK                         _______ _______ _______ _____ _____    ______ ____
ROOT
ATOM      1  C   UNL     1     -35.986  20.704   1.792  0.00  0.00    +0.092 C 
ENDROOT
BRANCH   1   4
ATOM      2  O   UNL     1     -37.147  22.674   2.550  0.00  0.00    -0.275 OA
ATOM      3  N   UNL     1     -35.557  21.760   3.969  0.00  0.00    -0.297 N 
ATOM      4  C   ACE A   0     -36.301  21.817   2.803  0.00  0.00    +0.224 C 
ATOM      5  H   UNL     1     -34.904  21.032   4.074  0.00  0.00    +0.150 HD
BRANCH   3   6
ATOM      6  CA  UNL     1     -35.697  22.721   5.039  0.00  0.00    +0.171 C 
ATOM      7  CB  UNL     1     -35.147  22.156   6.340  0.00  0.00    +0.033 C 
BRANCH   6   9
ATOM      8  OXT UNL     1     -33.815  24.229   4.872  0.00  0.00    -0.248 OA
ATOM      9  C   UNL     1     -35.014  24.037   4.705  0.00  0.00    +0.332 C 
BRANCH   9  10
ATOM     10  O   UNL     1     -35.840  24.995   4.218  0.00  0.00    -0.479 OA
ATOM     11  H   UNL     1     -35.531  25.875   4.122  0.00  0.00    +0.295 HD
ENDBRANCH   9  10
ENDBRANCH   6   9
ENDBRANCH   3   6
ENDBRANCH   1   4
BRANCH   1  12
ATOM     12  C   UNL     1     -34.889  21.165   0.779  0.00  0.00    +0.032 C 
ATOM     13  C   UNL     1     -34.438  22.611   1.045  0.00  0.00    +0.005 C 
BRANCH  12  14
ATOM     14  C   UNL     1     -33.667  20.256   0.774  0.00  0.00    -0.022 C 
ATOM     15  C   UNL     1     -33.663  19.088   1.536  0.00  0.00    -0.004 C 
ATOM     16  C   UNL     1     -32.552  20.590   0.004  0.00  0.00    -0.004 C 
ATOM     17  C   UNL     1     -32.544  18.255   1.530  0.00  0.00    -0.000 C 
ATOM     18  C   UNL     1     -31.433  19.756  -0.002  0.00  0.00    -0.000 C 
ATOM     19  C   UNL     1     -31.430  18.590   0.762  0.00  0.00    -0.000 C 
ENDBRANCH  12  14
ENDBRANCH   1  12
BRANCH   1  20
ATOM     20  C   UNL     1     -37.266  20.226   1.074  0.00  0.00    +0.075 C 
BRANCH  20  21
ATOM     21  S   UNL     1     -36.984  19.867  -0.691  0.00  0.00    -0.072 S 
BRANCH  21  23
ATOM     22  O   UNL     1     -37.837  17.408  -0.303  0.00  0.00    -0.280 OA
ATOM     23  C   UNL     1     -36.891  18.111  -0.639  0.00  0.00    +0.221 C 
BRANCH  23  24
ATOM     24  C   UNL     1     -35.586  17.493  -0.987  0.00  0.00    +0.045 C 
ATOM     25  C   UNL     1     -35.192  16.304  -0.374  0.00  0.00    +0.004 C 
ATOM     26  C   UNL     1     -34.755  18.103  -1.927  0.00  0.00    +0.004 C 
ATOM     27  C   UNL     1     -33.966  15.724  -0.701  0.00  0.00    +0.000 C 
ATOM     28  C   UNL     1     -33.530  17.523  -2.254  0.00  0.00    +0.000 C 
ATOM     29  C   UNL     1     -33.135  16.333  -1.641  0.00  0.00    +0.000 C 
ENDBRANCH  23  24
ENDBRANCH  21  23
ENDBRANCH  20  21
ENDBRANCH   1  20
TORSDOF 10
ENDMDL
MODEL 3
REMARK VINA RESULT:      -5.6      1.269      1.672
REMARK  Name = 5492682
REMARK  10 active torsions:
REMARK  status: ('A' for Active; 'I' for Inactive)
REMARK    1  A    between atoms: C_1  and  C_4
REMARK    2  A    between atoms: C_1  and  C_12
REMARK    3  A    between atoms: C_1  and  C_20
REMARK    4  A    between atoms: N_3  and  CA_6
REMARK    5  A    between atoms: CA_6  and  C_9
REMARK    6  A    between atoms: C_9  and  O_10
REMARK    7  A    between atoms: C_12  and  C_14
REMARK    8  A    between atoms: C_20  and  S_21
REMARK    9  A    between atoms: S_21  and  C_23
REMARK   10  A    between atoms: C_23  and  C_24
REMARK                            x       y       z     vdW  Elec       q    Type
REMARK                         _______ _______ _______ _____ _____    ______ ____
ROOT
ATOM      1  C   UNL     1     -35.940  20.826   2.021  0.00  0.00    +0.092 C 
ENDROOT
BRANCH   1   4
ATOM      2  O   UNL     1     -35.119  21.038   4.276  0.00  0.00    -0.275 OA
ATOM      3  N   UNL     1     -36.127  22.898   3.328  0.00  0.00    -0.297 N 
ATOM      4  C   ACE A   0     -35.678  21.589   3.328  0.00  0.00    +0.224 C 
ATOM      5  H   UNL     1     -36.563  23.245   2.516  0.00  0.00    +0.150 HD
BRANCH   3   6
ATOM      6  CA  UNL     1     -35.986  23.779   4.464  0.00  0.00    +0.171 C 
ATOM      7  CB  UNL     1     -34.588  24.378   4.507  0.00  0.00    +0.033 C 
BRANCH   6   9
ATOM      8  OXT UNL     1     -38.136  24.751   3.937  0.00  0.00    -0.248 OA
ATOM      9  C   UNL     1     -37.032  24.882   4.454  0.00  0.00    +0.332 C 
BRANCH   9  10
ATOM     10  O   UNL     1     -36.645  26.034   5.054  0.00  0.00    -0.479 OA
ATOM     11  H   UNL     1     -36.832  26.858   4.649  0.00  0.00    +0.295 HD
ENDBRANCH   9  10
ENDBRANCH   6   9
ENDBRANCH   3   6
ENDBRANCH   1   4
BRANCH   1  12
ATOM     12  C   UNL     1     -34.911  21.237   0.919  0.00  0.00    +0.032 C 
ATOM     13  C   UNL     1     -34.402  22.674   1.123  0.00  0.00    +0.005 C 
BRANCH  12  14
ATOM     14  C   UNL     1     -33.718  20.293   0.839  0.00  0.00    -0.022 C 
ATOM     15  C   UNL     1     -32.606  20.638   0.072  0.00  0.00    -0.004 C 
ATOM     16  C   UNL     1     -33.737  19.084   1.535  0.00  0.00    -0.004 C 
ATOM     17  C   UNL     1     -31.513  19.775  -0.001  0.00  0.00    -0.000 C 
ATOM     18  C   UNL     1     -32.644  18.220   1.463  0.00  0.00    -0.000 C 
ATOM     19  C   UNL     1     -31.533  18.566   0.694  0.00  0.00    -0.000 C 
ENDBRANCH  12  14
ENDBRANCH   1  12
BRANCH   1  20
ATOM     20  C   UNL     1     -37.397  21.017   1.547  0.00  0.00    +0.075 C 
BRANCH  20  21
ATOM     21  S   UNL     1     -37.533  21.105  -0.269  0.00  0.00    -0.072 S 
BRANCH  21  23
ATOM     22  O   UNL     1     -38.901  18.880  -0.588  0.00  0.00    -0.280 OA
ATOM     23  C   UNL     1     -37.796  19.406  -0.642  0.00  0.00    +0.221 C 
BRANCH  23  24
ATOM     24  C   UNL     1     -36.601  18.599  -0.996  0.00  0.00    +0.045 C 
ATOM     25  C   UNL     1     -35.691  19.076  -1.940  0.00  0.00    +0.004 C 
ATOM     26  C   UNL     1     -36.387  17.363  -0.384  0.00  0.00    +0.004 C 
ATOM     27  C   UNL     1     -34.569  18.318  -2.272  0.00  0.00    +0.000 C 
ATOM     28  C   UNL     1     -35.264  16.606  -0.716  0.00  0.00    +0.000 C 
ATOM     29  C   UNL     1     -34.355  17.083  -1.660  0.00  0.00    +0.000 C 
ENDBRANCH  23  24
ENDBRANCH  21  23
ENDBRANCH  20  21
ENDBRANCH   1  20
TORSDOF 10
ENDMDL
MODEL 4
REMARK VINA RESULT:      -5.4      2.918      5.922
REMARK  Name = 5492682
REMARK  10 active torsions:
REMARK  status: ('A' for Active; 'I' for Inactive)
REMARK    1  A    between atoms: C_1  and  C_4
REMARK    2  A    between atoms: C_1  and  C_12
REMARK    3  A    between atoms: C_1  and  C_20
REMARK    4  A    between atoms: N_3  and  CA_6
REMARK    5  A    between atoms: CA_6  and  C_9
REMARK    6  A    between atoms: C_9  and  O_10
REMARK    7  A    between atoms: C_12  and  C_14
REMARK    8  A    between atoms: C_20  and  S_21
REMARK    9  A    between atoms: S_21  and  C_23
REMARK   10  A    between atoms: C_23  and  C_24
REMARK                            x       y       z     vdW  Elec       q    Type
REMARK                         _______ _______ _______ _____ _____    ______ ____
ROOT
ATOM      1  C   UNL     1     -35.340  22.429   2.019  0.00  0.00    +0.092 C 
ENDROOT
BRANCH   1   4
ATOM      2  O   UNL     1     -35.343  24.765   1.431  0.00  0.00    -0.275 OA
ATOM      3  N   UNL     1     -37.388  23.782   1.907  0.00  0.00    -0.297 N 
ATOM      4  C   ACE A   0     -36.013  23.783   1.750  0.00  0.00    +0.224 C 
ATOM      5  H   UNL     1     -37.830  22.942   2.165  0.00  0.00    +0.150 HD
BRANCH   3   6
ATOM      6  CA  UNL     1     -38.203  24.958   1.710  0.00  0.00    +0.171 C 
ATOM      7  CB  UNL     1     -39.074  24.805   0.472  0.00  0.00    +0.033 C 
BRANCH   6   9
ATOM      8  OXT UNL     1     -39.630  24.382   3.575  0.00  0.00    -0.248 OA
ATOM      9  C   UNL     1     -39.064  25.256   2.927  0.00  0.00    +0.332 C 
BRANCH   9  10
ATOM     10  O   UNL     1     -39.172  26.571   3.236  0.00  0.00    -0.479 OA
ATOM     11  H   UNL     1     -39.738  27.125   2.736  0.00  0.00    +0.295 HD
ENDBRANCH   9  10
ENDBRANCH   6   9
ENDBRANCH   3   6
ENDBRANCH   1   4
BRANCH   1  12
ATOM     12  C   UNL     1     -35.223  21.592   0.705  0.00  0.00    +0.032 C 
ATOM     13  C   UNL     1     -35.153  22.494  -0.540  0.00  0.00    +0.005 C 
BRANCH  12  14
ATOM     14  C   UNL     1     -34.026  20.650   0.706  0.00  0.00    -0.022 C 
ATOM     15  C   UNL     1     -34.117  19.408   1.333  0.00  0.00    -0.004 C 
ATOM     16  C   UNL     1     -32.840  21.029   0.076  0.00  0.00    -0.004 C 
ATOM     17  C   UNL     1     -33.022  18.545   1.333  0.00  0.00    -0.000 C 
ATOM     18  C   UNL     1     -31.744  20.165   0.076  0.00  0.00    -0.000 C 
ATOM     19  C   UNL     1     -31.836  18.924   0.705  0.00  0.00    -0.000 C 
ENDBRANCH  12  14
ENDBRANCH   1  12
BRANCH   1  20
ATOM     20  C   UNL     1     -36.079  21.652   3.131  0.00  0.00    +0.075 C 
BRANCH  20  21
ATOM     21  S   UNL     1     -34.992  21.249   4.538  0.00  0.00    -0.072 S 
BRANCH  21  23
ATOM     22  O   UNL     1     -36.053  22.213   6.746  0.00  0.00    -0.280 OA
ATOM     23  C   UNL     1     -35.502  22.482   5.685  0.00  0.00    +0.221 C 
BRANCH  23  24
ATOM     24  C   UNL     1     -35.272  23.898   5.300  0.00  0.00    +0.045 C 
ATOM     25  C   UNL     1     -36.314  24.822   5.383  0.00  0.00    +0.004 C 
ATOM     26  C   UNL     1     -34.013  24.304   4.856  0.00  0.00    +0.004 C 
ATOM     27  C   UNL     1     -36.097  26.151   5.021  0.00  0.00    +0.000 C 
ATOM     28  C   UNL     1     -33.797  25.633   4.495  0.00  0.00    +0.000 C 
ATOM     29  C   UNL     1     -34.839  26.558   4.577  0.00  0.00    +0.000 C 
ENDBRANCH  23  24
ENDBRANCH  21  23
ENDBRANCH  20  21
ENDBRANCH   1  20
TORSDOF 10
ENDMDL
MODEL 5
REMARK VINA RESULT:      -5.4      1.519      2.365
REMARK  Name = 5492682
REMARK  10 active torsions:
REMARK  status: ('A' for Active; 'I' for Inactive)
REMARK    1  A    between atoms: C_1  and  C_4
REMARK    2  A    between atoms: C_1  and  C_12
REMARK    3  A    between atoms: C_1  and  C_20
REMARK    4  A    between atoms: N_3  and  CA_6
REMARK    5  A    between atoms: CA_6  and  C_9
REMARK    6  A    between atoms: C_9  and  O_10
REMARK    7  A    between atoms: C_12  and  C_14
REMARK    8  A    between atoms: C_20  and  S_21
REMARK    9  A    between atoms: S_21  and  C_23
REMARK   10  A    between atoms: C_23  and  C_24
REMARK                            x       y       z     vdW  Elec       q    Type
REMARK                         _______ _______ _______ _____ _____    ______ ____
ROOT
ATOM      1  C   UNL     1     -35.934  21.236   2.230  0.00  0.00    +0.092 C 
ENDROOT
BRANCH   1   4
ATOM      2  O   UNL     1     -35.242  22.545   4.130  0.00  0.00    -0.275 OA
ATOM      3  N   UNL     1     -36.947  23.398   2.811  0.00  0.00    -0.297 N 
ATOM      4  C   ACE A   0     -35.994  22.457   3.160  0.00  0.00    +0.224 C 
ATOM      5  H   UNL     1     -37.500  23.232   2.014  0.00  0.00    +0.150 HD
BRANCH   3   6
ATOM      6  CA  UNL     1     -37.168  24.611   3.564  0.00  0.00    +0.171 C 
ATOM      7  CB  UNL     1     -36.241  25.717   3.081  0.00  0.00    +0.033 C 
BRANCH   6   9
ATOM      8  OXT UNL     1     -39.561  24.284   3.474  0.00  0.00    -0.248 OA
ATOM      9  C   UNL     1     -38.616  25.065   3.488  0.00  0.00    +0.332 C 
BRANCH   9  10
ATOM     10  O   UNL     1     -38.785  26.408   3.421  0.00  0.00    -0.479 OA
ATOM     11  H   UNL     1     -38.647  26.858   2.610  0.00  0.00    +0.295 HD
ENDBRANCH   9  10
ENDBRANCH   6   9
ENDBRANCH   3   6
ENDBRANCH   1   4
BRANCH   1  12
ATOM     12  C   UNL     1     -35.007  21.513   1.004  0.00  0.00    +0.032 C 
ATOM     13  C   UNL     1     -34.445  22.945   1.026  0.00  0.00    +0.005 C 
BRANCH  12  14
ATOM     14  C   UNL     1     -33.850  20.527   0.900  0.00  0.00    -0.022 C 
ATOM     15  C   UNL     1     -32.737  20.837   0.120  0.00  0.00    -0.004 C 
ATOM     16  C   UNL     1     -33.903  19.314   1.588  0.00  0.00    -0.004 C 
ATOM     17  C   UNL     1     -31.677  19.935   0.025  0.00  0.00    -0.000 C 
ATOM     18  C   UNL     1     -32.844  18.412   1.494  0.00  0.00    -0.000 C 
ATOM     19  C   UNL     1     -31.732  18.722   0.712  0.00  0.00    -0.000 C 
ENDBRANCH  12  14
ENDBRANCH   1  12
BRANCH   1  20
ATOM     20  C   UNL     1     -37.350  20.800   1.792  0.00  0.00    +0.075 C 
BRANCH  20  21
ATOM     21  S   UNL     1     -37.655  21.103   0.021  0.00  0.00    -0.072 S 
BRANCH  21  23
ATOM     22  O   UNL     1     -38.939  18.882  -0.566  0.00  0.00    -0.280 OA
ATOM     23  C   UNL     1     -37.854  19.450  -0.546  0.00  0.00    +0.221 C 
BRANCH  23  24
ATOM     24  C   UNL     1     -36.627  18.732  -0.976  0.00  0.00    +0.045 C 
ATOM     25  C   UNL     1     -36.337  17.471  -0.455  0.00  0.00    +0.004 C 
ATOM     26  C   UNL     1     -35.763  19.319  -1.902  0.00  0.00    +0.004 C 
ATOM     27  C   UNL     1     -35.184  16.798  -0.859  0.00  0.00    +0.000 C 
ATOM     28  C   UNL     1     -34.611  18.645  -2.306  0.00  0.00    +0.000 C 
ATOM     29  C   UNL     1     -34.321  17.384  -1.784  0.00  0.00    +0.000 C 
ENDBRANCH  23  24
ENDBRANCH  21  23
ENDBRANCH  20  21
ENDBRANCH   1  20
TORSDOF 10
ENDMDL
MODEL 6
REMARK VINA RESULT:      -5.4      5.890      9.846
REMARK  Name = 5492682
REMARK  10 active torsions:
REMARK  status: ('A' for Active; 'I' for Inactive)
REMARK    1  A    between atoms: C_1  and  C_4
REMARK    2  A    between atoms: C_1  and  C_12
REMARK    3  A    between atoms: C_1  and  C_20
REMARK    4  A    between atoms: N_3  and  CA_6
REMARK    5  A    between atoms: CA_6  and  C_9
REMARK    6  A    between atoms: C_9  and  O_10
REMARK    7  A    between atoms: C_12  and  C_14
REMARK    8  A    between atoms: C_20  and  S_21
REMARK    9  A    between atoms: S_21  and  C_23
REMARK   10  A    between atoms: C_23  and  C_24
REMARK                            x       y       z     vdW  Elec       q    Type
REMARK                         _______ _______ _______ _____ _____    ______ ____
ROOT
ATOM      1  C   UNL     1     -32.541  26.463   3.015  0.00  0.00    +0.092 C 
ENDROOT
BRANCH   1   4
ATOM      2  O   UNL     1     -34.315  25.235   1.944  0.00  0.00    -0.275 OA
ATOM      3  N   UNL     1     -34.190  25.130   4.257  0.00  0.00    -0.297 N 
ATOM      4  C   ACE A   0     -33.772  25.544   3.004  0.00  0.00    +0.224 C 
ATOM      5  H   UNL     1     -33.685  25.435   5.045  0.00  0.00    +0.150 HD
BRANCH   3   6
ATOM      6  CA  UNL     1     -35.334  24.272   4.461  0.00  0.00    +0.171 C 
ATOM      7  CB  UNL     1     -35.116  23.367   5.664  0.00  0.00    +0.033 C 
BRANCH   6   9
ATOM      8  OXT UNL     1     -37.701  24.688   4.206  0.00  0.00    -0.248 OA
ATOM      9  C   UNL     1     -36.616  25.072   4.627  0.00  0.00    +0.332 C 
BRANCH   9  10
ATOM     10  O   UNL     1     -36.464  26.256   5.269  0.00  0.00    -0.479 OA
ATOM     11  H   UNL     1     -36.079  26.984   4.822  0.00  0.00    +0.295 HD
ENDBRANCH   9  10
ENDBRANCH   6   9
ENDBRANCH   3   6
ENDBRANCH   1   4
BRANCH   1  12
ATOM     12  C   UNL     1     -32.967  27.966   3.059  0.00  0.00    +0.032 C 
ATOM     13  C   UNL     1     -34.487  28.133   2.894  0.00  0.00    +0.005 C 
BRANCH  12  14
ATOM     14  C   UNL     1     -32.525  28.671   4.335  0.00  0.00    -0.022 C 
ATOM     15  C   UNL     1     -32.393  30.059   4.355  0.00  0.00    -0.004 C 
ATOM     16  C   UNL     1     -32.255  27.928   5.485  0.00  0.00    -0.004 C 
ATOM     17  C   UNL     1     -31.989  30.705   5.523  0.00  0.00    -0.000 C 
ATOM     18  C   UNL     1     -31.851  28.574   6.653  0.00  0.00    -0.000 C 
ATOM     19  C   UNL     1     -31.718  29.962   6.671  0.00  0.00    -0.000 C 
ENDBRANCH  12  14
ENDBRANCH   1  12
BRANCH   1  20
ATOM     20  C   UNL     1     -31.612  26.164   1.819  0.00  0.00    +0.075 C 
BRANCH  20  21
ATOM     21  S   UNL     1     -30.319  27.431   1.606  0.00  0.00    -0.072 S 
BRANCH  21  23
ATOM     22  O   UNL     1     -28.870  25.887   3.169  0.00  0.00    -0.280 OA
ATOM     23  C   UNL     1     -29.265  27.027   2.955  0.00  0.00    +0.221 C 
BRANCH  23  24
ATOM     24  C   UNL     1     -28.889  28.132   3.873  0.00  0.00    +0.045 C 
ATOM     25  C   UNL     1     -28.922  29.453   3.425  0.00  0.00    +0.004 C 
ATOM     26  C   UNL     1     -28.502  27.850   5.183  0.00  0.00    +0.004 C 
ATOM     27  C   UNL     1     -28.569  30.491   4.287  0.00  0.00    +0.000 C 
ATOM     28  C   UNL     1     -28.149  28.888   6.045  0.00  0.00    +0.000 C 
ATOM     29  C   UNL     1     -28.183  30.209   5.597  0.00  0.00    +0.000 C 
ENDBRANCH  23  24
ENDBRANCH  21  23
ENDBRANCH  20  21
ENDBRANCH   1  20
TORSDOF 10
ENDMDL
MODEL 7
REMARK VINA RESULT:      -5.2      5.162      7.142
REMARK  Name = 5492682
REMARK  10 active torsions:
REMARK  status: ('A' for Active; 'I' for Inactive)
REMARK    1  A    between atoms: C_1  and  C_4
REMARK    2  A    between atoms: C_1  and  C_12
REMARK    3  A    between atoms: C_1  and  C_20
REMARK    4  A    between atoms: N_3  and  CA_6
REMARK    5  A    between atoms: CA_6  and  C_9
REMARK    6  A    between atoms: C_9  and  O_10
REMARK    7  A    between atoms: C_12  and  C_14
REMARK    8  A    between atoms: C_20  and  S_21
REMARK    9  A    between atoms: S_21  and  C_23
REMARK   10  A    between atoms: C_23  and  C_24
REMARK                            x       y       z     vdW  Elec       q    Type
REMARK                         _______ _______ _______ _____ _____    ______ ____
ROOT
ATOM      1  C   UNL     1     -34.470  28.165   2.776  0.00  0.00    +0.092 C 
ENDROOT
BRANCH   1   4
ATOM      2  O   UNL     1     -32.559  29.585   2.404  0.00  0.00    -0.275 OA
ATOM      3  N   UNL     1     -32.893  28.786   4.555  0.00  0.00    -0.297 N 
ATOM      4  C   ACE A   0     -33.210  28.925   3.215  0.00  0.00    +0.224 C 
ATOM      5  H   UNL     1     -33.480  28.235   5.121  0.00  0.00    +0.150 HD
BRANCH   3   6
ATOM      6  CA  UNL     1     -31.741  29.413   5.161  0.00  0.00    +0.171 C 
ATOM      7  CB  UNL     1     -32.079  30.824   5.618  0.00  0.00    +0.033 C 
BRANCH   6   9
ATOM      8  OXT UNL     1     -30.321  27.754   6.197  0.00  0.00    -0.248 OA
ATOM      9  C   UNL     1     -31.203  28.596   6.324  0.00  0.00    +0.332 C 
BRANCH   9  10
ATOM     10  O   UNL     1     -31.785  28.862   7.519  0.00  0.00    -0.479 OA
ATOM     11  H   UNL     1     -32.511  28.346   7.811  0.00  0.00    +0.295 HD
ENDBRANCH   9  10
ENDBRANCH   6   9
ENDBRANCH   3   6
ENDBRANCH   1   4
BRANCH   1  12
ATOM     12  C   UNL     1     -34.147  26.662   2.498  0.00  0.00    +0.032 C 
ATOM     13  C   UNL     1     -32.634  26.420   2.359  0.00  0.00    +0.005 C 
BRANCH  12  14
ATOM     14  C   UNL     1     -34.704  25.728   3.565  0.00  0.00    -0.022 C 
ATOM     15  C   UNL     1     -34.444  24.360   3.499  0.00  0.00    -0.004 C 
ATOM     16  C   UNL     1     -35.473  26.242   4.610  0.00  0.00    -0.004 C 
ATOM     17  C   UNL     1     -34.953  23.505   4.476  0.00  0.00    -0.000 C 
ATOM     18  C   UNL     1     -35.982  25.387   5.587  0.00  0.00    -0.000 C 
ATOM     19  C   UNL     1     -35.722  24.019   5.519  0.00  0.00    -0.000 C 
ENDBRANCH  12  14
ENDBRANCH   1  12
BRANCH   1  20
ATOM     20  C   UNL     1     -35.134  28.844   1.559  0.00  0.00    +0.075 C 
BRANCH  20  21
ATOM     21  S   UNL     1     -35.709  27.640   0.316  0.00  0.00    -0.072 S 
BRANCH  21  23
ATOM     22  O   UNL     1     -38.228  28.267   0.754  0.00  0.00    -0.280 OA
ATOM     23  C   UNL     1     -37.366  27.403   0.860  0.00  0.00    +0.221 C 
BRANCH  23  24
ATOM     24  C   UNL     1     -37.685  26.103   1.503  0.00  0.00    +0.045 C 
ATOM     25  C   UNL     1     -38.504  26.064   2.632  0.00  0.00    +0.004 C 
ATOM     26  C   UNL     1     -37.166  24.919   0.977  0.00  0.00    +0.004 C 
ATOM     27  C   UNL     1     -38.803  24.843   3.235  0.00  0.00    +0.000 C 
ATOM     28  C   UNL     1     -37.467  23.698   1.580  0.00  0.00    +0.000 C 
ATOM     29  C   UNL     1     -38.285  23.660   2.709  0.00  0.00    +0.000 C 
ENDBRANCH  23  24
ENDBRANCH  21  23
ENDBRANCH  20  21
ENDBRANCH   1  20
TORSDOF 10
ENDMDL
MODEL 8
REMARK VINA RESULT:      -5.2      4.012      6.492
REMARK  Name = 5492682
REMARK  10 active torsions:
REMARK  status: ('A' for Active; 'I' for Inactive)
REMARK    1  A    between atoms: C_1  and  C_4
REMARK    2  A    between atoms: C_1  and  C_12
REMARK    3  A    between atoms: C_1  and  C_20
REMARK    4  A    between atoms: N_3  and  CA_6
REMARK    5  A    between atoms: CA_6  and  C_9
REMARK    6  A    between atoms: C_9  and  O_10
REMARK    7  A    between atoms: C_12  and  C_14
REMARK    8  A    between atoms: C_20  and  S_21
REMARK    9  A    between atoms: S_21  and  C_23
REMARK   10  A    between atoms: C_23  and  C_24
REMARK                            x       y       z     vdW  Elec       q    Type
REMARK                         _______ _______ _______ _____ _____    ______ ____
ROOT
ATOM      1  C   UNL     1     -33.726  26.285   4.110  0.00  0.00    +0.092 C 
ENDROOT
BRANCH   1   4
ATOM      2  O   UNL     1     -31.623  27.139   3.302  0.00  0.00    -0.275 OA
ATOM      3  N   UNL     1     -32.557  28.178   5.152  0.00  0.00    -0.297 N 
ATOM      4  C   ACE A   0     -32.524  27.241   4.135  0.00  0.00    +0.224 C 
ATOM      5  H   UNL     1     -33.324  28.175   5.768  0.00  0.00    +0.150 HD
BRANCH   3   6
ATOM      6  CA  UNL     1     -31.516  29.159   5.353  0.00  0.00    +0.171 C 
ATOM      7  CB  UNL     1     -32.110  30.485   5.803  0.00  0.00    +0.033 C 
BRANCH   6   9
ATOM      8  OXT UNL     1     -29.710  27.750   6.127  0.00  0.00    -0.248 OA
ATOM      9  C   UNL     1     -30.476  28.680   6.353  0.00  0.00    +0.332 C 
BRANCH   9  10
ATOM     10  O   UNL     1     -30.469  29.355   7.528  0.00  0.00    -0.479 OA
ATOM     11  H   UNL     1     -30.773  30.241   7.561  0.00  0.00    +0.295 HD
ENDBRANCH   9  10
ENDBRANCH   6   9
ENDBRANCH   3   6
ENDBRANCH   1   4
BRANCH   1  12
ATOM     12  C   UNL     1     -34.787  26.749   3.061  0.00  0.00    +0.032 C 
ATOM     13  C   UNL     1     -34.532  28.192   2.593  0.00  0.00    +0.005 C 
BRANCH  12  14
ATOM     14  C   UNL     1     -34.857  25.836   1.844  0.00  0.00    -0.022 C 
ATOM     15  C   UNL     1     -33.945  24.790   1.704  0.00  0.00    -0.004 C 
ATOM     16  C   UNL     1     -35.835  26.044   0.871  0.00  0.00    -0.004 C 
ATOM     17  C   UNL     1     -34.009  23.953   0.590  0.00  0.00    -0.000 C 
ATOM     18  C   UNL     1     -35.899  25.207  -0.243  0.00  0.00    -0.000 C 
ATOM     19  C   UNL     1     -34.986  24.162  -0.383  0.00  0.00    -0.000 C 
ENDBRANCH  12  14
ENDBRANCH   1  12
BRANCH   1  20
ATOM     20  C   UNL     1     -34.340  26.127   5.518  0.00  0.00    +0.075 C 
BRANCH  20  21
ATOM     21  S   UNL     1     -36.034  25.456   5.468  0.00  0.00    -0.072 S 
BRANCH  21  23
ATOM     22  O   UNL     1     -35.031  23.099   6.070  0.00  0.00    -0.280 OA
ATOM     23  C   UNL     1     -35.683  23.744   5.259  0.00  0.00    +0.221 C 
BRANCH  23  24
ATOM     24  C   UNL     1     -36.182  23.099   4.018  0.00  0.00    +0.045 C 
ATOM     25  C   UNL     1     -35.564  21.946   3.533  0.00  0.00    +0.004 C 
ATOM     26  C   UNL     1     -37.269  23.647   3.336  0.00  0.00    +0.004 C 
ATOM     27  C   UNL     1     -36.033  21.341   2.367  0.00  0.00    +0.000 C 
ATOM     28  C   UNL     1     -37.738  23.041   2.171  0.00  0.00    +0.000 C 
ATOM     29  C   UNL     1     -37.120  21.888   1.686  0.00  0.00    +0.000 C 
ENDBRANCH  23  24
ENDBRANCH  21  23
ENDBRANCH  20  21
ENDBRANCH   1  20
TORSDOF 10
ENDMDL
MODEL 9
REMARK VINA RESULT:      -5.1      4.692      8.064
REMARK  Name = 5492682
REMARK  10 active torsions:
REMARK  status: ('A' for Active; 'I' for Inactive)
REMARK    1  A    between atoms: C_1  and  C_4
REMARK    2  A    between atoms: C_1  and  C_12
REMARK    3  A    between atoms: C_1  and  C_20
REMARK    4  A    between atoms: N_3  and  CA_6
REMARK    5  A    between atoms: CA_6  and  C_9
REMARK    6  A    between atoms: C_9  and  O_10
REMARK    7  A    between atoms: C_12  and  C_14
REMARK    8  A    between atoms: C_20  and  S_21
REMARK    9  A    between atoms: S_21  and  C_23
REMARK   10  A    between atoms: C_23  and  C_24
REMARK                            x       y       z     vdW  Elec       q    Type
REMARK                         _______ _______ _______ _____ _____    ______ ____
ROOT
ATOM      1  C   UNL     1     -35.777  25.812   2.970  0.00  0.00    +0.092 C 
ENDROOT
BRANCH   1   4
ATOM      2  O   UNL     1     -37.448  24.510   4.118  0.00  0.00    -0.275 OA
ATOM      3  N   UNL     1     -35.516  23.416   3.449  0.00  0.00    -0.297 N 
ATOM      4  C   ACE A   0     -36.344  24.518   3.572  0.00  0.00    +0.224 C 
ATOM      5  H   UNL     1     -34.651  23.528   2.993  0.00  0.00    +0.150 HD
BRANCH   3   6
ATOM      6  CA  UNL     1     -35.863  22.110   3.959  0.00  0.00    +0.171 C 
ATOM      7  CB  UNL     1     -35.438  21.024   2.982  0.00  0.00    +0.033 C 
BRANCH   6   9
ATOM      8  OXT UNL     1     -34.608  22.707   5.937  0.00  0.00    -0.248 OA
ATOM      9  C   UNL     1     -35.250  21.859   5.327  0.00  0.00    +0.332 C 
BRANCH   9  10
ATOM     10  O   UNL     1     -35.456  20.613   5.819  0.00  0.00    -0.479 OA
ATOM     11  H   UNL     1     -36.112  20.062   5.440  0.00  0.00    +0.295 HD
ENDBRANCH   9  10
ENDBRANCH   6   9
ENDBRANCH   3   6
ENDBRANCH   1   4
BRANCH   1  12
ATOM     12  C   UNL     1     -35.067  26.672   4.064  0.00  0.00    +0.032 C 
ATOM     13  C   UNL     1     -35.095  25.982   5.439  0.00  0.00    +0.005 C 
BRANCH  12  14
ATOM     14  C   UNL     1     -33.625  27.013   3.708  0.00  0.00    -0.022 C 
ATOM     15  C   UNL     1     -32.881  27.851   4.537  0.00  0.00    -0.004 C 
ATOM     16  C   UNL     1     -33.048  26.484   2.552  0.00  0.00    -0.004 C 
ATOM     17  C   UNL     1     -31.561  28.162   4.212  0.00  0.00    -0.000 C 
ATOM     18  C   UNL     1     -31.728  26.796   2.227  0.00  0.00    -0.000 C 
ATOM     19  C   UNL     1     -30.985  27.635   3.057  0.00  0.00    -0.000 C 
ENDBRANCH  12  14
ENDBRANCH   1  12
BRANCH   1  20
ATOM     20  C   UNL     1     -36.874  26.611   2.233  0.00  0.00    +0.075 C 
BRANCH  20  21
ATOM     21  S   UNL     1     -36.271  27.355   0.682  0.00  0.00    -0.072 S 
BRANCH  21  23
ATOM     22  O   UNL     1     -37.485  29.682   0.869  0.00  0.00    -0.280 OA
ATOM     23  C   UNL     1     -36.448  29.062   1.068  0.00  0.00    +0.221 C 
BRANCH  23  24
ATOM     24  C   UNL     1     -35.257  29.756   1.622  0.00  0.00    +0.045 C 
ATOM     25  C   UNL     1     -34.047  29.729   0.927  0.00  0.00    +0.004 C 
ATOM     26  C   UNL     1     -35.347  30.434   2.838  0.00  0.00    +0.004 C 
ATOM     27  C   UNL     1     -32.929  30.380   1.448  0.00  0.00    +0.000 C 
ATOM     28  C   UNL     1     -34.229  31.085   3.358  0.00  0.00    +0.000 C 
ATOM     29  C   UNL     1     -33.020  31.059   2.663  0.00  0.00    +0.000 C 
ENDBRANCH  23  24
ENDBRANCH  21  23
ENDBRANCH  20  21
ENDBRANCH   1  20
TORSDOF 10
ENDMDL
