MODEL 1
REMARK VINA RESULT:      -6.6      0.000      0.000
REMARK  Name = 195529
REMARK  8 active torsions:
REMARK  status: ('A' for Active; 'I' for Inactive)
REMARK    1  A    between atoms: C_3  and  O_15
REMARK    2  A    between atoms: C_4  and  O_17
REMARK    3  A    between atoms: C_6  and  O_21
REMARK    4  A    between atoms: C_10  and  C_20
REMARK    5  A    between atoms: O_21  and  C_23
REMARK    6  A    between atoms: C_23  and  C_24
REMARK    7  A    between atoms: C_26  and  O_31
REMARK    8  A    between atoms: C_30  and  O_33
REMARK                            x       y       z     vdW  Elec       q    Type
REMARK                         _______ _______ _______ _____ _____    ______ ____
ROOT
ATOM      1  C   UNL     1     -35.352  20.619   0.862  0.00  0.00    +0.036 C 
ATOM      2  C   UNL     1     -35.512  19.912  -0.480  0.00  0.00    +0.031 C 
ATOM      3  C   UNL     1     -36.664  21.042   1.581  0.00  0.00    +0.146 C 
ATOM      4  C   UNL     1     -36.627  20.505  -1.354  0.00  0.00    +0.107 C 
ATOM      5  C   UNL     1     -34.901  22.101   0.917  0.00  0.00    +0.049 C 
ATOM      6  C   UNL     1     -35.913  22.310   2.059  0.00  0.00    +0.197 C 
ATOM      7  C   UNL     1     -35.930  18.448  -0.244  0.00  0.00    +0.003 C 
ATOM      8  C   UNL     1     -36.833  18.045  -1.428  0.00  0.00    +0.003 C 
ATOM      9  C   UNL     1     -36.984  19.324  -2.272  0.00  0.00    +0.031 C 
ATOM     10  C   UNL     1     -37.846  21.286   0.717  0.00  0.00    +0.045 C 
ATOM     11  C   UNL     1     -34.460  19.847   1.888  0.00  0.00    +0.003 C 
ATOM     12  C   UNL     1     -37.822  21.038  -0.601  0.00  0.00    +0.001 C 
ATOM     13  C   UNL     1     -36.180  16.931  -2.259  0.00  0.00    +0.000 C 
ATOM     14  C   UNL     1     -38.196  17.546  -0.927  0.00  0.00    +0.000 C 
ENDROOT
BRANCH   3  15
ATOM     15  O   UNL     1     -37.028  20.184   2.691  0.00  0.00    -0.379 OA
ATOM     16  H   UNL     1     -37.321  20.728   3.439  0.00  0.00    +0.211 HD
ENDBRANCH   3  15
BRANCH   4  17
ATOM     17  O   UNL     1     -36.110  21.540  -2.190  0.00  0.00    -0.383 OA
ATOM     18  H   UNL     1     -36.225  22.398  -1.752  0.00  0.00    +0.211 HD
ENDBRANCH   4  17
BRANCH  10  20
ATOM     19  O   UNL     1     -39.841  21.119   1.967  0.00  0.00    -0.283 OA
ATOM     20  C   UNL     1     -39.091  21.808   1.290  0.00  0.00    +0.232 C 
ENDBRANCH  10  20
BRANCH   6  21
ATOM     21  O   UNL     1     -36.649  23.562   2.027  0.00  0.00    -0.446 OA
BRANCH  21  23
ATOM     22  O   UNL     1     -38.096  23.844   3.793  0.00  0.00    -0.245 OA
ATOM     23  C   UNL     1     -37.028  24.047   3.237  0.00  0.00    +0.344 C 
BRANCH  23  24
ATOM     24  C   UNL     1     -35.949  24.881   3.823  0.00  0.00    +0.105 C 
ATOM     25  C   UNL     1     -35.263  24.419   4.931  0.00  0.00    -0.010 C 
ATOM     26  C   UNL     1     -35.659  26.100   3.242  0.00  0.00    +0.143 C 
ATOM     27  C   UNL     1     -34.249  25.206   5.477  0.00  0.00    +0.033 C 
ATOM     28  C   UNL     1     -34.644  26.887   3.788  0.00  0.00    +0.074 C 
ATOM     29  C   UNL     1     -35.573  23.102   5.564  0.00  0.00    +0.031 C 
ATOM     30  C   UNL     1     -33.941  26.440   4.906  0.00  0.00    +0.141 C 
BRANCH  26  31
ATOM     31  O   UNL     1     -36.334  26.557   2.149  0.00  0.00    -0.505 OA
ATOM     32  H   UNL     1     -37.234  26.328   2.025  0.00  0.00    +0.292 HD
ENDBRANCH  26  31
BRANCH  30  33
ATOM     33  O   UNL     1     -32.952  27.209   5.439  0.00  0.00    -0.471 OA
ATOM     34  C   UNL     1     -32.758  27.131   6.850  0.00  0.00    +0.252 C 
ENDBRANCH  30  33
ENDBRANCH  23  24
ENDBRANCH  21  23
ENDBRANCH   6  21
TORSDOF 8
ENDMDL
MODEL 2
REMARK VINA RESULT:      -6.4      1.656      2.906
REMARK  Name = 195529
REMARK  8 active torsions:
REMARK  status: ('A' for Active; 'I' for Inactive)
REMARK    1  A    between atoms: C_3  and  O_15
REMARK    2  A    between atoms: C_4  and  O_17
REMARK    3  A    between atoms: C_6  and  O_21
REMARK    4  A    between atoms: C_10  and  C_20
REMARK    5  A    between atoms: O_21  and  C_23
REMARK    6  A    between atoms: C_23  and  C_24
REMARK    7  A    between atoms: C_26  and  O_31
REMARK    8  A    between atoms: C_30  and  O_33
REMARK                            x       y       z     vdW  Elec       q    Type
REMARK                         _______ _______ _______ _____ _____    ______ ____
ROOT
ATOM      1  C   UNL     1     -36.259  19.849   0.506  0.00  0.00    +0.036 C 
ATOM      2  C   UNL     1     -35.273  18.820  -0.039  0.00  0.00    +0.031 C 
ATOM      3  C   UNL     1     -35.811  21.336   0.442  0.00  0.00    +0.146 C 
ATOM      4  C   UNL     1     -33.811  19.126   0.319  0.00  0.00    +0.107 C 
ATOM      5  C   UNL     1     -36.445  20.020   2.036  0.00  0.00    +0.049 C 
ATOM      6  C   UNL     1     -36.531  21.539   1.800  0.00  0.00    +0.197 C 
ATOM      7  C   UNL     1     -35.314  18.833  -1.579  0.00  0.00    +0.003 C 
ATOM      8  C   UNL     1     -33.891  18.493  -2.067  0.00  0.00    +0.003 C 
ATOM      9  C   UNL     1     -33.043  18.382  -0.787  0.00  0.00    +0.031 C 
ATOM     10  C   UNL     1     -34.349  21.591   0.449  0.00  0.00    +0.045 C 
ATOM     11  C   UNL     1     -37.694  19.744  -0.105  0.00  0.00    +0.003 C 
ATOM     12  C   UNL     1     -33.457  20.592   0.389  0.00  0.00    +0.001 C 
ATOM     13  C   UNL     1     -33.878  17.164  -2.833  0.00  0.00    +0.000 C 
ATOM     14  C   UNL     1     -33.357  19.596  -2.993  0.00  0.00    +0.000 C 
ENDROOT
BRANCH   3  15
ATOM     15  O   UNL     1     -36.444  22.095  -0.618  0.00  0.00    -0.379 OA
ATOM     16  H   UNL     1     -36.021  21.883  -1.465  0.00  0.00    +0.211 HD
ENDBRANCH   3  15
BRANCH   4  17
ATOM     17  O   UNL     1     -33.460  18.507   1.557  0.00  0.00    -0.383 OA
ATOM     18  H   UNL     1     -32.832  19.071   2.034  0.00  0.00    +0.211 HD
ENDBRANCH   4  17
BRANCH  10  20
ATOM     19  O   UNL     1     -34.503  23.932   0.190  0.00  0.00    -0.283 OA
ATOM     20  C   UNL     1     -33.834  22.962   0.517  0.00  0.00    +0.232 C 
ENDBRANCH  10  20
BRANCH   6  21
ATOM     21  O   UNL     1     -35.856  22.368   2.784  0.00  0.00    -0.446 OA
BRANCH  21  23
ATOM     22  O   UNL     1     -37.839  23.367   3.391  0.00  0.00    -0.245 OA
ATOM     23  C   UNL     1     -36.618  23.340   3.349  0.00  0.00    +0.344 C 
BRANCH  23  24
ATOM     24  C   UNL     1     -35.758  24.401   3.931  0.00  0.00    +0.105 C 
ATOM     25  C   UNL     1     -35.178  24.198   5.169  0.00  0.00    -0.010 C 
ATOM     26  C   UNL     1     -35.561  25.566   3.215  0.00  0.00    +0.143 C 
ATOM     27  C   UNL     1     -34.370  25.198   5.710  0.00  0.00    +0.033 C 
ATOM     28  C   UNL     1     -34.753  26.566   3.756  0.00  0.00    +0.074 C 
ATOM     29  C   UNL     1     -35.387  22.941   5.947  0.00  0.00    +0.031 C 
ATOM     30  C   UNL     1     -34.159  26.382   5.005  0.00  0.00    +0.141 C 
BRANCH  26  31
ATOM     31  O   UNL     1     -36.133  25.768   1.994  0.00  0.00    -0.505 OA
ATOM     32  H   UNL     1     -36.018  25.135   1.313  0.00  0.00    +0.292 HD
ENDBRANCH  26  31
BRANCH  30  33
ATOM     33  O   UNL     1     -33.371  27.358   5.533  0.00  0.00    -0.471 OA
ATOM     34  C   UNL     1     -32.805  27.111   6.820  0.00  0.00    +0.252 C 
ENDBRANCH  30  33
ENDBRANCH  23  24
ENDBRANCH  21  23
ENDBRANCH   6  21
TORSDOF 8
ENDMDL
MODEL 3
REMARK VINA RESULT:      -6.4     12.069     13.798
REMARK  Name = 195529
REMARK  8 active torsions:
REMARK  status: ('A' for Active; 'I' for Inactive)
REMARK    1  A    between atoms: C_3  and  O_15
REMARK    2  A    between atoms: C_4  and  O_17
REMARK    3  A    between atoms: C_6  and  O_21
REMARK    4  A    between atoms: C_10  and  C_20
REMARK    5  A    between atoms: O_21  and  C_23
REMARK    6  A    between atoms: C_23  and  C_24
REMARK    7  A    between atoms: C_26  and  O_31
REMARK    8  A    between atoms: C_30  and  O_33
REMARK                            x       y       z     vdW  Elec       q    Type
REMARK                         _______ _______ _______ _____ _____    ______ ____
ROOT
ATOM      1  C   UNL     1     -45.267  32.702   5.214  0.00  0.00    +0.036 C 
ATOM      2  C   UNL     1     -45.294  31.603   6.271  0.00  0.00    +0.031 C 
ATOM      3  C   UNL     1     -45.234  32.234   3.731  0.00  0.00    +0.146 C 
ATOM      4  C   UNL     1     -44.387  30.409   5.935  0.00  0.00    +0.107 C 
ATOM      5  C   UNL     1     -43.962  33.495   4.943  0.00  0.00    +0.049 C 
ATOM      6  C   UNL     1     -44.306  33.442   3.443  0.00  0.00    +0.197 C 
ATOM      7  C   UNL     1     -46.713  31.008   6.359  0.00  0.00    +0.003 C 
ATOM      8  C   UNL     1     -46.552  29.518   6.723  0.00  0.00    +0.003 C 
ATOM      9  C   UNL     1     -45.032  29.272   6.746  0.00  0.00    +0.031 C 
ATOM     10  C   UNL     1     -44.643  30.898   3.469  0.00  0.00    +0.045 C 
ATOM     11  C   UNL     1     -46.405  33.762   5.366  0.00  0.00    +0.003 C 
ATOM     12  C   UNL     1     -44.269  30.082   4.466  0.00  0.00    +0.001 C 
ATOM     13  C   UNL     1     -47.161  29.222   8.101  0.00  0.00    +0.000 C 
ATOM     14  C   UNL     1     -47.243  28.627   5.681  0.00  0.00    +0.000 C 
ENDROOT
BRANCH   3  15
ATOM     15  O   UNL     1     -46.505  32.359   3.047  0.00  0.00    -0.379 OA
ATOM     16  H   UNL     1     -46.626  31.607   2.448  0.00  0.00    +0.211 HD
ENDBRANCH   3  15
BRANCH   4  17
ATOM     17  O   UNL     1     -43.079  30.611   6.469  0.00  0.00    -0.383 OA
ATOM     18  H   UNL     1     -42.987  31.530   6.763  0.00  0.00    +0.211 HD
ENDBRANCH   4  17
BRANCH  10  20
ATOM     19  O   UNL     1     -45.108  30.859   1.156  0.00  0.00    -0.283 OA
ATOM     20  C   UNL     1     -44.455  30.425   2.094  0.00  0.00    +0.232 C 
ENDBRANCH  10  20
BRANCH   6  21
ATOM     21  O   UNL     1     -43.186  33.212   2.548  0.00  0.00    -0.446 OA
BRANCH  21  23
ATOM     22  O   UNL     1     -43.811  34.703   0.909  0.00  0.00    -0.245 OA
ATOM     23  C   UNL     1     -42.967  34.184   1.625  0.00  0.00    +0.344 C 
BRANCH  23  24
ATOM     24  C   UNL     1     -41.530  34.554   1.591  0.00  0.00    +0.105 C 
ATOM     25  C   UNL     1     -40.751  34.145   0.525  0.00  0.00    -0.010 C 
ATOM     26  C   UNL     1     -41.010  35.302   2.630  0.00  0.00    +0.143 C 
ATOM     27  C   UNL     1     -39.401  34.497   0.498  0.00  0.00    +0.033 C 
ATOM     28  C   UNL     1     -39.660  35.654   2.603  0.00  0.00    +0.074 C 
ATOM     29  C   UNL     1     -41.308  33.337  -0.601  0.00  0.00    +0.031 C 
ATOM     30  C   UNL     1     -38.856  35.250   1.537  0.00  0.00    +0.141 C 
BRANCH  26  31
ATOM     31  O   UNL     1     -41.777  35.707   3.682  0.00  0.00    -0.505 OA
ATOM     32  H   UNL     1     -42.704  35.567   3.667  0.00  0.00    +0.292 HD
ENDBRANCH  26  31
BRANCH  30  33
ATOM     33  O   UNL     1     -37.539  35.593   1.511  0.00  0.00    -0.471 OA
ATOM     34  C   UNL     1     -37.178  36.726   0.723  0.00  0.00    +0.252 C 
ENDBRANCH  30  33
ENDBRANCH  23  24
ENDBRANCH  21  23
ENDBRANCH   6  21
TORSDOF 8
ENDMDL
MODEL 4
REMARK VINA RESULT:      -6.3      3.724      6.920
REMARK  Name = 195529
REMARK  8 active torsions:
REMARK  status: ('A' for Active; 'I' for Inactive)
REMARK    1  A    between atoms: C_3  and  O_15
REMARK    2  A    between atoms: C_4  and  O_17
REMARK    3  A    between atoms: C_6  and  O_21
REMARK    4  A    between atoms: C_10  and  C_20
REMARK    5  A    between atoms: O_21  and  C_23
REMARK    6  A    between atoms: C_23  and  C_24
REMARK    7  A    between atoms: C_26  and  O_31
REMARK    8  A    between atoms: C_30  and  O_33
REMARK                            x       y       z     vdW  Elec       q    Type
REMARK                         _______ _______ _______ _____ _____    ______ ____
ROOT
ATOM      1  C   UNL     1     -34.646  26.189   2.142  0.00  0.00    +0.036 C 
ATOM      2  C   UNL     1     -35.858  25.286   2.344  0.00  0.00    +0.031 C 
ATOM      3  C   UNL     1     -33.755  26.440   3.391  0.00  0.00    +0.146 C 
ATOM      4  C   UNL     1     -36.579  25.522   3.680  0.00  0.00    +0.107 C 
ATOM      5  C   UNL     1     -34.825  27.724   2.020  0.00  0.00    +0.049 C 
ATOM      6  C   UNL     1     -33.551  27.886   2.869  0.00  0.00    +0.197 C 
ATOM      7  C   UNL     1     -35.402  23.815   2.395  0.00  0.00    +0.003 C 
ATOM      8  C   UNL     1     -36.361  23.083   3.355  0.00  0.00    +0.003 C 
ATOM      9  C   UNL     1     -37.293  24.178   3.905  0.00  0.00    +0.031 C 
ATOM     10  C   UNL     1     -34.419  26.326   4.714  0.00  0.00    +0.045 C 
ATOM     11  C   UNL     1     -33.718  25.757   0.960  0.00  0.00    +0.003 C 
ATOM     12  C   UNL     1     -35.687  25.908   4.835  0.00  0.00    +0.001 C 
ATOM     13  C   UNL     1     -37.173  22.015   2.609  0.00  0.00    +0.000 C 
ATOM     14  C   UNL     1     -35.579  22.400   4.487  0.00  0.00    +0.000 C 
ENDROOT
BRANCH   3  15
ATOM     15  O   UNL     1     -32.516  25.690   3.389  0.00  0.00    -0.379 OA
ATOM     16  H   UNL     1     -31.967  25.968   4.139  0.00  0.00    +0.211 HD
ENDBRANCH   3  15
BRANCH   4  17
ATOM     17  O   UNL     1     -37.596  26.513   3.531  0.00  0.00    -0.383 OA
ATOM     18  H   UNL     1     -37.815  26.885   4.399  0.00  0.00    +0.211 HD
ENDBRANCH   4  17
BRANCH  10  20
ATOM     19  O   UNL     1     -32.472  26.668   6.003  0.00  0.00    -0.283 OA
ATOM     20  C   UNL     1     -33.693  26.667   5.941  0.00  0.00    +0.232 C 
ENDBRANCH  10  20
BRANCH   6  21
ATOM     21  O   UNL     1     -33.583  28.952   3.856  0.00  0.00    -0.446 OA
BRANCH  21  23
ATOM     22  O   UNL     1     -32.623  30.888   3.065  0.00  0.00    -0.245 OA
ATOM     23  C   UNL     1     -32.594  29.876   3.748  0.00  0.00    +0.344 C 
BRANCH  23  24
ATOM     24  C   UNL     1     -31.434  29.495   4.593  0.00  0.00    +0.105 C 
ATOM     25  C   UNL     1     -30.386  28.794   4.027  0.00  0.00    -0.010 C 
ATOM     26  C   UNL     1     -31.435  29.857   5.927  0.00  0.00    +0.143 C 
ATOM     27  C   UNL     1     -29.298  28.440   4.826  0.00  0.00    +0.033 C 
ATOM     28  C   UNL     1     -30.347  29.503   6.725  0.00  0.00    +0.074 C 
ATOM     29  C   UNL     1     -30.380  28.401   2.586  0.00  0.00    +0.031 C 
ATOM     30  C   UNL     1     -29.279  28.794   6.175  0.00  0.00    +0.141 C 
BRANCH  26  31
ATOM     31  O   UNL     1     -32.467  30.549   6.486  0.00  0.00    -0.505 OA
ATOM     32  H   UNL     1     -32.889  30.220   7.255  0.00  0.00    +0.292 HD
ENDBRANCH  26  31
BRANCH  30  33
ATOM     33  O   UNL     1     -28.218  28.448   6.954  0.00  0.00    -0.471 OA
ATOM     34  C   UNL     1     -27.930  27.056   7.079  0.00  0.00    +0.252 C 
ENDBRANCH  30  33
ENDBRANCH  23  24
ENDBRANCH  21  23
ENDBRANCH   6  21
TORSDOF 8
ENDMDL
MODEL 5
REMARK VINA RESULT:      -6.3      3.019      4.879
REMARK  Name = 195529
REMARK  8 active torsions:
REMARK  status: ('A' for Active; 'I' for Inactive)
REMARK    1  A    between atoms: C_3  and  O_15
REMARK    2  A    between atoms: C_4  and  O_17
REMARK    3  A    between atoms: C_6  and  O_21
REMARK    4  A    between atoms: C_10  and  C_20
REMARK    5  A    between atoms: O_21  and  C_23
REMARK    6  A    between atoms: C_23  and  C_24
REMARK    7  A    between atoms: C_26  and  O_31
REMARK    8  A    between atoms: C_30  and  O_33
REMARK                            x       y       z     vdW  Elec       q    Type
REMARK                         _______ _______ _______ _____ _____    ______ ____
ROOT
ATOM      1  C   UNL     1     -35.324  21.338   2.088  0.00  0.00    +0.036 C 
ATOM      2  C   UNL     1     -34.143  20.954   1.202  0.00  0.00    +0.031 C 
ATOM      3  C   UNL     1     -36.710  20.767   1.678  0.00  0.00    +0.146 C 
ATOM      4  C   UNL     1     -34.481  20.949  -0.297  0.00  0.00    +0.107 C 
ATOM      5  C   UNL     1     -35.937  22.760   2.002  0.00  0.00    +0.049 C 
ATOM      6  C   UNL     1     -37.325  22.110   2.148  0.00  0.00    +0.197 C 
ATOM      7  C   UNL     1     -33.712  19.509   1.515  0.00  0.00    +0.003 C 
ATOM      8  C   UNL     1     -33.190  18.902   0.197  0.00  0.00    +0.003 C 
ATOM      9  C   UNL     1     -33.420  19.992  -0.866  0.00  0.00    +0.031 C 
ATOM     10  C   UNL     1     -36.899  20.446   0.241  0.00  0.00    +0.045 C 
ATOM     11  C   UNL     1     -35.104  21.043   3.607  0.00  0.00    +0.003 C 
ATOM     12  C   UNL     1     -35.890  20.526  -0.639  0.00  0.00    +0.001 C 
ATOM     13  C   UNL     1     -31.696  18.566   0.303  0.00  0.00    +0.000 C 
ATOM     14  C   UNL     1     -33.956  17.617  -0.150  0.00  0.00    +0.000 C 
ENDROOT
BRANCH   3  15
ATOM     15  O   UNL     1     -37.155  19.658   2.498  0.00  0.00    -0.379 OA
ATOM     16  H   UNL     1     -36.386  19.225   2.902  0.00  0.00    +0.211 HD
ENDBRANCH   3  15
BRANCH   4  17
ATOM     17  O   UNL     1     -34.233  22.233  -0.870  0.00  0.00    -0.383 OA
ATOM     18  H   UNL     1     -34.983  22.488  -1.430  0.00  0.00    +0.211 HD
ENDBRANCH   4  17
BRANCH  10  20
ATOM     19  O   UNL     1     -38.555  18.848  -0.282  0.00  0.00    -0.283 OA
ATOM     20  C   UNL     1     -38.209  20.021  -0.260  0.00  0.00    +0.232 C 
ENDBRANCH  10  20
BRANCH   6  21
ATOM     21  O   UNL     1     -38.376  22.678   1.320  0.00  0.00    -0.446 OA
BRANCH  21  23
ATOM     22  O   UNL     1     -40.209  21.674   2.285  0.00  0.00    -0.245 OA
ATOM     23  C   UNL     1     -39.621  22.658   1.863  0.00  0.00    +0.344 C 
BRANCH  23  24
ATOM     24  C   UNL     1     -40.199  24.026   1.884  0.00  0.00    +0.105 C 
ATOM     25  C   UNL     1     -41.088  24.400   0.895  0.00  0.00    -0.010 C 
ATOM     26  C   UNL     1     -39.831  24.888   2.899  0.00  0.00    +0.143 C 
ATOM     27  C   UNL     1     -41.629  25.685   0.921  0.00  0.00    +0.033 C 
ATOM     28  C   UNL     1     -40.372  26.174   2.925  0.00  0.00    +0.074 C 
ATOM     29  C   UNL     1     -41.489  23.471  -0.205  0.00  0.00    +0.031 C 
ATOM     30  C   UNL     1     -41.270  26.572   1.935  0.00  0.00    +0.141 C 
BRANCH  26  31
ATOM     31  O   UNL     1     -38.955  24.520   3.877  0.00  0.00    -0.505 OA
ATOM     32  H   UNL     1     -38.540  23.681   3.841  0.00  0.00    +0.292 HD
ENDBRANCH  26  31
BRANCH  30  33
ATOM     33  O   UNL     1     -41.798  27.827   1.960  0.00  0.00    -0.471 OA
ATOM     34  C   UNL     1     -43.213  27.934   2.109  0.00  0.00    +0.252 C 
ENDBRANCH  30  33
ENDBRANCH  23  24
ENDBRANCH  21  23
ENDBRANCH   6  21
TORSDOF 8
ENDMDL
MODEL 6
REMARK VINA RESULT:      -6.2      2.578      7.883
REMARK  Name = 195529
REMARK  8 active torsions:
REMARK  status: ('A' for Active; 'I' for Inactive)
REMARK    1  A    between atoms: C_3  and  O_15
REMARK    2  A    between atoms: C_4  and  O_17
REMARK    3  A    between atoms: C_6  and  O_21
REMARK    4  A    between atoms: C_10  and  C_20
REMARK    5  A    between atoms: O_21  and  C_23
REMARK    6  A    between atoms: C_23  and  C_24
REMARK    7  A    between atoms: C_26  and  O_31
REMARK    8  A    between atoms: C_30  and  O_33
REMARK                            x       y       z     vdW  Elec       q    Type
REMARK                         _______ _______ _______ _____ _____    ______ ____
ROOT
ATOM      1  C   UNL     1     -34.297  26.308   1.685  0.00  0.00    +0.036 C 
ATOM      2  C   UNL     1     -33.187  27.352   1.616  0.00  0.00    +0.031 C 
ATOM      3  C   UNL     1     -35.000  26.136   3.061  0.00  0.00    +0.146 C 
ATOM      4  C   UNL     1     -32.293  27.375   2.865  0.00  0.00    +0.107 C 
ATOM      5  C   UNL     1     -33.949  24.798   1.727  0.00  0.00    +0.049 C 
ATOM      6  C   UNL     1     -35.087  24.620   2.749  0.00  0.00    +0.197 C 
ATOM      7  C   UNL     1     -33.808  28.761   1.548  0.00  0.00    +0.003 C 
ATOM      8  C   UNL     1     -32.840  29.712   2.280  0.00  0.00    +0.003 C 
ATOM      9  C   UNL     1     -31.725  28.804   2.832  0.00  0.00    +0.031 C 
ATOM     10  C   UNL     1     -34.206  26.496   4.263  0.00  0.00    +0.045 C 
ATOM     11  C   UNL     1     -35.401  26.477   0.591  0.00  0.00    +0.003 C 
ATOM     12  C   UNL     1     -32.992  27.057   4.165  0.00  0.00    +0.001 C 
ATOM     13  C   UNL     1     -32.254  30.748   1.311  0.00  0.00    +0.000 C 
ATOM     14  C   UNL     1     -33.562  30.456   3.413  0.00  0.00    +0.000 C 
ENDROOT
BRANCH   3  15
ATOM     15  O   UNL     1     -36.312  26.745   3.131  0.00  0.00    -0.379 OA
ATOM     16  H   UNL     1     -36.917  26.159   3.611  0.00  0.00    +0.211 HD
ENDBRANCH   3  15
BRANCH   4  17
ATOM     17  O   UNL     1     -31.188  26.485   2.706  0.00  0.00    -0.383 OA
ATOM     18  H   UNL     1     -30.558  26.861   2.071  0.00  0.00    +0.211 HD
ENDBRANCH   4  17
BRANCH  10  20
ATOM     19  O   UNL     1     -35.937  26.239   5.845  0.00  0.00    -0.283 OA
ATOM     20  C   UNL     1     -34.738  26.250   5.606  0.00  0.00    +0.232 C 
ENDBRANCH  10  20
BRANCH   6  21
ATOM     21  O   UNL     1     -34.812  23.706   3.844  0.00  0.00    -0.446 OA
BRANCH  21  23
ATOM     22  O   UNL     1     -36.048  22.851   5.588  0.00  0.00    -0.245 OA
ATOM     23  C   UNL     1     -35.903  23.124   4.406  0.00  0.00    +0.344 C 
BRANCH  23  24
ATOM     24  C   UNL     1     -36.936  22.853   3.374  0.00  0.00    +0.105 C 
ATOM     25  C   UNL     1     -36.778  21.772   2.528  0.00  0.00    -0.010 C 
ATOM     26  C   UNL     1     -38.030  23.692   3.290  0.00  0.00    +0.143 C 
ATOM     27  C   UNL     1     -37.752  21.521   1.561  0.00  0.00    +0.033 C 
ATOM     28  C   UNL     1     -39.004  23.441   2.323  0.00  0.00    +0.074 C 
ATOM     29  C   UNL     1     -35.598  20.861   2.614  0.00  0.00    +0.031 C 
ATOM     30  C   UNL     1     -38.864  22.356   1.458  0.00  0.00    +0.141 C 
BRANCH  26  31
ATOM     31  O   UNL     1     -38.187  24.759   4.125  0.00  0.00    -0.505 OA
ATOM     32  H   UNL     1     -37.657  24.833   4.894  0.00  0.00    +0.292 HD
ENDBRANCH  26  31
BRANCH  30  33
ATOM     33  O   UNL     1     -39.814  22.112   0.515  0.00  0.00    -0.471 OA
ATOM     34  C   UNL     1     -39.648  20.944  -0.288  0.00  0.00    +0.252 C 
ENDBRANCH  30  33
ENDBRANCH  23  24
ENDBRANCH  21  23
ENDBRANCH   6  21
TORSDOF 8
ENDMDL
MODEL 7
REMARK VINA RESULT:      -6.2      2.050      3.320
REMARK  Name = 195529
REMARK  8 active torsions:
REMARK  status: ('A' for Active; 'I' for Inactive)
REMARK    1  A    between atoms: C_3  and  O_15
REMARK    2  A    between atoms: C_4  and  O_17
REMARK    3  A    between atoms: C_6  and  O_21
REMARK    4  A    between atoms: C_10  and  C_20
REMARK    5  A    between atoms: O_21  and  C_23
REMARK    6  A    between atoms: C_23  and  C_24
REMARK    7  A    between atoms: C_26  and  O_31
REMARK    8  A    between atoms: C_30  and  O_33
REMARK                            x       y       z     vdW  Elec       q    Type
REMARK                         _______ _______ _______ _____ _____    ______ ____
ROOT
ATOM      1  C   UNL     1     -36.022  22.042   0.086  0.00  0.00    +0.036 C 
ATOM      2  C   UNL     1     -35.569  20.648  -0.335  0.00  0.00    +0.031 C 
ATOM      3  C   UNL     1     -35.607  22.503   1.511  0.00  0.00    +0.146 C 
ATOM      4  C   UNL     1     -35.667  19.609   0.792  0.00  0.00    +0.107 C 
ATOM      5  C   UNL     1     -37.499  22.298   0.485  0.00  0.00    +0.049 C 
ATOM      6  C   UNL     1     -36.979  23.218   1.605  0.00  0.00    +0.197 C 
ATOM      7  C   UNL     1     -34.075  20.684  -0.712  0.00  0.00    +0.003 C 
ATOM      8  C   UNL     1     -33.484  19.313  -0.327  0.00  0.00    +0.003 C 
ATOM      9  C   UNL     1     -34.640  18.552   0.349  0.00  0.00    +0.031 C 
ATOM     10  C   UNL     1     -35.373  21.434   2.514  0.00  0.00    +0.045 C 
ATOM     11  C   UNL     1     -35.636  23.171  -0.924  0.00  0.00    +0.003 C 
ATOM     12  C   UNL     1     -35.398  20.135   2.181  0.00  0.00    +0.001 C 
ATOM     13  C   UNL     1     -33.002  18.556  -1.572  0.00  0.00    +0.000 C 
ATOM     14  C   UNL     1     -32.296  19.483   0.632  0.00  0.00    +0.000 C 
ENDROOT
BRANCH   3  15
ATOM     15  O   UNL     1     -34.508  23.448   1.526  0.00  0.00    -0.379 OA
ATOM     16  H   UNL     1     -33.935  23.291   0.759  0.00  0.00    +0.211 HD
ENDBRANCH   3  15
BRANCH   4  17
ATOM     17  O   UNL     1     -36.946  18.976   0.779  0.00  0.00    -0.383 OA
ATOM     18  H   UNL     1     -36.991  18.320   1.492  0.00  0.00    +0.211 HD
ENDBRANCH   4  17
BRANCH  10  20
ATOM     19  O   UNL     1     -35.157  20.947   4.813  0.00  0.00    -0.283 OA
ATOM     20  C   UNL     1     -35.100  21.774   3.914  0.00  0.00    +0.232 C 
ENDBRANCH  10  20
BRANCH   6  21
ATOM     21  O   UNL     1     -37.683  23.126   2.873  0.00  0.00    -0.446 OA
BRANCH  21  23
ATOM     22  O   UNL     1     -39.243  24.637   3.634  0.00  0.00    -0.245 OA
ATOM     23  C   UNL     1     -38.090  24.309   3.401  0.00  0.00    +0.344 C 
BRANCH  23  24
ATOM     24  C   UNL     1     -36.922  25.185   3.674  0.00  0.00    +0.105 C 
ATOM     25  C   UNL     1     -36.672  26.258   2.839  0.00  0.00    -0.010 C 
ATOM     26  C   UNL     1     -36.116  24.902   4.760  0.00  0.00    +0.143 C 
ATOM     27  C   UNL     1     -35.574  27.078   3.100  0.00  0.00    +0.033 C 
ATOM     28  C   UNL     1     -35.018  25.722   5.021  0.00  0.00    +0.074 C 
ATOM     29  C   UNL     1     -37.540  26.569   1.664  0.00  0.00    +0.031 C 
ATOM     30  C   UNL     1     -34.747  26.810   4.191  0.00  0.00    +0.141 C 
BRANCH  26  31
ATOM     31  O   UNL     1     -36.362  23.844   5.584  0.00  0.00    -0.505 OA
ATOM     32  H   UNL     1     -36.509  22.993   5.222  0.00  0.00    +0.292 HD
ENDBRANCH  26  31
BRANCH  30  33
ATOM     33  O   UNL     1     -33.676  27.609   4.445  0.00  0.00    -0.471 OA
ATOM     34  C   UNL     1     -32.547  27.478   3.582  0.00  0.00    +0.252 C 
ENDBRANCH  30  33
ENDBRANCH  23  24
ENDBRANCH  21  23
ENDBRANCH   6  21
TORSDOF 8
ENDMDL
MODEL 8
REMARK VINA RESULT:      -6.1      4.214      9.492
REMARK  Name = 195529
REMARK  8 active torsions:
REMARK  status: ('A' for Active; 'I' for Inactive)
REMARK    1  A    between atoms: C_3  and  O_15
REMARK    2  A    between atoms: C_4  and  O_17
REMARK    3  A    between atoms: C_6  and  O_21
REMARK    4  A    between atoms: C_10  and  C_20
REMARK    5  A    between atoms: O_21  and  C_23
REMARK    6  A    between atoms: C_23  and  C_24
REMARK    7  A    between atoms: C_26  and  O_31
REMARK    8  A    between atoms: C_30  and  O_33
REMARK                            x       y       z     vdW  Elec       q    Type
REMARK                         _______ _______ _______ _____ _____    ______ ____
ROOT
ATOM      1  C   UNL     1     -31.699  28.082   3.379  0.00  0.00    +0.036 C 
ATOM      2  C   UNL     1     -30.831  28.800   4.408  0.00  0.00    +0.031 C 
ATOM      3  C   UNL     1     -32.798  28.936   2.685  0.00  0.00    +0.146 C 
ATOM      4  C   UNL     1     -31.617  29.781   5.292  0.00  0.00    +0.107 C 
ATOM      5  C   UNL     1     -32.814  27.108   3.840  0.00  0.00    +0.049 C 
ATOM      6  C   UNL     1     -33.698  27.674   2.714  0.00  0.00    +0.197 C 
ATOM      7  C   UNL     1     -29.788  29.672   3.683  0.00  0.00    +0.003 C 
ATOM      8  C   UNL     1     -29.539  30.906   4.573  0.00  0.00    +0.003 C 
ATOM      9  C   UNL     1     -30.520  30.756   5.751  0.00  0.00    +0.031 C 
ATOM     10  C   UNL     1     -33.310  30.104   3.444  0.00  0.00    +0.045 C 
ATOM     11  C   UNL     1     -30.889  27.335   2.271  0.00  0.00    +0.003 C 
ATOM     12  C   UNL     1     -32.771  30.479   4.613  0.00  0.00    +0.001 C 
ATOM     13  C   UNL     1     -28.092  30.931   5.083  0.00  0.00    +0.000 C 
ATOM     14  C   UNL     1     -29.804  32.202   3.792  0.00  0.00    +0.000 C 
ENDROOT
BRANCH   3  15
ATOM     15  O   UNL     1     -32.468  29.328   1.330  0.00  0.00    -0.379 OA
ATOM     16  H   UNL     1     -32.496  30.295   1.257  0.00  0.00    +0.211 HD
ENDBRANCH   3  15
BRANCH   4  17
ATOM     17  O   UNL     1     -32.102  29.120   6.461  0.00  0.00    -0.383 OA
ATOM     18  H   UNL     1     -33.005  29.419   6.651  0.00  0.00    +0.211 HD
ENDBRANCH   4  17
BRANCH  10  20
ATOM     19  O   UNL     1     -35.463  31.065   3.562  0.00  0.00    -0.283 OA
ATOM     20  C   UNL     1     -34.432  30.893   2.926  0.00  0.00    +0.232 C 
ENDBRANCH  10  20
BRANCH   6  21
ATOM     21  O   UNL     1     -35.097  27.872   3.051  0.00  0.00    -0.446 OA
BRANCH  21  23
ATOM     22  O   UNL     1     -36.741  27.214   1.581  0.00  0.00    -0.245 OA
ATOM     23  C   UNL     1     -35.963  26.986   2.495  0.00  0.00    +0.344 C 
BRANCH  23  24
ATOM     24  C   UNL     1     -35.843  25.661   3.152  0.00  0.00    +0.105 C 
ATOM     25  C   UNL     1     -35.414  24.575   2.412  0.00  0.00    -0.010 C 
ATOM     26  C   UNL     1     -36.164  25.550   4.491  0.00  0.00    +0.143 C 
ATOM     27  C   UNL     1     -35.302  23.332   3.036  0.00  0.00    +0.033 C 
ATOM     28  C   UNL     1     -36.053  24.307   5.115  0.00  0.00    +0.074 C 
ATOM     29  C   UNL     1     -35.065  24.689   0.964  0.00  0.00    +0.031 C 
ATOM     30  C   UNL     1     -35.622  23.198   4.386  0.00  0.00    +0.141 C 
BRANCH  26  31
ATOM     31  O   UNL     1     -36.587  26.620   5.222  0.00  0.00    -0.505 OA
ATOM     32  H   UNL     1     -35.969  27.258   5.519  0.00  0.00    +0.292 HD
ENDBRANCH  26  31
BRANCH  30  33
ATOM     33  O   UNL     1     -35.514  21.985   4.994  0.00  0.00    -0.471 OA
ATOM     34  C   UNL     1     -35.253  21.983   6.397  0.00  0.00    +0.252 C 
ENDBRANCH  30  33
ENDBRANCH  23  24
ENDBRANCH  21  23
ENDBRANCH   6  21
TORSDOF 8
ENDMDL
MODEL 9
REMARK VINA RESULT:      -6.1      2.776      8.896
REMARK  Name = 195529
REMARK  8 active torsions:
REMARK  status: ('A' for Active; 'I' for Inactive)
REMARK    1  A    between atoms: C_3  and  O_15
REMARK    2  A    between atoms: C_4  and  O_17
REMARK    3  A    between atoms: C_6  and  O_21
REMARK    4  A    between atoms: C_10  and  C_20
REMARK    5  A    between atoms: O_21  and  C_23
REMARK    6  A    between atoms: C_23  and  C_24
REMARK    7  A    between atoms: C_26  and  O_31
REMARK    8  A    between atoms: C_30  and  O_33
REMARK                            x       y       z     vdW  Elec       q    Type
REMARK                         _______ _______ _______ _____ _____    ______ ____
ROOT
ATOM      1  C   UNL     1     -33.202  28.258   2.319  0.00  0.00    +0.036 C 
ATOM      2  C   UNL     1     -31.966  28.983   2.839  0.00  0.00    +0.031 C 
ATOM      3  C   UNL     1     -34.072  27.527   3.380  0.00  0.00    +0.146 C 
ATOM      4  C   UNL     1     -31.223  28.212   3.941  0.00  0.00    +0.107 C 
ATOM      5  C   UNL     1     -33.060  26.906   1.574  0.00  0.00    +0.049 C 
ATOM      6  C   UNL     1     -34.320  26.426   2.318  0.00  0.00    +0.197 C 
ATOM      7  C   UNL     1     -32.387  30.310   3.501  0.00  0.00    +0.003 C 
ATOM      8  C   UNL     1     -31.392  30.572   4.650  0.00  0.00    +0.003 C 
ATOM      9  C   UNL     1     -30.474  29.335   4.677  0.00  0.00    +0.031 C 
ATOM     10  C   UNL     1     -33.379  27.080   4.615  0.00  0.00    +0.045 C 
ATOM     11  C   UNL     1     -34.144  29.148   1.444  0.00  0.00    +0.003 C 
ATOM     12  C   UNL     1     -32.100  27.397   4.860  0.00  0.00    +0.001 C 
ATOM     13  C   UNL     1     -30.571  31.841   4.385  0.00  0.00    +0.000 C 
ATOM     14  C   UNL     1     -32.135  30.740   5.984  0.00  0.00    +0.000 C 
ENDROOT
BRANCH   3  15
ATOM     15  O   UNL     1     -35.294  28.228   3.721  0.00  0.00    -0.379 OA
ATOM     16  H   UNL     1     -35.189  29.173   3.532  0.00  0.00    +0.211 HD
ENDBRANCH   3  15
BRANCH   4  17
ATOM     17  O   UNL     1     -30.232  27.356   3.370  0.00  0.00    -0.383 OA
ATOM     18  H   UNL     1     -29.609  27.886   2.849  0.00  0.00    +0.211 HD
ENDBRANCH   4  17
BRANCH  10  20
ATOM     19  O   UNL     1     -35.305  26.294   5.730  0.00  0.00    -0.283 OA
ATOM     20  C   UNL     1     -34.087  26.275   5.615  0.00  0.00    +0.232 C 
ENDBRANCH  10  20
BRANCH   6  21
ATOM     21  O   UNL     1     -34.292  25.048   2.780  0.00  0.00    -0.446 OA
BRANCH  21  23
ATOM     22  O   UNL     1     -36.580  24.805   2.834  0.00  0.00    -0.245 OA
ATOM     23  C   UNL     1     -35.457  24.364   2.644  0.00  0.00    +0.344 C 
BRANCH  23  24
ATOM     24  C   UNL     1     -35.191  22.966   2.220  0.00  0.00    +0.105 C 
ATOM     25  C   UNL     1     -35.320  21.944   3.141  0.00  0.00    -0.010 C 
ATOM     26  C   UNL     1     -34.822  22.726   0.911  0.00  0.00    +0.143 C 
ATOM     27  C   UNL     1     -35.070  20.632   2.737  0.00  0.00    +0.033 C 
ATOM     28  C   UNL     1     -34.572  21.414   0.506  0.00  0.00    +0.074 C 
ATOM     29  C   UNL     1     -35.719  22.197   4.559  0.00  0.00    +0.031 C 
ATOM     30  C   UNL     1     -34.695  20.368   1.420  0.00  0.00    +0.141 C 
BRANCH  26  31
ATOM     31  O   UNL     1     -34.695  23.733   0.001  0.00  0.00    -0.505 OA
ATOM     32  H   UNL     1     -34.266  23.574  -0.817  0.00  0.00    +0.292 HD
ENDBRANCH  26  31
BRANCH  30  33
ATOM     33  O   UNL     1     -34.451  19.088   1.026  0.00  0.00    -0.471 OA
ATOM     34  C   UNL     1     -33.178  18.537   1.362  0.00  0.00    +0.252 C 
ENDBRANCH  30  33
ENDBRANCH  23  24
ENDBRANCH  21  23
ENDBRANCH   6  21
TORSDOF 8
ENDMDL
