MODEL 1
REMARK VINA RESULT:      -5.8      0.000      0.000
REMARK  Name = 5479529
REMARK  9 active torsions:
REMARK  status: ('A' for Active; 'I' for Inactive)
REMARK    1  A    between atoms: CA_5  and  N_11
REMARK    2  A    between atoms: CA_7  and  C_24
REMARK    3  A    between atoms: C_8  and  C_27
REMARK    4  A    between atoms: C_12  and  C_15
REMARK    5  A    between atoms: N_14  and  O_21
REMARK    6  A    between atoms: C_15  and  C_17
REMARK    7  A    between atoms: C_24  and  O_25
REMARK    8  A    between atoms: C_27  and  O_28
REMARK    9  A    between atoms: O_28  and  C_31
REMARK                            x       y       z     vdW  Elec       q    Type
REMARK                         _______ _______ _______ _____ _____    ______ ____
ROOT
ATOM      1  S   UNL     1     -33.221  25.964   1.737  0.00  0.00    -0.114 S 
ATOM      2  O   UNL     1     -34.180  26.300   6.273  0.00  0.00    -0.273 OA
ATOM      3  N   UNL     1     -34.501  25.622   4.038  0.00  0.00    -0.242 N 
ATOM      4  C   UNL     1     -34.357  26.610   2.984  0.00  0.00    +0.155 C 
ATOM      5  CA  UNL     1     -33.742  27.529   4.062  0.00  0.00    +0.179 C 
ATOM      6  C   UNL     1     -34.186  26.432   5.072  0.00  0.00    +0.251 C 
ATOM      7  CA  UNL     1     -34.853  24.329   3.817  0.00  0.00    +0.127 C 
ATOM      8  C   UNL     1     -34.813  23.787   2.575  0.00  0.00    +0.030 C 
ATOM      9  C   UNL     1     -34.283  24.531   1.351  0.00  0.00    +0.086 C 
ENDROOT
BRANCH   5  11
ATOM     10  O   UNL     1     -32.234  29.698   5.367  0.00  0.00    -0.268 OA
ATOM     11  N   UNL     1     -32.297  27.759   4.047  0.00  0.00    -0.291 N 
ATOM     12  C   UNL     1     -31.702  28.822   4.703  0.00  0.00    +0.270 C 
ATOM     13  H   UNL     1     -31.724  27.131   3.549  0.00  0.00    +0.150 HD
BRANCH  12  15
ATOM     14  N   UNL     1     -29.657  29.104   3.405  0.00  0.00    -0.075 NA
ATOM     15  C   UNL     1     -30.205  28.846   4.553  0.00  0.00    +0.207 C 
BRANCH  15  17
ATOM     16  O   UNL     1     -28.901  27.304   5.884  0.00  0.00    -0.449 OA
ATOM     17  C   UNL     1     -29.398  28.560   5.740  0.00  0.00    +0.171 C 
ATOM     18  C   UNL     1     -29.020  29.354   6.798  0.00  0.00    +0.043 C 
ATOM     19  C   UNL     1     -28.241  28.533   7.647  0.00  0.00    +0.044 C 
ATOM     20  C   UNL     1     -28.197  27.295   7.047  0.00  0.00    +0.180 C 
ENDBRANCH  15  17
BRANCH  14  21
ATOM     21  O   UNL     1     -30.621  29.340   2.414  0.00  0.00    -0.373 OA
ATOM     22  C   UNL     1     -30.067  28.963   1.163  0.00  0.00    +0.288 C 
ENDBRANCH  14  21
ENDBRANCH  12  15
ENDBRANCH   5  11
BRANCH   7  24
ATOM     23  OXT UNL     1     -34.448  22.800   5.591  0.00  0.00    -0.244 OA
ATOM     24  C   UNL     1     -35.217  23.527   4.993  0.00  0.00    +0.352 C 
BRANCH  24  25
ATOM     25  O   UNL     1     -36.515  23.729   5.289  0.00  0.00    -0.476 OA
ATOM     26  H   UNL     1     -36.750  24.211   6.058  0.00  0.00    +0.295 HD
ENDBRANCH  24  25
ENDBRANCH   7  24
BRANCH   8  27
ATOM     27  C   UNL     1     -35.265  22.387   2.236  0.00  0.00    +0.235 C 
BRANCH  27  28
ATOM     28  O   UNL     1     -36.511  22.445   1.575  0.00  0.00    -0.430 OA
BRANCH  28  31
ATOM     29  O   UNL     1     -38.175  23.051   3.047  0.00  0.00    -0.227 OA
ATOM     30  N   UNL     1     -38.041  20.907   2.226  0.00  0.00    -0.295 N 
ATOM     31  C   UNL     1     -37.623  22.210   2.344  0.00  0.00    +0.399 C 
ATOM     32  H   UNL     1     -37.550  20.284   1.643  0.00  0.00    +0.148 HD
ATOM     33  H   UNL     1     -38.831  20.596   2.725  0.00  0.00    +0.148 HD
ENDBRANCH  28  31
ENDBRANCH  27  28
ENDBRANCH   8  27
TORSDOF 9
ENDMDL
MODEL 2
REMARK VINA RESULT:      -5.8      3.722      8.471
REMARK  Name = 5479529
REMARK  9 active torsions:
REMARK  status: ('A' for Active; 'I' for Inactive)
REMARK    1  A    between atoms: CA_5  and  N_11
REMARK    2  A    between atoms: CA_7  and  C_24
REMARK    3  A    between atoms: C_8  and  C_27
REMARK    4  A    between atoms: C_12  and  C_15
REMARK    5  A    between atoms: N_14  and  O_21
REMARK    6  A    between atoms: C_15  and  C_17
REMARK    7  A    between atoms: C_24  and  O_25
REMARK    8  A    between atoms: C_27  and  O_28
REMARK    9  A    between atoms: O_28  and  C_31
REMARK                            x       y       z     vdW  Elec       q    Type
REMARK                         _______ _______ _______ _____ _____    ______ ____
ROOT
ATOM      1  S   UNL     1     -35.583  22.099   3.716  0.00  0.00    -0.114 S 
ATOM      2  O   UNL     1     -38.139  24.206   0.454  0.00  0.00    -0.273 OA
ATOM      3  N   UNL     1     -37.328  23.778   2.626  0.00  0.00    -0.242 N 
ATOM      4  C   UNL     1     -37.247  22.402   3.079  0.00  0.00    +0.155 C 
ATOM      5  CA  UNL     1     -37.503  22.004   1.609  0.00  0.00    +0.179 C 
ATOM      6  C   UNL     1     -37.773  23.518   1.377  0.00  0.00    +0.251 C 
ATOM      7  CA  UNL     1     -37.001  24.847   3.398  0.00  0.00    +0.127 C 
ATOM      8  C   UNL     1     -36.299  24.702   4.547  0.00  0.00    +0.030 C 
ATOM      9  C   UNL     1     -35.733  23.365   5.021  0.00  0.00    +0.086 C 
ENDROOT
BRANCH   5  11
ATOM     10  O   UNL     1     -37.259  19.356   0.340  0.00  0.00    -0.268 OA
ATOM     11  N   UNL     1     -36.387  21.482   0.820  0.00  0.00    -0.291 N 
ATOM     12  C   UNL     1     -36.389  20.211   0.272  0.00  0.00    +0.270 C 
ATOM     13  H   UNL     1     -35.602  22.057   0.673  0.00  0.00    +0.150 HD
BRANCH  12  15
ATOM     14  N   UNL     1     -34.968  20.376  -1.702  0.00  0.00    -0.075 NA
ATOM     15  C   UNL     1     -35.140  19.901  -0.506  0.00  0.00    +0.207 C 
BRANCH  15  17
ATOM     16  O   UNL     1     -34.001  17.774  -0.334  0.00  0.00    -0.449 OA
ATOM     17  C   UNL     1     -34.137  19.045   0.128  0.00  0.00    +0.171 C 
ATOM     18  C   UNL     1     -33.254  19.282   1.157  0.00  0.00    +0.043 C 
ATOM     19  C   UNL     1     -32.530  18.080   1.338  0.00  0.00    +0.044 C 
ATOM     20  C   UNL     1     -33.021  17.194   0.407  0.00  0.00    +0.180 C 
ENDBRANCH  15  17
BRANCH  14  21
ATOM     21  O   UNL     1     -36.056  21.162  -2.107  0.00  0.00    -0.373 OA
ATOM     22  C   UNL     1     -35.548  22.355  -2.682  0.00  0.00    +0.288 C 
ENDBRANCH  14  21
ENDBRANCH  12  15
ENDBRANCH   5  11
BRANCH   7  24
ATOM     23  OXT UNL     1     -36.654  26.906   2.261  0.00  0.00    -0.244 OA
ATOM     24  C   UNL     1     -37.387  26.174   2.897  0.00  0.00    +0.352 C 
BRANCH  24  25
ATOM     25  O   UNL     1     -38.661  26.434   3.251  0.00  0.00    -0.476 OA
ATOM     26  H   UNL     1     -39.143  25.808   3.756  0.00  0.00    +0.295 HD
ENDBRANCH  24  25
ENDBRANCH   7  24
BRANCH   8  27
ATOM     27  C   UNL     1     -35.968  25.827   5.498  0.00  0.00    +0.235 C 
BRANCH  27  28
ATOM     28  O   UNL     1     -34.566  25.934   5.627  0.00  0.00    -0.430 OA
BRANCH  28  31
ATOM     29  O   UNL     1     -33.017  25.765   3.933  0.00  0.00    -0.227 OA
ATOM     30  N   UNL     1     -34.297  27.659   4.183  0.00  0.00    -0.295 N 
ATOM     31  C   UNL     1     -33.884  26.395   4.529  0.00  0.00    +0.399 C 
ATOM     32  H   UNL     1     -35.000  28.107   4.708  0.00  0.00    +0.148 HD
ATOM     33  H   UNL     1     -33.891  28.115   3.412  0.00  0.00    +0.148 HD
ENDBRANCH  28  31
ENDBRANCH  27  28
ENDBRANCH   8  27
TORSDOF 9
ENDMDL
MODEL 3
REMARK VINA RESULT:      -5.7      4.255      7.985
REMARK  Name = 5479529
REMARK  9 active torsions:
REMARK  status: ('A' for Active; 'I' for Inactive)
REMARK    1  A    between atoms: CA_5  and  N_11
REMARK    2  A    between atoms: CA_7  and  C_24
REMARK    3  A    between atoms: C_8  and  C_27
REMARK    4  A    between atoms: C_12  and  C_15
REMARK    5  A    between atoms: N_14  and  O_21
REMARK    6  A    between atoms: C_15  and  C_17
REMARK    7  A    between atoms: C_24  and  O_25
REMARK    8  A    between atoms: C_27  and  O_28
REMARK    9  A    between atoms: O_28  and  C_31
REMARK                            x       y       z     vdW  Elec       q    Type
REMARK                         _______ _______ _______ _____ _____    ______ ____
ROOT
ATOM      1  S   UNL     1     -37.001  27.636   0.895  0.00  0.00    -0.114 S 
ATOM      2  O   UNL     1     -33.578  28.245   3.980  0.00  0.00    -0.273 OA
ATOM      3  N   UNL     1     -34.962  28.784   2.150  0.00  0.00    -0.242 N 
ATOM      4  C   UNL     1     -35.217  27.766   1.147  0.00  0.00    +0.155 C 
ATOM      5  CA  UNL     1     -34.590  26.766   2.143  0.00  0.00    +0.179 C 
ATOM      6  C   UNL     1     -34.207  28.024   2.973  0.00  0.00    +0.251 C 
ATOM      7  CA  UNL     1     -35.443  30.053   2.076  0.00  0.00    +0.127 C 
ATOM      8  C   UNL     1     -36.435  30.384   1.214  0.00  0.00    +0.030 C 
ATOM      9  C   UNL     1     -37.160  29.366   0.338  0.00  0.00    +0.086 C 
ENDROOT
BRANCH   5  11
ATOM     10  O   UNL     1     -34.971  23.884   1.661  0.00  0.00    -0.268 OA
ATOM     11  N   UNL     1     -35.471  25.841   2.856  0.00  0.00    -0.291 N 
ATOM     12  C   UNL     1     -35.564  24.498   2.534  0.00  0.00    +0.270 C 
ATOM     13  H   UNL     1     -36.021  26.188   3.596  0.00  0.00    +0.150 HD
BRANCH  12  15
ATOM     14  N   UNL     1     -37.808  23.875   3.255  0.00  0.00    -0.075 NA
ATOM     15  C   UNL     1     -36.525  23.745   3.412  0.00  0.00    +0.207 C 
BRANCH  15  17
ATOM     16  O   UNL     1     -35.991  23.316   5.732  0.00  0.00    -0.449 OA
ATOM     17  C   UNL     1     -35.965  22.874   4.446  0.00  0.00    +0.171 C 
ATOM     18  C   UNL     1     -35.386  21.629   4.374  0.00  0.00    +0.043 C 
ATOM     19  C   UNL     1     -35.032  21.283   5.700  0.00  0.00    +0.044 C 
ATOM     20  C   UNL     1     -35.422  22.341   6.488  0.00  0.00    +0.180 C 
ENDBRANCH  15  17
BRANCH  14  21
ATOM     21  O   UNL     1     -38.114  24.761   2.212  0.00  0.00    -0.373 OA
ATOM     22  C   UNL     1     -39.489  25.096   2.307  0.00  0.00    +0.288 C 
ENDBRANCH  14  21
ENDBRANCH  12  15
ENDBRANCH   5  11
BRANCH   7  24
ATOM     23  OXT UNL     1     -33.900  31.711   2.795  0.00  0.00    -0.244 OA
ATOM     24  C   UNL     1     -34.883  31.033   3.017  0.00  0.00    +0.352 C 
BRANCH  24  25
ATOM     25  O   UNL     1     -35.629  31.053   4.139  0.00  0.00    -0.476 OA
ATOM     26  H   UNL     1     -35.259  30.770   4.952  0.00  0.00    +0.295 HD
ENDBRANCH  24  25
ENDBRANCH   7  24
BRANCH   8  27
ATOM     27  C   UNL     1     -36.964  31.783   1.016  0.00  0.00    +0.235 C 
BRANCH  27  28
ATOM     28  O   UNL     1     -38.309  31.840   1.445  0.00  0.00    -0.430 OA
BRANCH  28  31
ATOM     29  O   UNL     1     -40.135  33.238   1.348  0.00  0.00    -0.227 OA
ATOM     30  N   UNL     1     -37.996  34.082   1.358  0.00  0.00    -0.295 N 
ATOM     31  C   UNL     1     -38.921  33.067   1.381  0.00  0.00    +0.399 C 
ATOM     32  H   UNL     1     -37.034  33.872   1.387  0.00  0.00    +0.148 HD
ATOM     33  H   UNL     1     -38.294  35.018   1.312  0.00  0.00    +0.148 HD
ENDBRANCH  28  31
ENDBRANCH  27  28
ENDBRANCH   8  27
TORSDOF 9
ENDMDL
MODEL 4
REMARK VINA RESULT:      -5.7      2.776      3.672
REMARK  Name = 5479529
REMARK  9 active torsions:
REMARK  status: ('A' for Active; 'I' for Inactive)
REMARK    1  A    between atoms: CA_5  and  N_11
REMARK    2  A    between atoms: CA_7  and  C_24
REMARK    3  A    between atoms: C_8  and  C_27
REMARK    4  A    between atoms: C_12  and  C_15
REMARK    5  A    between atoms: N_14  and  O_21
REMARK    6  A    between atoms: C_15  and  C_17
REMARK    7  A    between atoms: C_24  and  O_25
REMARK    8  A    between atoms: C_27  and  O_28
REMARK    9  A    between atoms: O_28  and  C_31
REMARK                            x       y       z     vdW  Elec       q    Type
REMARK                         _______ _______ _______ _____ _____    ______ ____
ROOT
ATOM      1  S   UNL     1     -33.683  26.064   3.280  0.00  0.00    -0.114 S 
ATOM      2  O   UNL     1     -37.197  28.405   1.335  0.00  0.00    -0.273 OA
ATOM      3  N   UNL     1     -35.961  26.507   1.990  0.00  0.00    -0.242 N 
ATOM      4  C   UNL     1     -34.531  26.490   1.742  0.00  0.00    +0.155 C 
ATOM      5  CA  UNL     1     -34.665  27.995   1.426  0.00  0.00    +0.179 C 
ATOM      6  C   UNL     1     -36.198  27.750   1.518  0.00  0.00    +0.251 C 
ATOM      7  CA  UNL     1     -36.644  25.471   2.542  0.00  0.00    +0.127 C 
ATOM      8  C   UNL     1     -36.003  24.457   3.173  0.00  0.00    +0.030 C 
ATOM      9  C   UNL     1     -34.494  24.435   3.406  0.00  0.00    +0.086 C 
ENDROOT
BRANCH   5  11
ATOM     10  O   UNL     1     -31.934  29.067   1.694  0.00  0.00    -0.268 OA
ATOM     11  N   UNL     1     -34.168  28.964   2.403  0.00  0.00    -0.291 N 
ATOM     12  C   UNL     1     -32.853  29.393   2.429  0.00  0.00    +0.270 C 
ATOM     13  H   UNL     1     -34.795  29.325   3.071  0.00  0.00    +0.150 HD
BRANCH  12  15
ATOM     14  N   UNL     1     -32.683  31.671   3.281  0.00  0.00    -0.075 NA
ATOM     15  C   UNL     1     -32.580  30.397   3.514  0.00  0.00    +0.207 C 
BRANCH  15  17
ATOM     16  O   UNL     1     -32.543  28.617   5.151  0.00  0.00    -0.449 OA
ATOM     17  C   UNL     1     -32.190  29.889   4.830  0.00  0.00    +0.171 C 
ATOM     18  C   UNL     1     -31.499  30.475   5.865  0.00  0.00    +0.043 C 
ATOM     19  C   UNL     1     -31.423  29.500   6.888  0.00  0.00    +0.044 C 
ATOM     20  C   UNL     1     -32.072  28.388   6.405  0.00  0.00    +0.180 C 
ENDBRANCH  15  17
BRANCH  14  21
ATOM     21  O   UNL     1     -33.061  31.924   1.955  0.00  0.00    -0.373 OA
ATOM     22  C   UNL     1     -34.058  32.934   1.967  0.00  0.00    +0.288 C 
ENDBRANCH  14  21
ENDBRANCH  12  15
ENDBRANCH   5  11
BRANCH   7  24
ATOM     23  OXT UNL     1     -38.789  24.928   1.675  0.00  0.00    -0.244 OA
ATOM     24  C   UNL     1     -38.111  25.532   2.483  0.00  0.00    +0.352 C 
BRANCH  24  25
ATOM     25  O   UNL     1     -38.566  26.350   3.452  0.00  0.00    -0.476 OA
ATOM     26  H   UNL     1     -38.991  25.991   4.206  0.00  0.00    +0.295 HD
ENDBRANCH  24  25
ENDBRANCH   7  24
BRANCH   8  27
ATOM     27  C   UNL     1     -36.683  23.235   3.739  0.00  0.00    +0.235 C 
BRANCH  27  28
ATOM     28  O   UNL     1     -36.084  22.895   4.972  0.00  0.00    -0.430 OA
BRANCH  28  31
ATOM     29  O   UNL     1     -35.355  20.897   4.093  0.00  0.00    -0.227 OA
ATOM     30  N   UNL     1     -34.788  21.528   6.230  0.00  0.00    -0.295 N 
ATOM     31  C   UNL     1     -35.406  21.703   5.016  0.00  0.00    +0.399 C 
ATOM     32  H   UNL     1     -34.871  22.218   6.928  0.00  0.00    +0.148 HD
ATOM     33  H   UNL     1     -34.264  20.713   6.403  0.00  0.00    +0.148 HD
ENDBRANCH  28  31
ENDBRANCH  27  28
ENDBRANCH   8  27
TORSDOF 9
ENDMDL
MODEL 5
REMARK VINA RESULT:      -5.6      3.314      6.087
REMARK  Name = 5479529
REMARK  9 active torsions:
REMARK  status: ('A' for Active; 'I' for Inactive)
REMARK    1  A    between atoms: CA_5  and  N_11
REMARK    2  A    between atoms: CA_7  and  C_24
REMARK    3  A    between atoms: C_8  and  C_27
REMARK    4  A    between atoms: C_12  and  C_15
REMARK    5  A    between atoms: N_14  and  O_21
REMARK    6  A    between atoms: C_15  and  C_17
REMARK    7  A    between atoms: C_24  and  O_25
REMARK    8  A    between atoms: C_27  and  O_28
REMARK    9  A    between atoms: O_28  and  C_31
REMARK                            x       y       z     vdW  Elec       q    Type
REMARK                         _______ _______ _______ _____ _____    ______ ____
ROOT
ATOM      1  S   UNL     1     -33.986  22.846   0.573  0.00  0.00    -0.114 S 
ATOM      2  O   UNL     1     -38.198  22.069   2.378  0.00  0.00    -0.273 OA
ATOM      3  N   UNL     1     -36.483  21.966   0.764  0.00  0.00    -0.242 N 
ATOM      4  C   UNL     1     -35.756  23.181   0.443  0.00  0.00    +0.155 C 
ATOM      5  CA  UNL     1     -36.431  23.798   1.688  0.00  0.00    +0.179 C 
ATOM      6  C   UNL     1     -37.276  22.493   1.722  0.00  0.00    +0.251 C 
ATOM      7  CA  UNL     1     -36.263  20.772   0.155  0.00  0.00    +0.127 C 
ATOM      8  C   UNL     1     -35.152  20.552  -0.589  0.00  0.00    +0.030 C 
ATOM      9  C   UNL     1     -34.020  21.566  -0.727  0.00  0.00    +0.086 C 
ENDROOT
BRANCH   5  11
ATOM     10  O   UNL     1     -37.100  25.405   4.065  0.00  0.00    -0.268 OA
ATOM     11  N   UNL     1     -35.626  24.005   2.891  0.00  0.00    -0.291 N 
ATOM     12  C   UNL     1     -36.052  24.789   3.950  0.00  0.00    +0.270 C 
ATOM     13  H   UNL     1     -34.745  23.570   2.951  0.00  0.00    +0.150 HD
BRANCH  12  15
ATOM     14  N   UNL     1     -35.038  23.918   5.988  0.00  0.00    -0.075 NA
ATOM     15  C   UNL     1     -35.061  24.845   5.080  0.00  0.00    +0.207 C 
BRANCH  15  17
ATOM     16  O   UNL     1     -33.834  26.595   3.947  0.00  0.00    -0.449 OA
ATOM     17  C   UNL     1     -34.135  25.978   5.120  0.00  0.00    +0.171 C 
ATOM     18  C   UNL     1     -33.472  26.577   6.165  0.00  0.00    +0.043 C 
ATOM     19  C   UNL     1     -32.715  27.630   5.599  0.00  0.00    +0.044 C 
ATOM     20  C   UNL     1     -32.970  27.600   4.247  0.00  0.00    +0.180 C 
ENDBRANCH  15  17
BRANCH  14  21
ATOM     21  O   UNL     1     -36.014  22.939   5.752  0.00  0.00    -0.373 OA
ATOM     22  C   UNL     1     -35.441  21.670   6.025  0.00  0.00    +0.288 C 
ENDBRANCH  14  21
ENDBRANCH  12  15
ENDBRANCH   5  11
BRANCH   7  24
ATOM     23  OXT UNL     1     -38.246  19.537  -0.282  0.00  0.00    -0.244 OA
ATOM     24  C   UNL     1     -37.251  19.710   0.393  0.00  0.00    +0.352 C 
BRANCH  24  25
ATOM     25  O   UNL     1     -36.873  18.979   1.460  0.00  0.00    -0.476 OA
ATOM     26  H   UNL     1     -36.360  18.204   1.338  0.00  0.00    +0.295 HD
ENDBRANCH  24  25
ENDBRANCH   7  24
BRANCH   8  27
ATOM     27  C   UNL     1     -34.876  19.284  -1.361  0.00  0.00    +0.235 C 
BRANCH  27  28
ATOM     28  O   UNL     1     -33.708  18.673  -0.853  0.00  0.00    -0.430 OA
BRANCH  28  31
ATOM     29  O   UNL     1     -33.207  18.303   1.363  0.00  0.00    -0.227 OA
ATOM     30  N   UNL     1     -34.750  17.000   0.263  0.00  0.00    -0.295 N 
ATOM     31  C   UNL     1     -33.833  18.018   0.347  0.00  0.00    +0.399 C 
ATOM     32  H   UNL     1     -35.216  16.826  -0.586  0.00  0.00    +0.148 HD
ATOM     33  H   UNL     1     -34.941  16.443   1.052  0.00  0.00    +0.148 HD
ENDBRANCH  28  31
ENDBRANCH  27  28
ENDBRANCH   8  27
TORSDOF 9
ENDMDL
MODEL 6
REMARK VINA RESULT:      -5.6      4.624      6.191
REMARK  Name = 5479529
REMARK  9 active torsions:
REMARK  status: ('A' for Active; 'I' for Inactive)
REMARK    1  A    between atoms: CA_5  and  N_11
REMARK    2  A    between atoms: CA_7  and  C_24
REMARK    3  A    between atoms: C_8  and  C_27
REMARK    4  A    between atoms: C_12  and  C_15
REMARK    5  A    between atoms: N_14  and  O_21
REMARK    6  A    between atoms: C_15  and  C_17
REMARK    7  A    between atoms: C_24  and  O_25
REMARK    8  A    between atoms: C_27  and  O_28
REMARK    9  A    between atoms: O_28  and  C_31
REMARK                            x       y       z     vdW  Elec       q    Type
REMARK                         _______ _______ _______ _____ _____    ______ ____
ROOT
ATOM      1  S   UNL     1     -34.453  28.190   3.366  0.00  0.00    -0.114 S 
ATOM      2  O   UNL     1     -38.432  27.471   1.073  0.00  0.00    -0.273 OA
ATOM      3  N   UNL     1     -36.506  26.886   2.300  0.00  0.00    -0.242 N 
ATOM      4  C   UNL     1     -35.231  27.459   1.908  0.00  0.00    +0.155 C 
ATOM      5  CA  UNL     1     -36.046  28.418   1.013  0.00  0.00    +0.179 C 
ATOM      6  C   UNL     1     -37.266  27.528   1.386  0.00  0.00    +0.251 C 
ATOM      7  CA  UNL     1     -36.652  25.994   3.313  0.00  0.00    +0.127 C 
ATOM      8  C   UNL     1     -35.670  25.790   4.224  0.00  0.00    +0.030 C 
ATOM      9  C   UNL     1     -34.376  26.600   4.258  0.00  0.00    +0.086 C 
ENDROOT
BRANCH   5  11
ATOM     10  O   UNL     1     -36.173  30.818  -0.692  0.00  0.00    -0.268 OA
ATOM     11  N   UNL     1     -36.192  29.813   1.429  0.00  0.00    -0.291 N 
ATOM     12  C   UNL     1     -36.239  30.861   0.527  0.00  0.00    +0.270 C 
ATOM     13  H   UNL     1     -36.259  30.014   2.390  0.00  0.00    +0.150 HD
BRANCH  12  15
ATOM     14  N   UNL     1     -37.580  32.637   1.522  0.00  0.00    -0.075 NA
ATOM     15  C   UNL     1     -36.403  32.202   1.187  0.00  0.00    +0.207 C 
BRANCH  15  17
ATOM     16  O   UNL     1     -34.102  32.355   1.919  0.00  0.00    -0.449 OA
ATOM     17  C   UNL     1     -35.197  32.995   1.429  0.00  0.00    +0.171 C 
ATOM     18  C   UNL     1     -34.935  34.334   1.250  0.00  0.00    +0.043 C 
ATOM     19  C   UNL     1     -33.593  34.529   1.656  0.00  0.00    +0.044 C 
ATOM     20  C   UNL     1     -33.131  33.296   2.053  0.00  0.00    +0.180 C 
ENDBRANCH  15  17
BRANCH  14  21
ATOM     21  O   UNL     1     -38.584  31.717   1.191  0.00  0.00    -0.373 OA
ATOM     22  C   UNL     1     -39.656  32.430   0.595  0.00  0.00    +0.288 C 
ENDBRANCH  14  21
ENDBRANCH  12  15
ENDBRANCH   5  11
BRANCH   7  24
ATOM     23  OXT UNL     1     -38.098  24.108   3.286  0.00  0.00    -0.244 OA
ATOM     24  C   UNL     1     -37.947  25.306   3.415  0.00  0.00    +0.352 C 
BRANCH  24  25
ATOM     25  O   UNL     1     -38.914  26.209   3.669  0.00  0.00    -0.476 OA
ATOM     26  H   UNL     1     -39.746  25.924   3.995  0.00  0.00    +0.295 HD
ENDBRANCH  24  25
ENDBRANCH   7  24
BRANCH   8  27
ATOM     27  C   UNL     1     -35.724  24.761   5.327  0.00  0.00    +0.235 C 
BRANCH  27  28
ATOM     28  O   UNL     1     -34.840  23.702   5.023  0.00  0.00    -0.430 OA
BRANCH  28  31
ATOM     29  O   UNL     1     -34.858  21.694   6.148  0.00  0.00    -0.227 OA
ATOM     30  N   UNL     1     -36.315  22.094   4.414  0.00  0.00    -0.295 N 
ATOM     31  C   UNL     1     -35.298  22.433   5.273  0.00  0.00    +0.399 C 
ATOM     32  H   UNL     1     -36.618  22.737   3.733  0.00  0.00    +0.148 HD
ATOM     33  H   UNL     1     -36.739  21.208   4.478  0.00  0.00    +0.148 HD
ENDBRANCH  28  31
ENDBRANCH  27  28
ENDBRANCH   8  27
TORSDOF 9
ENDMDL
MODEL 7
REMARK VINA RESULT:      -5.6      4.471      6.398
REMARK  Name = 5479529
REMARK  9 active torsions:
REMARK  status: ('A' for Active; 'I' for Inactive)
REMARK    1  A    between atoms: CA_5  and  N_11
REMARK    2  A    between atoms: CA_7  and  C_24
REMARK    3  A    between atoms: C_8  and  C_27
REMARK    4  A    between atoms: C_12  and  C_15
REMARK    5  A    between atoms: N_14  and  O_21
REMARK    6  A    between atoms: C_15  and  C_17
REMARK    7  A    between atoms: C_24  and  O_25
REMARK    8  A    between atoms: C_27  and  O_28
REMARK    9  A    between atoms: O_28  and  C_31
REMARK                            x       y       z     vdW  Elec       q    Type
REMARK                         _______ _______ _______ _____ _____    ______ ____
ROOT
ATOM      1  S   UNL     1     -34.191  27.715   3.360  0.00  0.00    -0.114 S 
ATOM      2  O   UNL     1     -38.284  27.123   1.239  0.00  0.00    -0.273 OA
ATOM      3  N   UNL     1     -36.327  26.478   2.383  0.00  0.00    -0.242 N 
ATOM      4  C   UNL     1     -35.053  27.011   1.937  0.00  0.00    +0.155 C 
ATOM      5  CA  UNL     1     -35.876  27.995   1.077  0.00  0.00    +0.179 C 
ATOM      6  C   UNL     1     -37.105  27.143   1.502  0.00  0.00    +0.251 C 
ATOM      7  CA  UNL     1     -36.458  25.589   3.403  0.00  0.00    +0.127 C 
ATOM      8  C   UNL     1     -35.444  25.355   4.271  0.00  0.00    +0.030 C 
ATOM      9  C   UNL     1     -34.125  26.124   4.249  0.00  0.00    +0.086 C 
ENDROOT
BRANCH   5  11
ATOM     10  O   UNL     1     -35.514  30.411  -0.570  0.00  0.00    -0.268 OA
ATOM     11  N   UNL     1     -35.959  29.393   1.497  0.00  0.00    -0.291 N 
ATOM     12  C   UNL     1     -35.768  30.450   0.624  0.00  0.00    +0.270 C 
ATOM     13  H   UNL     1     -36.159  29.592   2.441  0.00  0.00    +0.150 HD
BRANCH  12  15
ATOM     14  N   UNL     1     -34.899  32.365   1.856  0.00  0.00    -0.075 NA
ATOM     15  C   UNL     1     -35.914  31.794   1.282  0.00  0.00    +0.207 C 
BRANCH  15  17
ATOM     16  O   UNL     1     -38.311  31.637   1.003  0.00  0.00    -0.449 OA
ATOM     17  C   UNL     1     -37.234  32.425   1.258  0.00  0.00    +0.171 C 
ATOM     18  C   UNL     1     -37.624  33.730   1.452  0.00  0.00    +0.043 C 
ATOM     19  C   UNL     1     -39.032  33.744   1.307  0.00  0.00    +0.044 C 
ATOM     20  C   UNL     1     -39.401  32.447   1.035  0.00  0.00    +0.180 C 
ENDBRANCH  15  17
BRANCH  14  21
ATOM     21  O   UNL     1     -33.742  31.579   1.762  0.00  0.00    -0.373 OA
ATOM     22  C   UNL     1     -33.177  31.469   3.059  0.00  0.00    +0.288 C 
ENDBRANCH  14  21
ENDBRANCH  12  15
ENDBRANCH   5  11
BRANCH   7  24
ATOM     23  OXT UNL     1     -37.963  23.750   3.434  0.00  0.00    -0.244 OA
ATOM     24  C   UNL     1     -37.769  24.943   3.559  0.00  0.00    +0.352 C 
BRANCH  24  25
ATOM     25  O   UNL     1     -38.694  25.875   3.860  0.00  0.00    -0.476 OA
ATOM     26  H   UNL     1     -38.973  26.486   3.206  0.00  0.00    +0.295 HD
ENDBRANCH  24  25
ENDBRANCH   7  24
BRANCH   8  27
ATOM     27  C   UNL     1     -35.484  24.327   5.376  0.00  0.00    +0.235 C 
BRANCH  27  28
ATOM     28  O   UNL     1     -34.740  23.192   4.986  0.00  0.00    -0.430 OA
BRANCH  28  31
ATOM     29  O   UNL     1     -35.255  21.022   4.417  0.00  0.00    -0.227 OA
ATOM     30  N   UNL     1     -36.026  21.949   6.375  0.00  0.00    -0.295 N 
ATOM     31  C   UNL     1     -35.333  21.972   5.190  0.00  0.00    +0.399 C 
ATOM     32  H   UNL     1     -36.046  22.749   6.949  0.00  0.00    +0.148 HD
ATOM     33  H   UNL     1     -36.504  21.134   6.651  0.00  0.00    +0.148 HD
ENDBRANCH  28  31
ENDBRANCH  27  28
ENDBRANCH   8  27
TORSDOF 9
ENDMDL
MODEL 8
REMARK VINA RESULT:      -5.6      3.265      4.641
REMARK  Name = 5479529
REMARK  9 active torsions:
REMARK  status: ('A' for Active; 'I' for Inactive)
REMARK    1  A    between atoms: CA_5  and  N_11
REMARK    2  A    between atoms: CA_7  and  C_24
REMARK    3  A    between atoms: C_8  and  C_27
REMARK    4  A    between atoms: C_12  and  C_15
REMARK    5  A    between atoms: N_14  and  O_21
REMARK    6  A    between atoms: C_15  and  C_17
REMARK    7  A    between atoms: C_24  and  O_25
REMARK    8  A    between atoms: C_27  and  O_28
REMARK    9  A    between atoms: O_28  and  C_31
REMARK                            x       y       z     vdW  Elec       q    Type
REMARK                         _______ _______ _______ _____ _____    ______ ____
ROOT
ATOM      1  S   UNL     1     -34.392  26.149   2.889  0.00  0.00    -0.114 S 
ATOM      2  O   UNL     1     -38.775  26.923   1.547  0.00  0.00    -0.273 OA
ATOM      3  N   UNL     1     -36.864  25.643   2.060  0.00  0.00    -0.242 N 
ATOM      4  C   UNL     1     -35.580  26.066   1.530  0.00  0.00    +0.155 C 
ATOM      5  CA  UNL     1     -36.282  27.388   1.150  0.00  0.00    +0.179 C 
ATOM      6  C   UNL     1     -37.595  26.665   1.566  0.00  0.00    +0.251 C 
ATOM      7  CA  UNL     1     -37.039  24.521   2.806  0.00  0.00    +0.127 C 
ATOM      8  C   UNL     1     -35.988  23.867   3.358  0.00  0.00    +0.030 C 
ATOM      9  C   UNL     1     -34.550  24.375   3.283  0.00  0.00    +0.086 C 
ENDROOT
BRANCH   5  11
ATOM     10  O   UNL     1     -34.598  29.692   0.418  0.00  0.00    -0.268 OA
ATOM     11  N   UNL     1     -35.999  28.585   1.941  0.00  0.00    -0.291 N 
ATOM     12  C   UNL     1     -35.184  29.607   1.485  0.00  0.00    +0.270 C 
ATOM     13  H   UNL     1     -36.403  28.667   2.835  0.00  0.00    +0.150 HD
BRANCH  12  15
ATOM     14  N   UNL     1     -36.017  31.585   2.641  0.00  0.00    -0.075 NA
ATOM     15  C   UNL     1     -35.049  30.738   2.468  0.00  0.00    +0.207 C 
BRANCH  15  17
ATOM     16  O   UNL     1     -33.558  29.953   4.204  0.00  0.00    -0.449 OA
ATOM     17  C   UNL     1     -33.792  30.850   3.210  0.00  0.00    +0.171 C 
ATOM     18  C   UNL     1     -32.742  31.730   3.095  0.00  0.00    +0.043 C 
ATOM     19  C   UNL     1     -31.802  31.351   4.083  0.00  0.00    +0.044 C 
ATOM     20  C   UNL     1     -32.345  30.265   4.730  0.00  0.00    +0.180 C 
ENDBRANCH  15  17
BRANCH  14  21
ATOM     21  O   UNL     1     -37.117  31.288   1.824  0.00  0.00    -0.373 OA
ATOM     22  C   UNL     1     -37.916  32.455   1.717  0.00  0.00    +0.288 C 
ENDBRANCH  14  21
ENDBRANCH  12  15
ENDBRANCH   5  11
BRANCH   7  24
ATOM     23  OXT UNL     1     -38.966  23.179   2.442  0.00  0.00    -0.244 OA
ATOM     24  C   UNL     1     -38.423  24.086   3.040  0.00  0.00    +0.352 C 
BRANCH  24  25
ATOM     25  O   UNL     1     -38.973  24.844   4.009  0.00  0.00    -0.476 OA
ATOM     26  H   UNL     1     -38.571  24.887   4.855  0.00  0.00    +0.295 HD
ENDBRANCH  24  25
ENDBRANCH   7  24
BRANCH   8  27
ATOM     27  C   UNL     1     -36.093  22.574   4.129  0.00  0.00    +0.235 C 
BRANCH  27  28
ATOM     28  O   UNL     1     -35.409  21.555   3.429  0.00  0.00    -0.430 OA
BRANCH  28  31
ATOM     29  O   UNL     1     -35.478  21.190   1.157  0.00  0.00    -0.227 OA
ATOM     30  N   UNL     1     -37.231  20.570   2.510  0.00  0.00    -0.295 N 
ATOM     31  C   UNL     1     -35.993  21.113   2.268  0.00  0.00    +0.399 C 
ATOM     32  H   UNL     1     -37.583  20.541   3.429  0.00  0.00    +0.148 HD
ATOM     33  H   UNL     1     -37.765  20.212   1.766  0.00  0.00    +0.148 HD
ENDBRANCH  28  31
ENDBRANCH  27  28
ENDBRANCH   8  27
TORSDOF 9
ENDMDL
MODEL 9
REMARK VINA RESULT:      -5.5      2.177      2.524
REMARK  Name = 5479529
REMARK  9 active torsions:
REMARK  status: ('A' for Active; 'I' for Inactive)
REMARK    1  A    between atoms: CA_5  and  N_11
REMARK    2  A    between atoms: CA_7  and  C_24
REMARK    3  A    between atoms: C_8  and  C_27
REMARK    4  A    between atoms: C_12  and  C_15
REMARK    5  A    between atoms: N_14  and  O_21
REMARK    6  A    between atoms: C_15  and  C_17
REMARK    7  A    between atoms: C_24  and  O_25
REMARK    8  A    between atoms: C_27  and  O_28
REMARK    9  A    between atoms: O_28  and  C_31
REMARK                            x       y       z     vdW  Elec       q    Type
REMARK                         _______ _______ _______ _____ _____    ______ ____
ROOT
ATOM      1  S   UNL     1     -33.971  25.547   0.828  0.00  0.00    -0.114 S 
ATOM      2  O   UNL     1     -36.101  25.998   4.935  0.00  0.00    -0.273 OA
ATOM      3  N   UNL     1     -35.620  25.024   2.842  0.00  0.00    -0.242 N 
ATOM      4  C   UNL     1     -35.528  25.887   1.679  0.00  0.00    +0.155 C 
ATOM      5  CA  UNL     1     -35.522  27.068   2.674  0.00  0.00    +0.179 C 
ATOM      6  C   UNL     1     -35.844  25.996   3.754  0.00  0.00    +0.251 C 
ATOM      7  CA  UNL     1     -35.485  23.674   2.793  0.00  0.00    +0.127 C 
ATOM      8  C   UNL     1     -34.966  23.054   1.705  0.00  0.00    +0.030 C 
ATOM      9  C   UNL     1     -34.402  23.804   0.501  0.00  0.00    +0.086 C 
ENDROOT
BRANCH   5  11
ATOM     10  O   UNL     1     -35.126  29.950   3.144  0.00  0.00    -0.268 OA
ATOM     11  N   UNL     1     -34.266  27.778   2.912  0.00  0.00    -0.291 N 
ATOM     12  C   UNL     1     -34.208  29.146   3.121  0.00  0.00    +0.270 C 
ATOM     13  H   UNL     1     -33.427  27.263   2.924  0.00  0.00    +0.150 HD
BRANCH  12  15
ATOM     14  N   UNL     1     -32.108  30.135   2.376  0.00  0.00    -0.075 NA
ATOM     15  C   UNL     1     -32.810  29.648   3.354  0.00  0.00    +0.207 C 
BRANCH  15  17
ATOM     16  O   UNL     1     -32.540  28.440   5.432  0.00  0.00    -0.449 OA
ATOM     17  C   UNL     1     -32.272  29.562   4.713  0.00  0.00    +0.171 C 
ATOM     18  C   UNL     1     -31.507  30.437   5.448  0.00  0.00    +0.043 C 
ATOM     19  C   UNL     1     -31.291  29.814   6.700  0.00  0.00    +0.044 C 
ATOM     20  C   UNL     1     -31.939  28.601   6.640  0.00  0.00    +0.180 C 
ENDBRANCH  15  17
BRANCH  14  21
ATOM     21  O   UNL     1     -32.820  30.114   1.169  0.00  0.00    -0.373 OA
ATOM     22  C   UNL     1     -32.747  31.408   0.591  0.00  0.00    +0.288 C 
ENDBRANCH  14  21
ENDBRANCH  12  15
ENDBRANCH   5  11
BRANCH   7  24
ATOM     23  OXT UNL     1     -35.117  22.685   4.922  0.00  0.00    -0.244 OA
ATOM     24  C   UNL     1     -35.867  22.921   3.996  0.00  0.00    +0.352 C 
BRANCH  24  25
ATOM     25  O   UNL     1     -37.158  22.548   3.900  0.00  0.00    -0.476 OA
ATOM     26  H   UNL     1     -37.837  23.149   4.139  0.00  0.00    +0.295 HD
ENDBRANCH  24  25
ENDBRANCH   7  24
BRANCH   8  27
ATOM     27  C   UNL     1     -34.860  21.557   1.541  0.00  0.00    +0.235 C 
BRANCH  27  28
ATOM     28  O   UNL     1     -35.811  21.122   0.592  0.00  0.00    -0.430 OA
BRANCH  28  31
ATOM     29  O   UNL     1     -38.082  20.749   0.574  0.00  0.00    -0.227 OA
ATOM     30  N   UNL     1     -36.754  19.892   2.244  0.00  0.00    -0.295 N 
ATOM     31  C   UNL     1     -36.979  20.602   1.090  0.00  0.00    +0.399 C 
ATOM     32  H   UNL     1     -35.840  19.814   2.603  0.00  0.00    +0.148 HD
ATOM     33  H   UNL     1     -37.505  19.462   2.712  0.00  0.00    +0.148 HD
ENDBRANCH  28  31
ENDBRANCH  27  28
ENDBRANCH   8  27
TORSDOF 9
ENDMDL
