MODEL 1
REMARK VINA RESULT:      -5.8      0.000      0.000
REMARK  Name = 52415
REMARK  15 active torsions:
REMARK  status: ('A' for Active; 'I' for Inactive)
REMARK    1  A    between atoms: C_1  and  C_7
REMARK    2  A    between atoms: C_2  and  O_27
REMARK    3  A    between atoms: C_4  and  N_24
REMARK    4  A    between atoms: C_8  and  O_16
REMARK    5  A    between atoms: C_10  and  N_13
REMARK    6  A    between atoms: O_16  and  C_17
REMARK    7  A    between atoms: C_17  and  C_18
REMARK    8  A    between atoms: C_18  and  C_19
REMARK    9  A    between atoms: C_19  and  C_21
REMARK   10  A    between atoms: C_21  and  O_22
REMARK   11  A    between atoms: O_27  and  C_28
REMARK   12  A    between atoms: C_28  and  C_29
REMARK   13  A    between atoms: C_29  and  C_30
REMARK   14  A    between atoms: C_30  and  C_32
REMARK   15  A    between atoms: C_32  and  O_33
REMARK                            x       y       z     vdW  Elec       q    Type
REMARK                         _______ _______ _______ _____ _____    ______ ____
ROOT
ATOM      1  C   UNL     1     -33.457  26.606   4.468  0.00  0.00    +0.001 C 
ATOM      2  C   UNL     1     -31.383  28.393   5.003  0.00  0.00    +0.151 C 
ATOM      3  C   UNL     1     -33.243  27.056   5.771  0.00  0.00    +0.017 C 
ATOM      4  C   UNL     1     -32.205  27.950   6.038  0.00  0.00    +0.076 C 
ATOM      5  C   UNL     1     -32.635  27.050   3.432  0.00  0.00    +0.003 C 
ATOM      6  C   UNL     1     -31.598  27.943   3.700  0.00  0.00    +0.038 C 
ENDROOT
BRANCH   1   7
ATOM      7  C   UNL     1     -34.534  25.680   4.190  0.00  0.00    +0.001 C 
ATOM      8  C   UNL     1     -36.610  23.896   3.651  0.00  0.00    +0.151 C 
ATOM      9  C   UNL     1     -34.759  24.596   5.037  0.00  0.00    +0.017 C 
ATOM     10  C   UNL     1     -35.796  23.704   4.767  0.00  0.00    +0.076 C 
ATOM     11  C   UNL     1     -35.347  25.873   3.073  0.00  0.00    +0.003 C 
ATOM     12  C   UNL     1     -36.385  24.982   2.803  0.00  0.00    +0.038 C 
BRANCH  10  13
ATOM     13  N   UNL     1     -36.014  22.610   5.633  0.00  0.00    -0.355 N 
ATOM     14  H   UNL     1     -36.860  22.538   6.132  0.00  0.00    +0.142 HD
ATOM     15  H   UNL     1     -35.319  21.921   5.740  0.00  0.00    +0.142 HD
ENDBRANCH  10  13
BRANCH   8  16
ATOM     16  O   UNL     1     -37.635  23.031   3.368  0.00  0.00    -0.474 OA
BRANCH  16  17
ATOM     17  C   UNL     1     -37.897  22.774   1.996  0.00  0.00    +0.206 C 
BRANCH  17  18
ATOM     18  C   UNL     1     -37.627  21.308   1.681  0.00  0.00    +0.059 C 
BRANCH  18  19
ATOM     19  C   UNL     1     -36.200  21.077   1.179  0.00  0.00    +0.113 C 
BRANCH  19  21
ATOM     20  O   UNL     1     -34.285  19.810   1.993  0.00  0.00    -0.250 OA
ATOM     21  C   UNL     1     -35.345  20.379   2.213  0.00  0.00    +0.314 C 
BRANCH  21  22
ATOM     22  O   UNL     1     -35.905  20.455   3.450  0.00  0.00    -0.480 OA
ATOM     23  H   UNL     1     -36.712  20.913   3.571  0.00  0.00    +0.295 HD
ENDBRANCH  21  22
ENDBRANCH  19  21
ENDBRANCH  18  19
ENDBRANCH  17  18
ENDBRANCH  16  17
ENDBRANCH   8  16
ENDBRANCH   1   7
BRANCH   4  24
ATOM     24  N   UNL     1     -31.998  28.395   7.361  0.00  0.00    -0.355 N 
ATOM     25  H   UNL     1     -32.238  27.814   8.119  0.00  0.00    +0.142 HD
ATOM     26  H   UNL     1     -31.614  29.287   7.527  0.00  0.00    +0.142 HD
ENDBRANCH   4  24
BRANCH   2  27
ATOM     27  O   UNL     1     -30.364  29.266   5.242  0.00  0.00    -0.474 OA
BRANCH  27  28
ATOM     28  C   UNL     1     -29.038  28.790   5.023  0.00  0.00    +0.206 C 
BRANCH  28  29
ATOM     29  C   UNL     1     -28.605  27.900   6.181  0.00  0.00    +0.059 C 
BRANCH  29  30
ATOM     30  C   UNL     1     -27.479  28.528   7.004  0.00  0.00    +0.113 C 
BRANCH  30  32
ATOM     31  O   UNL     1     -27.350  30.496   8.432  0.00  0.00    -0.250 OA
ATOM     32  C   UNL     1     -27.999  29.567   7.971  0.00  0.00    +0.314 C 
BRANCH  32  33
ATOM     33  O   UNL     1     -29.304  29.347   8.282  0.00  0.00    -0.480 OA
ATOM     34  H   UNL     1     -29.531  28.688   8.908  0.00  0.00    +0.295 HD
ENDBRANCH  32  33
ENDBRANCH  30  32
ENDBRANCH  29  30
ENDBRANCH  28  29
ENDBRANCH  27  28
ENDBRANCH   2  27
TORSDOF 15
ENDMDL
MODEL 2
REMARK VINA RESULT:      -5.8      1.479      9.102
REMARK  Name = 52415
REMARK  15 active torsions:
REMARK  status: ('A' for Active; 'I' for Inactive)
REMARK    1  A    between atoms: C_1  and  C_7
REMARK    2  A    between atoms: C_2  and  O_27
REMARK    3  A    between atoms: C_4  and  N_24
REMARK    4  A    between atoms: C_8  and  O_16
REMARK    5  A    between atoms: C_10  and  N_13
REMARK    6  A    between atoms: O_16  and  C_17
REMARK    7  A    between atoms: C_17  and  C_18
REMARK    8  A    between atoms: C_18  and  C_19
REMARK    9  A    between atoms: C_19  and  C_21
REMARK   10  A    between atoms: C_21  and  O_22
REMARK   11  A    between atoms: O_27  and  C_28
REMARK   12  A    between atoms: C_28  and  C_29
REMARK   13  A    between atoms: C_29  and  C_30
REMARK   14  A    between atoms: C_30  and  C_32
REMARK   15  A    between atoms: C_32  and  O_33
REMARK                            x       y       z     vdW  Elec       q    Type
REMARK                         _______ _______ _______ _____ _____    ______ ____
ROOT
ATOM      1  C   UNL     1     -34.505  26.036   4.766  0.00  0.00    +0.001 C 
ATOM      2  C   UNL     1     -36.554  24.255   4.127  0.00  0.00    +0.151 C 
ATOM      3  C   UNL     1     -34.661  24.860   5.500  0.00  0.00    +0.017 C 
ATOM      4  C   UNL     1     -35.686  23.970   5.179  0.00  0.00    +0.076 C 
ATOM      5  C   UNL     1     -35.374  26.322   3.713  0.00  0.00    +0.003 C 
ATOM      6  C   UNL     1     -36.398  25.432   3.393  0.00  0.00    +0.038 C 
ENDROOT
BRANCH   1   7
ATOM      7  C   UNL     1     -33.442  26.961   5.097  0.00  0.00    +0.001 C 
ATOM      8  C   UNL     1     -31.391  28.741   5.736  0.00  0.00    +0.151 C 
ATOM      9  C   UNL     1     -32.835  27.714   4.093  0.00  0.00    +0.017 C 
ATOM     10  C   UNL     1     -31.810  28.604   4.412  0.00  0.00    +0.076 C 
ATOM     11  C   UNL     1     -33.024  27.097   6.421  0.00  0.00    +0.003 C 
ATOM     12  C   UNL     1     -31.999  27.986   6.740  0.00  0.00    +0.038 C 
BRANCH  10  13
ATOM     13  N   UNL     1     -31.204  29.362   3.387  0.00  0.00    -0.355 N 
ATOM     14  H   UNL     1     -31.313  29.094   2.446  0.00  0.00    +0.142 HD
ATOM     15  H   UNL     1     -30.672  30.160   3.613  0.00  0.00    +0.142 HD
ENDBRANCH  10  13
BRANCH   8  16
ATOM     16  O   UNL     1     -30.386  29.610   6.071  0.00  0.00    -0.474 OA
BRANCH  16  17
ATOM     17  C   UNL     1     -29.604  29.278   7.209  0.00  0.00    +0.206 C 
BRANCH  17  18
ATOM     18  C   UNL     1     -28.191  28.905   6.779  0.00  0.00    +0.059 C 
BRANCH  18  19
ATOM     19  C   UNL     1     -28.072  27.426   6.400  0.00  0.00    +0.113 C 
BRANCH  19  21
ATOM     20  O   UNL     1     -27.775  26.176   4.331  0.00  0.00    -0.250 OA
ATOM     21  C   UNL     1     -28.011  27.232   4.902  0.00  0.00    +0.314 C 
BRANCH  21  22
ATOM     22  O   UNL     1     -28.251  28.396   4.242  0.00  0.00    -0.480 OA
ATOM     23  H   UNL     1     -27.557  28.824   3.781  0.00  0.00    +0.295 HD
ENDBRANCH  21  22
ENDBRANCH  19  21
ENDBRANCH  18  19
ENDBRANCH  17  18
ENDBRANCH  16  17
ENDBRANCH   8  16
ENDBRANCH   1   7
BRANCH   4  24
ATOM     24  N   UNL     1     -35.834  22.784   5.931  0.00  0.00    -0.355 N 
ATOM     25  H   UNL     1     -35.522  21.926   5.564  0.00  0.00    +0.142 HD
ATOM     26  H   UNL     1     -36.249  22.815   6.824  0.00  0.00    +0.142 HD
ENDBRANCH   4  24
BRANCH   2  27
ATOM     27  O   UNL     1     -37.562  23.399   3.798  0.00  0.00    -0.474 OA
BRANCH  27  28
ATOM     28  C   UNL     1     -38.091  23.497   2.477  0.00  0.00    +0.206 C 
BRANCH  28  29
ATOM     29  C   UNL     1     -37.875  22.187   1.730  0.00  0.00    +0.059 C 
BRANCH  29  30
ATOM     30  C   UNL     1     -36.400  21.782   1.688  0.00  0.00    +0.113 C 
BRANCH  30  32
ATOM     31  O   UNL     1     -35.267  20.742   3.575  0.00  0.00    -0.250 OA
ATOM     32  C   UNL     1     -36.091  20.678   2.673  0.00  0.00    +0.314 C 
BRANCH  32  33
ATOM     33  O   UNL     1     -36.847  19.574   2.435  0.00  0.00    -0.480 OA
ATOM     34  H   UNL     1     -36.433  18.752   2.258  0.00  0.00    +0.295 HD
ENDBRANCH  32  33
ENDBRANCH  30  32
ENDBRANCH  29  30
ENDBRANCH  28  29
ENDBRANCH  27  28
ENDBRANCH   2  27
TORSDOF 15
ENDMDL
MODEL 3
REMARK VINA RESULT:      -5.8      1.561      2.044
REMARK  Name = 52415
REMARK  15 active torsions:
REMARK  status: ('A' for Active; 'I' for Inactive)
REMARK    1  A    between atoms: C_1  and  C_7
REMARK    2  A    between atoms: C_2  and  O_27
REMARK    3  A    between atoms: C_4  and  N_24
REMARK    4  A    between atoms: C_8  and  O_16
REMARK    5  A    between atoms: C_10  and  N_13
REMARK    6  A    between atoms: O_16  and  C_17
REMARK    7  A    between atoms: C_17  and  C_18
REMARK    8  A    between atoms: C_18  and  C_19
REMARK    9  A    between atoms: C_19  and  C_21
REMARK   10  A    between atoms: C_21  and  O_22
REMARK   11  A    between atoms: O_27  and  C_28
REMARK   12  A    between atoms: C_28  and  C_29
REMARK   13  A    between atoms: C_29  and  C_30
REMARK   14  A    between atoms: C_30  and  C_32
REMARK   15  A    between atoms: C_32  and  O_33
REMARK                            x       y       z     vdW  Elec       q    Type
REMARK                         _______ _______ _______ _____ _____    ______ ____
ROOT
ATOM      1  C   UNL     1     -33.454  27.032   5.096  0.00  0.00    +0.001 C 
ATOM      2  C   UNL     1     -31.346  28.751   5.716  0.00  0.00    +0.151 C 
ATOM      3  C   UNL     1     -32.914  27.858   4.110  0.00  0.00    +0.017 C 
ATOM      4  C   UNL     1     -31.860  28.717   4.420  0.00  0.00    +0.076 C 
ATOM      5  C   UNL     1     -32.939  27.065   6.392  0.00  0.00    +0.003 C 
ATOM      6  C   UNL     1     -31.886  27.924   6.702  0.00  0.00    +0.038 C 
ENDROOT
BRANCH   1   7
ATOM      7  C   UNL     1     -34.547  26.139   4.775  0.00  0.00    +0.001 C 
ATOM      8  C   UNL     1     -36.653  24.419   4.153  0.00  0.00    +0.151 C 
ATOM      9  C   UNL     1     -34.691  24.936   5.464  0.00  0.00    +0.017 C 
ATOM     10  C   UNL     1     -35.744  24.076   5.153  0.00  0.00    +0.076 C 
ATOM     11  C   UNL     1     -35.456  26.483   3.774  0.00  0.00    +0.003 C 
ATOM     12  C   UNL     1     -36.509  25.624   3.463  0.00  0.00    +0.038 C 
BRANCH  10  13
ATOM     13  N   UNL     1     -35.880  22.861   5.860  0.00  0.00    -0.355 N 
ATOM     14  H   UNL     1     -35.513  22.029   5.484  0.00  0.00    +0.142 HD
ATOM     15  H   UNL     1     -36.342  22.847   6.730  0.00  0.00    +0.142 HD
ENDBRANCH  10  13
BRANCH   8  16
ATOM     16  O   UNL     1     -37.695  23.589   3.832  0.00  0.00    -0.474 OA
BRANCH  16  17
ATOM     17  C   UNL     1     -38.126  23.592   2.479  0.00  0.00    +0.206 C 
BRANCH  17  18
ATOM     18  C   UNL     1     -37.914  22.216   1.862  0.00  0.00    +0.059 C 
BRANCH  18  19
ATOM     19  C   UNL     1     -36.433  21.839   1.779  0.00  0.00    +0.113 C 
BRANCH  19  21
ATOM     20  O   UNL     1     -35.259  20.773   3.627  0.00  0.00    -0.250 OA
ATOM     21  C   UNL     1     -36.084  20.713   2.726  0.00  0.00    +0.314 C 
BRANCH  21  22
ATOM     22  O   UNL     1     -36.809  19.596   2.456  0.00  0.00    -0.480 OA
ATOM     23  H   UNL     1     -37.522  19.635   1.850  0.00  0.00    +0.295 HD
ENDBRANCH  21  22
ENDBRANCH  19  21
ENDBRANCH  18  19
ENDBRANCH  17  18
ENDBRANCH  16  17
ENDBRANCH   8  16
ENDBRANCH   1   7
BRANCH   4  24
ATOM     24  N   UNL     1     -31.325  29.550   3.414  0.00  0.00    -0.355 N 
ATOM     25  H   UNL     1     -31.867  30.282   3.041  0.00  0.00    +0.142 HD
ATOM     26  H   UNL     1     -30.409  29.398   3.084  0.00  0.00    +0.142 HD
ENDBRANCH   4  24
BRANCH   2  27
ATOM     27  O   UNL     1     -30.316  29.583   6.040  0.00  0.00    -0.474 OA
BRANCH  27  28
ATOM     28  C   UNL     1     -29.494  29.199   7.140  0.00  0.00    +0.206 C 
BRANCH  28  29
ATOM     29  C   UNL     1     -28.025  29.267   6.741  0.00  0.00    +0.059 C 
BRANCH  29  30
ATOM     30  C   UNL     1     -27.226  28.074   7.267  0.00  0.00    +0.113 C 
BRANCH  30  32
ATOM     31  O   UNL     1     -27.938  26.651   5.424  0.00  0.00    -0.250 OA
ATOM     32  C   UNL     1     -27.642  26.780   6.604  0.00  0.00    +0.314 C 
BRANCH  32  33
ATOM     33  O   UNL     1     -27.656  25.750   7.490  0.00  0.00    -0.480 OA
ATOM     34  H   UNL     1     -28.277  25.056   7.390  0.00  0.00    +0.295 HD
ENDBRANCH  32  33
ENDBRANCH  30  32
ENDBRANCH  29  30
ENDBRANCH  28  29
ENDBRANCH  27  28
ENDBRANCH   2  27
TORSDOF 15
ENDMDL
MODEL 4
REMARK VINA RESULT:      -5.8      0.779      9.111
REMARK  Name = 52415
REMARK  15 active torsions:
REMARK  status: ('A' for Active; 'I' for Inactive)
REMARK    1  A    between atoms: C_1  and  C_7
REMARK    2  A    between atoms: C_2  and  O_27
REMARK    3  A    between atoms: C_4  and  N_24
REMARK    4  A    between atoms: C_8  and  O_16
REMARK    5  A    between atoms: C_10  and  N_13
REMARK    6  A    between atoms: O_16  and  C_17
REMARK    7  A    between atoms: C_17  and  C_18
REMARK    8  A    between atoms: C_18  and  C_19
REMARK    9  A    between atoms: C_19  and  C_21
REMARK   10  A    between atoms: C_21  and  O_22
REMARK   11  A    between atoms: O_27  and  C_28
REMARK   12  A    between atoms: C_28  and  C_29
REMARK   13  A    between atoms: C_29  and  C_30
REMARK   14  A    between atoms: C_30  and  C_32
REMARK   15  A    between atoms: C_32  and  O_33
REMARK                            x       y       z     vdW  Elec       q    Type
REMARK                         _______ _______ _______ _____ _____    ______ ____
ROOT
ATOM      1  C   UNL     1     -34.776  25.676   4.097  0.00  0.00    +0.001 C 
ATOM      2  C   UNL     1     -36.766  23.782   3.611  0.00  0.00    +0.151 C 
ATOM      3  C   UNL     1     -34.941  24.599   4.968  0.00  0.00    +0.017 C 
ATOM      4  C   UNL     1     -35.936  23.652   4.724  0.00  0.00    +0.076 C 
ATOM      5  C   UNL     1     -35.605  25.807   2.983  0.00  0.00    +0.003 C 
ATOM      6  C   UNL     1     -36.600  24.860   2.741  0.00  0.00    +0.038 C 
ENDROOT
BRANCH   1   7
ATOM      7  C   UNL     1     -33.743  26.658   4.348  0.00  0.00    +0.001 C 
ATOM      8  C   UNL     1     -31.752  28.552   4.829  0.00  0.00    +0.151 C 
ATOM      9  C   UNL     1     -33.338  26.928   5.655  0.00  0.00    +0.017 C 
ATOM     10  C   UNL     1     -32.343  27.874   5.895  0.00  0.00    +0.076 C 
ATOM     11  C   UNL     1     -33.153  27.336   3.281  0.00  0.00    +0.003 C 
ATOM     12  C   UNL     1     -32.158  28.283   3.521  0.00  0.00    +0.038 C 
BRANCH  10  13
ATOM     13  N   UNL     1     -31.941  28.137   7.223  0.00  0.00    -0.355 N 
ATOM     14  H   UNL     1     -32.564  28.571   7.850  0.00  0.00    +0.142 HD
ATOM     15  H   UNL     1     -31.036  27.887   7.522  0.00  0.00    +0.142 HD
ENDBRANCH  10  13
BRANCH   8  16
ATOM     16  O   UNL     1     -30.772  29.486   5.043  0.00  0.00    -0.474 OA
BRANCH  16  17
ATOM     17  C   UNL     1     -29.581  29.353   4.282  0.00  0.00    +0.206 C 
BRANCH  17  18
ATOM     18  C   UNL     1     -28.772  28.165   4.786  0.00  0.00    +0.059 C 
BRANCH  18  19
ATOM     19  C   UNL     1     -27.750  28.569   5.852  0.00  0.00    +0.113 C 
BRANCH  19  21
ATOM     20  O   UNL     1     -27.541  28.268   8.259  0.00  0.00    -0.250 OA
ATOM     21  C   UNL     1     -28.078  27.971   7.201  0.00  0.00    +0.314 C 
BRANCH  21  22
ATOM     22  O   UNL     1     -29.063  27.039   7.104  0.00  0.00    -0.480 OA
ATOM     23  H   UNL     1     -29.805  27.198   6.556  0.00  0.00    +0.295 HD
ENDBRANCH  21  22
ENDBRANCH  19  21
ENDBRANCH  18  19
ENDBRANCH  17  18
ENDBRANCH  16  17
ENDBRANCH   8  16
ENDBRANCH   1   7
BRANCH   4  24
ATOM     24  N   UNL     1     -36.095  22.568   5.615  0.00  0.00    -0.355 N 
ATOM     25  H   UNL     1     -35.336  21.969   5.801  0.00  0.00    +0.142 HD
ATOM     26  H   UNL     1     -36.964  22.411   6.051  0.00  0.00    +0.142 HD
ENDBRANCH   4  24
BRANCH   2  27
ATOM     27  O   UNL     1     -37.744  22.869   3.355  0.00  0.00    -0.474 OA
BRANCH  27  28
ATOM     28  C   UNL     1     -38.038  22.600   1.986  0.00  0.00    +0.206 C 
BRANCH  28  29
ATOM     29  C   UNL     1     -37.627  21.175   1.636  0.00  0.00    +0.059 C 
BRANCH  29  30
ATOM     30  C   UNL     1     -36.168  21.086   1.188  0.00  0.00    +0.113 C 
BRANCH  30  32
ATOM     31  O   UNL     1     -34.297  19.711   1.922  0.00  0.00    -0.250 OA
ATOM     32  C   UNL     1     -35.317  20.333   2.186  0.00  0.00    +0.314 C 
BRANCH  32  33
ATOM     33  O   UNL     1     -35.827  20.425   3.442  0.00  0.00    -0.480 OA
ATOM     34  H   UNL     1     -36.335  21.172   3.688  0.00  0.00    +0.295 HD
ENDBRANCH  32  33
ENDBRANCH  30  32
ENDBRANCH  29  30
ENDBRANCH  28  29
ENDBRANCH  27  28
ENDBRANCH   2  27
TORSDOF 15
ENDMDL
MODEL 5
REMARK VINA RESULT:      -5.7      3.592      7.022
REMARK  Name = 52415
REMARK  15 active torsions:
REMARK  status: ('A' for Active; 'I' for Inactive)
REMARK    1  A    between atoms: C_1  and  C_7
REMARK    2  A    between atoms: C_2  and  O_27
REMARK    3  A    between atoms: C_4  and  N_24
REMARK    4  A    between atoms: C_8  and  O_16
REMARK    5  A    between atoms: C_10  and  N_13
REMARK    6  A    between atoms: O_16  and  C_17
REMARK    7  A    between atoms: C_17  and  C_18
REMARK    8  A    between atoms: C_18  and  C_19
REMARK    9  A    between atoms: C_19  and  C_21
REMARK   10  A    between atoms: C_21  and  O_22
REMARK   11  A    between atoms: O_27  and  C_28
REMARK   12  A    between atoms: C_28  and  C_29
REMARK   13  A    between atoms: C_29  and  C_30
REMARK   14  A    between atoms: C_30  and  C_32
REMARK   15  A    between atoms: C_32  and  O_33
REMARK                            x       y       z     vdW  Elec       q    Type
REMARK                         _______ _______ _______ _____ _____    ______ ____
ROOT
ATOM      1  C   UNL     1     -35.577  21.275   2.047  0.00  0.00    +0.001 C 
ATOM      2  C   UNL     1     -36.676  23.327   3.584  0.00  0.00    +0.151 C 
ATOM      3  C   UNL     1     -35.485  21.231   3.438  0.00  0.00    +0.017 C 
ATOM      4  C   UNL     1     -36.035  22.257   4.207  0.00  0.00    +0.076 C 
ATOM      5  C   UNL     1     -36.219  22.346   1.424  0.00  0.00    +0.003 C 
ATOM      6  C   UNL     1     -36.768  23.372   2.193  0.00  0.00    +0.038 C 
ENDROOT
BRANCH   1   7
ATOM      7  C   UNL     1     -35.008  20.210   1.249  0.00  0.00    +0.001 C 
ATOM      8  C   UNL     1     -33.914  18.159  -0.292  0.00  0.00    +0.151 C 
ATOM      9  C   UNL     1     -33.913  19.490   1.724  0.00  0.00    +0.017 C 
ATOM     10  C   UNL     1     -33.366  18.465   0.954  0.00  0.00    +0.076 C 
ATOM     11  C   UNL     1     -35.557  19.906   0.003  0.00  0.00    +0.003 C 
ATOM     12  C   UNL     1     -35.010  18.880  -0.768  0.00  0.00    +0.038 C 
BRANCH  10  13
ATOM     13  N   UNL     1     -32.259  17.741   1.448  0.00  0.00    -0.355 N 
ATOM     14  H   UNL     1     -31.414  17.727   0.942  0.00  0.00    +0.142 HD
ATOM     15  H   UNL     1     -32.331  17.249   2.298  0.00  0.00    +0.142 HD
ENDBRANCH  10  13
BRANCH   8  16
ATOM     16  O   UNL     1     -33.391  17.154  -1.065  0.00  0.00    -0.474 OA
BRANCH  16  17
ATOM     17  C   UNL     1     -34.136  16.774  -2.212  0.00  0.00    +0.206 C 
BRANCH  17  18
ATOM     18  C   UNL     1     -34.672  15.359  -2.039  0.00  0.00    +0.059 C 
BRANCH  18  19
ATOM     19  C   UNL     1     -36.184  15.337  -1.798  0.00  0.00    +0.113 C 
BRANCH  19  21
ATOM     20  O   UNL     1     -37.532  16.245   0.015  0.00  0.00    -0.250 OA
ATOM     21  C   UNL     1     -36.530  15.654  -0.361  0.00  0.00    +0.314 C 
BRANCH  21  22
ATOM     22  O   UNL     1     -35.573  15.198   0.490  0.00  0.00    -0.480 OA
ATOM     23  H   UNL     1     -34.941  14.574   0.194  0.00  0.00    +0.295 HD
ENDBRANCH  21  22
ENDBRANCH  19  21
ENDBRANCH  18  19
ENDBRANCH  17  18
ENDBRANCH  16  17
ENDBRANCH   8  16
ENDBRANCH   1   7
BRANCH   4  24
ATOM     24  N   UNL     1     -35.932  22.201   5.613  0.00  0.00    -0.355 N 
ATOM     25  H   UNL     1     -36.489  21.568   6.123  0.00  0.00    +0.142 HD
ATOM     26  H   UNL     1     -35.304  22.794   6.086  0.00  0.00    +0.142 HD
ENDBRANCH   4  24
BRANCH   2  27
ATOM     27  O   UNL     1     -37.219  24.340   4.317  0.00  0.00    -0.474 OA
BRANCH  27  28
ATOM     28  C   UNL     1     -36.573  25.609   4.248  0.00  0.00    +0.206 C 
BRANCH  28  29
ATOM     29  C   UNL     1     -35.885  25.916   5.572  0.00  0.00    +0.059 C 
BRANCH  29  30
ATOM     30  C   UNL     1     -34.413  25.499   5.570  0.00  0.00    +0.113 C 
BRANCH  30  32
ATOM     31  O   UNL     1     -32.705  26.846   6.665  0.00  0.00    -0.250 OA
ATOM     32  C   UNL     1     -33.491  26.686   5.741  0.00  0.00    +0.314 C 
BRANCH  32  33
ATOM     33  O   UNL     1     -33.641  27.581   4.730  0.00  0.00    -0.480 OA
ATOM     34  H   UNL     1     -34.455  28.031   4.620  0.00  0.00    +0.295 HD
ENDBRANCH  32  33
ENDBRANCH  30  32
ENDBRANCH  29  30
ENDBRANCH  28  29
ENDBRANCH  27  28
ENDBRANCH   2  27
TORSDOF 15
ENDMDL
MODEL 6
REMARK VINA RESULT:      -5.7      4.013     10.273
REMARK  Name = 52415
REMARK  15 active torsions:
REMARK  status: ('A' for Active; 'I' for Inactive)
REMARK    1  A    between atoms: C_1  and  C_7
REMARK    2  A    between atoms: C_2  and  O_27
REMARK    3  A    between atoms: C_4  and  N_24
REMARK    4  A    between atoms: C_8  and  O_16
REMARK    5  A    between atoms: C_10  and  N_13
REMARK    6  A    between atoms: O_16  and  C_17
REMARK    7  A    between atoms: C_17  and  C_18
REMARK    8  A    between atoms: C_18  and  C_19
REMARK    9  A    between atoms: C_19  and  C_21
REMARK   10  A    between atoms: C_21  and  O_22
REMARK   11  A    between atoms: O_27  and  C_28
REMARK   12  A    between atoms: C_28  and  C_29
REMARK   13  A    between atoms: C_29  and  C_30
REMARK   14  A    between atoms: C_30  and  C_32
REMARK   15  A    between atoms: C_32  and  O_33
REMARK                            x       y       z     vdW  Elec       q    Type
REMARK                         _______ _______ _______ _____ _____    ______ ____
ROOT
ATOM      1  C   UNL     1     -34.995  19.971   1.359  0.00  0.00    +0.001 C 
ATOM      2  C   UNL     1     -33.903  17.854  -0.093  0.00  0.00    +0.151 C 
ATOM      3  C   UNL     1     -33.790  19.397   1.763  0.00  0.00    +0.017 C 
ATOM      4  C   UNL     1     -33.244  18.339   1.036  0.00  0.00    +0.076 C 
ATOM      5  C   UNL     1     -35.655  19.487   0.229  0.00  0.00    +0.003 C 
ATOM      6  C   UNL     1     -35.109  18.429  -0.496  0.00  0.00    +0.038 C 
ENDROOT
BRANCH   1   7
ATOM      7  C   UNL     1     -35.562  21.070   2.111  0.00  0.00    +0.001 C 
ATOM      8  C   UNL     1     -36.655  23.190   3.559  0.00  0.00    +0.151 C 
ATOM      9  C   UNL     1     -35.466  21.087   3.502  0.00  0.00    +0.017 C 
ATOM     10  C   UNL     1     -36.013  22.147   4.225  0.00  0.00    +0.076 C 
ATOM     11  C   UNL     1     -36.204  22.113   1.443  0.00  0.00    +0.003 C 
ATOM     12  C   UNL     1     -36.751  23.172   2.166  0.00  0.00    +0.038 C 
BRANCH  10  13
ATOM     13  N   UNL     1     -35.907  22.153   5.633  0.00  0.00    -0.355 N 
ATOM     14  H   UNL     1     -36.476  22.755   6.167  0.00  0.00    +0.142 HD
ATOM     15  H   UNL     1     -35.264  21.557   6.082  0.00  0.00    +0.142 HD
ENDBRANCH  10  13
BRANCH   8  16
ATOM     16  O   UNL     1     -37.199  24.241   4.251  0.00  0.00    -0.474 OA
BRANCH  16  17
ATOM     17  C   UNL     1     -36.542  25.494   4.134  0.00  0.00    +0.206 C 
BRANCH  17  18
ATOM     18  C   UNL     1     -35.942  25.894   5.476  0.00  0.00    +0.059 C 
BRANCH  18  19
ATOM     19  C   UNL     1     -34.481  25.457   5.611  0.00  0.00    +0.113 C 
BRANCH  19  21
ATOM     20  O   UNL     1     -32.755  26.810   6.669  0.00  0.00    -0.250 OA
ATOM     21  C   UNL     1     -33.551  26.640   5.756  0.00  0.00    +0.314 C 
BRANCH  21  22
ATOM     22  O   UNL     1     -33.705  27.520   4.732  0.00  0.00    -0.480 OA
ATOM     23  H   UNL     1     -33.078  27.544   4.037  0.00  0.00    +0.295 HD
ENDBRANCH  21  22
ENDBRANCH  19  21
ENDBRANCH  18  19
ENDBRANCH  17  18
ENDBRANCH  16  17
ENDBRANCH   8  16
ENDBRANCH   1   7
BRANCH   4  24
ATOM     24  N   UNL     1     -32.024  17.765   1.457  0.00  0.00    -0.355 N 
ATOM     25  H   UNL     1     -31.776  17.780   2.410  0.00  0.00    +0.142 HD
ATOM     26  H   UNL     1     -31.421  17.351   0.798  0.00  0.00    +0.142 HD
ENDBRANCH   4  24
BRANCH   2  27
ATOM     27  O   UNL     1     -33.387  16.821  -0.816  0.00  0.00    -0.474 OA
BRANCH  27  28
ATOM     28  C   UNL     1     -34.013  15.549  -0.666  0.00  0.00    +0.206 C 
BRANCH  28  29
ATOM     29  C   UNL     1     -33.154  14.466  -1.308  0.00  0.00    +0.059 C 
BRANCH  29  30
ATOM     30  C   UNL     1     -31.686  14.882  -1.417  0.00  0.00    +0.113 C 
BRANCH  30  32
ATOM     31  O   UNL     1     -30.167  15.535   0.370  0.00  0.00    -0.250 OA
ATOM     32  C   UNL     1     -30.957  14.729  -0.102  0.00  0.00    +0.314 C 
BRANCH  32  33
ATOM     33  O   UNL     1     -31.284  13.562   0.514  0.00  0.00    -0.480 OA
ATOM     34  H   UNL     1     -31.331  12.768   0.018  0.00  0.00    +0.295 HD
ENDBRANCH  32  33
ENDBRANCH  30  32
ENDBRANCH  29  30
ENDBRANCH  28  29
ENDBRANCH  27  28
ENDBRANCH   2  27
TORSDOF 15
ENDMDL
MODEL 7
REMARK VINA RESULT:      -5.6      1.976      3.384
REMARK  Name = 52415
REMARK  15 active torsions:
REMARK  status: ('A' for Active; 'I' for Inactive)
REMARK    1  A    between atoms: C_1  and  C_7
REMARK    2  A    between atoms: C_2  and  O_27
REMARK    3  A    between atoms: C_4  and  N_24
REMARK    4  A    between atoms: C_8  and  O_16
REMARK    5  A    between atoms: C_10  and  N_13
REMARK    6  A    between atoms: O_16  and  C_17
REMARK    7  A    between atoms: C_17  and  C_18
REMARK    8  A    between atoms: C_18  and  C_19
REMARK    9  A    between atoms: C_19  and  C_21
REMARK   10  A    between atoms: C_21  and  O_22
REMARK   11  A    between atoms: O_27  and  C_28
REMARK   12  A    between atoms: C_28  and  C_29
REMARK   13  A    between atoms: C_29  and  C_30
REMARK   14  A    between atoms: C_30  and  C_32
REMARK   15  A    between atoms: C_32  and  O_33
REMARK                            x       y       z     vdW  Elec       q    Type
REMARK                         _______ _______ _______ _____ _____    ______ ____
ROOT
ATOM      1  C   UNL     1     -33.489  26.799   4.995  0.00  0.00    +0.001 C 
ATOM      2  C   UNL     1     -31.554  28.704   5.632  0.00  0.00    +0.151 C 
ATOM      3  C   UNL     1     -32.927  27.585   3.989  0.00  0.00    +0.017 C 
ATOM      4  C   UNL     1     -31.959  28.538   4.308  0.00  0.00    +0.076 C 
ATOM      5  C   UNL     1     -33.083  26.965   6.319  0.00  0.00    +0.003 C 
ATOM      6  C   UNL     1     -32.116  27.917   6.637  0.00  0.00    +0.038 C 
ENDROOT
BRANCH   1   7
ATOM      7  C   UNL     1     -34.493  25.810   4.665  0.00  0.00    +0.001 C 
ATOM      8  C   UNL     1     -36.427  23.903   4.028  0.00  0.00    +0.151 C 
ATOM      9  C   UNL     1     -34.682  24.704   5.494  0.00  0.00    +0.017 C 
ATOM     10  C   UNL     1     -35.649  23.752   5.175  0.00  0.00    +0.076 C 
ATOM     11  C   UNL     1     -35.270  25.962   3.517  0.00  0.00    +0.003 C 
ATOM     12  C   UNL     1     -36.237  25.009   3.198  0.00  0.00    +0.038 C 
BRANCH  10  13
ATOM     13  N   UNL     1     -35.833  22.638   6.024  0.00  0.00    -0.355 N 
ATOM     14  H   UNL     1     -36.416  22.711   6.814  0.00  0.00    +0.142 HD
ATOM     15  H   UNL     1     -35.376  21.788   5.827  0.00  0.00    +0.142 HD
ENDBRANCH  10  13
BRANCH   8  16
ATOM     16  O   UNL     1     -37.383  22.978   3.696  0.00  0.00    -0.474 OA
BRANCH  16  17
ATOM     17  C   UNL     1     -37.798  22.943   2.338  0.00  0.00    +0.206 C 
BRANCH  17  18
ATOM     18  C   UNL     1     -39.310  23.107   2.252  0.00  0.00    +0.059 C 
BRANCH  18  19
ATOM     19  C   UNL     1     -39.714  24.484   1.718  0.00  0.00    +0.113 C 
BRANCH  19  21
ATOM     20  O   UNL     1     -40.079  26.687   2.688  0.00  0.00    -0.250 OA
ATOM     21  C   UNL     1     -39.908  25.485   2.834  0.00  0.00    +0.314 C 
BRANCH  21  22
ATOM     22  O   UNL     1     -39.866  24.883   4.052  0.00  0.00    -0.480 OA
ATOM     23  H   UNL     1     -40.602  24.942   4.628  0.00  0.00    +0.295 HD
ENDBRANCH  21  22
ENDBRANCH  19  21
ENDBRANCH  18  19
ENDBRANCH  17  18
ENDBRANCH  16  17
ENDBRANCH   8  16
ENDBRANCH   1   7
BRANCH   4  24
ATOM     24  N   UNL     1     -31.400  29.329   3.281  0.00  0.00    -0.355 N 
ATOM     25  H   UNL     1     -31.449  30.311   3.334  0.00  0.00    +0.142 HD
ATOM     26  H   UNL     1     -30.962  28.899   2.511  0.00  0.00    +0.142 HD
ENDBRANCH   4  24
BRANCH   2  27
ATOM     27  O   UNL     1     -30.609  29.629   5.964  0.00  0.00    -0.474 OA
BRANCH  27  28
ATOM     28  C   UNL     1     -29.721  29.294   7.028  0.00  0.00    +0.206 C 
BRANCH  28  29
ATOM     29  C   UNL     1     -28.306  29.121   6.490  0.00  0.00    +0.059 C 
BRANCH  29  30
ATOM     30  C   UNL     1     -27.981  27.660   6.173  0.00  0.00    +0.113 C 
BRANCH  30  32
ATOM     31  O   UNL     1     -28.002  26.253   4.186  0.00  0.00    -0.250 OA
ATOM     32  C   UNL     1     -28.139  27.354   4.701  0.00  0.00    +0.314 C 
BRANCH  32  33
ATOM     33  O   UNL     1     -28.456  28.470   3.993  0.00  0.00    -0.480 OA
ATOM     34  H   UNL     1     -29.319  28.574   3.645  0.00  0.00    +0.295 HD
ENDBRANCH  32  33
ENDBRANCH  30  32
ENDBRANCH  29  30
ENDBRANCH  28  29
ENDBRANCH  27  28
ENDBRANCH   2  27
TORSDOF 15
ENDMDL
MODEL 8
REMARK VINA RESULT:      -5.6      3.520     10.570
REMARK  Name = 52415
REMARK  15 active torsions:
REMARK  status: ('A' for Active; 'I' for Inactive)
REMARK    1  A    between atoms: C_1  and  C_7
REMARK    2  A    between atoms: C_2  and  O_27
REMARK    3  A    between atoms: C_4  and  N_24
REMARK    4  A    between atoms: C_8  and  O_16
REMARK    5  A    between atoms: C_10  and  N_13
REMARK    6  A    between atoms: O_16  and  C_17
REMARK    7  A    between atoms: C_17  and  C_18
REMARK    8  A    between atoms: C_18  and  C_19
REMARK    9  A    between atoms: C_19  and  C_21
REMARK   10  A    between atoms: C_21  and  O_22
REMARK   11  A    between atoms: O_27  and  C_28
REMARK   12  A    between atoms: C_28  and  C_29
REMARK   13  A    between atoms: C_29  and  C_30
REMARK   14  A    between atoms: C_30  and  C_32
REMARK   15  A    between atoms: C_32  and  O_33
REMARK                            x       y       z     vdW  Elec       q    Type
REMARK                         _______ _______ _______ _____ _____    ______ ____
ROOT
ATOM      1  C   UNL     1     -35.122  21.000   1.605  0.00  0.00    +0.001 C 
ATOM      2  C   UNL     1     -34.747  19.116  -0.417  0.00  0.00    +0.151 C 
ATOM      3  C   UNL     1     -36.040  19.964   1.439  0.00  0.00    +0.017 C 
ATOM      4  C   UNL     1     -35.852  19.022   0.428  0.00  0.00    +0.076 C 
ATOM      5  C   UNL     1     -34.016  21.095   0.760  0.00  0.00    +0.003 C 
ATOM      6  C   UNL     1     -33.829  20.153  -0.251  0.00  0.00    +0.038 C 
ENDROOT
BRANCH   1   7
ATOM      7  C   UNL     1     -35.314  21.977   2.656  0.00  0.00    +0.001 C 
ATOM      8  C   UNL     1     -35.686  23.862   4.678  0.00  0.00    +0.151 C 
ATOM      9  C   UNL     1     -35.518  21.559   3.970  0.00  0.00    +0.017 C 
ATOM     10  C   UNL     1     -35.704  22.501   4.980  0.00  0.00    +0.076 C 
ATOM     11  C   UNL     1     -35.297  23.339   2.352  0.00  0.00    +0.003 C 
ATOM     12  C   UNL     1     -35.483  24.281   3.362  0.00  0.00    +0.038 C 
BRANCH  10  13
ATOM     13  N   UNL     1     -35.907  22.064   6.308  0.00  0.00    -0.355 N 
ATOM     14  H   UNL     1     -35.343  22.417   7.034  0.00  0.00    +0.142 HD
ATOM     15  H   UNL     1     -36.611  21.406   6.507  0.00  0.00    +0.142 HD
ENDBRANCH  10  13
BRANCH   8  16
ATOM     16  O   UNL     1     -35.867  24.805   5.657  0.00  0.00    -0.474 OA
BRANCH  16  17
ATOM     17  C   UNL     1     -35.344  26.101   5.403  0.00  0.00    +0.206 C 
BRANCH  17  18
ATOM     18  C   UNL     1     -33.979  26.250   6.063  0.00  0.00    +0.059 C 
BRANCH  18  19
ATOM     19  C   UNL     1     -32.991  27.020   5.184  0.00  0.00    +0.113 C 
BRANCH  19  21
ATOM     20  O   UNL     1     -32.369  29.205   6.061  0.00  0.00    -0.250 OA
ATOM     21  C   UNL     1     -32.168  28.001   5.988  0.00  0.00    +0.314 C 
BRANCH  21  22
ATOM     22  O   UNL     1     -31.150  27.377   6.638  0.00  0.00    -0.480 OA
ATOM     23  H   UNL     1     -30.688  27.822   7.321  0.00  0.00    +0.295 HD
ENDBRANCH  21  22
ENDBRANCH  19  21
ENDBRANCH  18  19
ENDBRANCH  17  18
ENDBRANCH  16  17
ENDBRANCH   8  16
ENDBRANCH   1   7
BRANCH   4  24
ATOM     24  N   UNL     1     -36.791  17.979   0.269  0.00  0.00    -0.355 N 
ATOM     25  H   UNL     1     -37.497  17.845   0.942  0.00  0.00    +0.142 HD
ATOM     26  H   UNL     1     -36.740  17.385  -0.515  0.00  0.00    +0.142 HD
ENDBRANCH   4  24
BRANCH   2  27
ATOM     27  O   UNL     1     -34.546  18.206  -1.412  0.00  0.00    -0.474 OA
BRANCH  27  28
ATOM     28  C   UNL     1     -33.294  17.524  -1.422  0.00  0.00    +0.206 C 
BRANCH  28  29
ATOM     29  C   UNL     1     -33.444  16.150  -0.780  0.00  0.00    +0.059 C 
BRANCH  29  30
ATOM     30  C   UNL     1     -34.338  15.221  -1.604  0.00  0.00    +0.113 C 
BRANCH  30  32
ATOM     31  O   UNL     1     -36.426  14.023  -1.241  0.00  0.00    -0.250 OA
ATOM     32  C   UNL     1     -35.539  14.749  -0.815  0.00  0.00    +0.314 C 
BRANCH  32  33
ATOM     33  O   UNL     1     -35.524  15.239   0.453  0.00  0.00    -0.480 OA
ATOM     34  H   UNL     1     -34.764  15.126   0.989  0.00  0.00    +0.295 HD
ENDBRANCH  32  33
ENDBRANCH  30  32
ENDBRANCH  29  30
ENDBRANCH  28  29
ENDBRANCH  27  28
ENDBRANCH   2  27
TORSDOF 15
ENDMDL
MODEL 9
REMARK VINA RESULT:      -5.6      3.776      7.248
REMARK  Name = 52415
REMARK  15 active torsions:
REMARK  status: ('A' for Active; 'I' for Inactive)
REMARK    1  A    between atoms: C_1  and  C_7
REMARK    2  A    between atoms: C_2  and  O_27
REMARK    3  A    between atoms: C_4  and  N_24
REMARK    4  A    between atoms: C_8  and  O_16
REMARK    5  A    between atoms: C_10  and  N_13
REMARK    6  A    between atoms: O_16  and  C_17
REMARK    7  A    between atoms: C_17  and  C_18
REMARK    8  A    between atoms: C_18  and  C_19
REMARK    9  A    between atoms: C_19  and  C_21
REMARK   10  A    between atoms: C_21  and  O_22
REMARK   11  A    between atoms: O_27  and  C_28
REMARK   12  A    between atoms: C_28  and  C_29
REMARK   13  A    between atoms: C_29  and  C_30
REMARK   14  A    between atoms: C_30  and  C_32
REMARK   15  A    between atoms: C_32  and  O_33
REMARK                            x       y       z     vdW  Elec       q    Type
REMARK                         _______ _______ _______ _____ _____    ______ ____
ROOT
ATOM      1  C   UNL     1     -35.423  21.207   2.070  0.00  0.00    +0.001 C 
ATOM      2  C   UNL     1     -36.626  23.224   3.575  0.00  0.00    +0.151 C 
ATOM      3  C   UNL     1     -35.373  21.161   3.462  0.00  0.00    +0.017 C 
ATOM      4  C   UNL     1     -35.975  22.170   4.215  0.00  0.00    +0.076 C 
ATOM      5  C   UNL     1     -36.074  22.262   1.429  0.00  0.00    +0.003 C 
ATOM      6  C   UNL     1     -36.675  23.269   2.181  0.00  0.00    +0.038 C 
ENDROOT
BRANCH   1   7
ATOM      7  C   UNL     1     -34.799  20.161   1.288  0.00  0.00    +0.001 C 
ATOM      8  C   UNL     1     -33.597  18.143  -0.218  0.00  0.00    +0.151 C 
ATOM      9  C   UNL     1     -35.242  19.900  -0.009  0.00  0.00    +0.017 C 
ATOM     10  C   UNL     1     -34.641  18.891  -0.760  0.00  0.00    +0.076 C 
ATOM     11  C   UNL     1     -33.755  19.413   1.832  0.00  0.00    +0.003 C 
ATOM     12  C   UNL     1     -33.154  18.404   1.080  0.00  0.00    +0.038 C 
BRANCH  10  13
ATOM     13  N   UNL     1     -35.098  18.638  -2.073  0.00  0.00    -0.355 N 
ATOM     14  H   UNL     1     -34.469  18.674  -2.829  0.00  0.00    +0.142 HD
ATOM     15  H   UNL     1     -36.047  18.426  -2.232  0.00  0.00    +0.142 HD
ENDBRANCH  10  13
BRANCH   8  16
ATOM     16  O   UNL     1     -32.993  17.147  -0.940  0.00  0.00    -0.474 OA
BRANCH  16  17
ATOM     17  C   UNL     1     -33.166  15.818  -0.470  0.00  0.00    +0.206 C 
BRANCH  17  18
ATOM     18  C   UNL     1     -33.784  14.956  -1.563  0.00  0.00    +0.059 C 
BRANCH  18  19
ATOM     19  C   UNL     1     -35.112  14.331  -1.127  0.00  0.00    +0.113 C 
BRANCH  19  21
ATOM     20  O   UNL     1     -36.707  16.158  -1.344  0.00  0.00    -0.250 OA
ATOM     21  C   UNL     1     -36.090  15.374  -0.636  0.00  0.00    +0.314 C 
BRANCH  21  22
ATOM     22  O   UNL     1     -36.208  15.344   0.717  0.00  0.00    -0.480 OA
ATOM     23  H   UNL     1     -36.102  14.536   1.179  0.00  0.00    +0.295 HD
ENDBRANCH  21  22
ENDBRANCH  19  21
ENDBRANCH  18  19
ENDBRANCH  17  18
ENDBRANCH  16  17
ENDBRANCH   8  16
ENDBRANCH   1   7
BRANCH   4  24
ATOM     24  N   UNL     1     -35.915  22.112   5.624  0.00  0.00    -0.355 N 
ATOM     25  H   UNL     1     -35.677  21.269   6.073  0.00  0.00    +0.142 HD
ATOM     26  H   UNL     1     -36.112  22.916   6.159  0.00  0.00    +0.142 HD
ENDBRANCH   4  24
BRANCH   2  27
ATOM     27  O   UNL     1     -37.220  24.219   4.292  0.00  0.00    -0.474 OA
BRANCH  27  28
ATOM     28  C   UNL     1     -36.608  25.506   4.245  0.00  0.00    +0.206 C 
BRANCH  28  29
ATOM     29  C   UNL     1     -35.933  25.810   5.576  0.00  0.00    +0.059 C 
BRANCH  29  30
ATOM     30  C   UNL     1     -34.439  25.482   5.556  0.00  0.00    +0.113 C 
BRANCH  30  32
ATOM     31  O   UNL     1     -33.634  27.578   4.614  0.00  0.00    -0.250 OA
ATOM     32  C   UNL     1     -33.588  26.731   5.496  0.00  0.00    +0.314 C 
BRANCH  32  33
ATOM     33  O   UNL     1     -32.742  26.807   6.556  0.00  0.00    -0.480 OA
ATOM     34  H   UNL     1     -31.904  27.213   6.458  0.00  0.00    +0.295 HD
ENDBRANCH  32  33
ENDBRANCH  30  32
ENDBRANCH  29  30
ENDBRANCH  28  29
ENDBRANCH  27  28
ENDBRANCH   2  27
TORSDOF 15
ENDMDL
