MODEL 1
REMARK VINA RESULT:      -5.7      0.000      0.000
REMARK  Name = 198256
REMARK  4 active torsions:
REMARK  status: ('A' for Active; 'I' for Inactive)
REMARK    1  A    between atoms: C_4  and  C_10
REMARK    2  A    between atoms: C_5  and  C_16
REMARK    3  A    between atoms: C_16  and  C_18
REMARK    4  A    between atoms: C_18  and  O_19
REMARK                            x       y       z     vdW  Elec       q    Type
REMARK                         _______ _______ _______ _____ _____    ______ ____
ROOT
ATOM      1  S   UNL     1     -38.038  22.053   1.536  0.00  0.00    -0.061 S 
ATOM      2  N   UNL     1     -36.004  21.741   3.102  0.00  0.00    -0.385 NA
ATOM      3  N   UNL     1     -36.846  19.752   2.138  0.00  0.00    -0.328 N 
ATOM      4  C   UNL     1     -36.302  23.089   3.067  0.00  0.00    +0.122 C 
ATOM      5  C   UNL     1     -37.370  23.450   2.274  0.00  0.00    +0.119 C 
ATOM      6  C   UNL     1     -36.854  21.098   2.332  0.00  0.00    +0.204 C 
ATOM      7  H   UNL     1     -37.514  19.336   1.546  0.00  0.00    +0.145 HD
ATOM      8  H   UNL     1     -36.172  19.194   2.588  0.00  0.00    +0.145 HD
ENDROOT
BRANCH   4  10
ATOM      9 CL   UNL     1     -33.106  27.013   6.190  0.00  0.00    -0.082 Cl
ATOM     10  C   UNL     1     -35.531  24.037   3.821  0.00  0.00    +0.026 C 
ATOM     11  C   UNL     1     -35.909  24.367   5.122  0.00  0.00    +0.003 C 
ATOM     12  C   UNL     1     -34.402  24.628   3.253  0.00  0.00    +0.003 C 
ATOM     13  C   UNL     1     -35.160  25.287   5.855  0.00  0.00    +0.011 C 
ATOM     14  C   UNL     1     -33.652  25.548   3.985  0.00  0.00    +0.011 C 
ATOM     15  C   UNL     1     -34.031  25.877   5.287  0.00  0.00    +0.058 C 
ENDBRANCH   4  10
BRANCH   5  16
ATOM     16  C   UNL     1     -37.963  24.777   2.002  0.00  0.00    +0.128 C 
BRANCH  16  18
ATOM     17  O   UNL     1     -39.631  24.397   3.714  0.00  0.00    -0.250 OA
ATOM     18  C   UNL     1     -38.932  25.185   3.090  0.00  0.00    +0.315 C 
BRANCH  18  19
ATOM     19  O   UNL     1     -38.979  26.529   3.275  0.00  0.00    -0.480 OA
ATOM     20  H   UNL     1     -38.669  26.904   4.075  0.00  0.00    +0.295 HD
ENDBRANCH  18  19
ENDBRANCH  16  18
ENDBRANCH   5  16
TORSDOF 4
ENDMDL
MODEL 2
REMARK VINA RESULT:      -5.6      4.006      5.603
REMARK  Name = 198256
REMARK  4 active torsions:
REMARK  status: ('A' for Active; 'I' for Inactive)
REMARK    1  A    between atoms: C_4  and  C_10
REMARK    2  A    between atoms: C_5  and  C_16
REMARK    3  A    between atoms: C_16  and  C_18
REMARK    4  A    between atoms: C_18  and  O_19
REMARK                            x       y       z     vdW  Elec       q    Type
REMARK                         _______ _______ _______ _____ _____    ______ ____
ROOT
ATOM      1  S   UNL     1     -36.507  25.183   4.847  0.00  0.00    -0.061 S 
ATOM      2  N   UNL     1     -37.227  24.296   2.528  0.00  0.00    -0.385 NA
ATOM      3  N   UNL     1     -38.320  26.272   3.234  0.00  0.00    -0.328 N 
ATOM      4  C   UNL     1     -36.266  23.437   3.024  0.00  0.00    +0.122 C 
ATOM      5  C   UNL     1     -35.759  23.754   4.266  0.00  0.00    +0.119 C 
ATOM      6  C   UNL     1     -37.434  25.254   3.404  0.00  0.00    +0.204 C 
ATOM      7  H   UNL     1     -38.424  26.956   3.933  0.00  0.00    +0.145 HD
ATOM      8  H   UNL     1     -38.857  26.324   2.410  0.00  0.00    +0.145 HD
ENDROOT
BRANCH   4  10
ATOM      9 CL   UNL     1     -34.499  18.687  -0.087  0.00  0.00    -0.082 Cl
ATOM     10  C   UNL     1     -35.840  22.291   2.272  0.00  0.00    +0.026 C 
ATOM     11  C   UNL     1     -34.722  22.376   1.442  0.00  0.00    +0.003 C 
ATOM     12  C   UNL     1     -36.544  21.090   2.371  0.00  0.00    +0.003 C 
ATOM     13  C   UNL     1     -34.307  21.262   0.713  0.00  0.00    +0.011 C 
ATOM     14  C   UNL     1     -36.129  19.976   1.643  0.00  0.00    +0.011 C 
ATOM     15  C   UNL     1     -35.010  20.062   0.813  0.00  0.00    +0.058 C 
ENDBRANCH   4  10
BRANCH   5  16
ATOM     16  C   UNL     1     -34.738  23.072   5.091  0.00  0.00    +0.128 C 
BRANCH  16  18
ATOM     17  O   UNL     1     -36.124  22.070   6.803  0.00  0.00    -0.250 OA
ATOM     18  C   UNL     1     -35.334  21.926   5.878  0.00  0.00    +0.315 C 
BRANCH  18  19
ATOM     19  O   UNL     1     -34.866  20.716   5.480  0.00  0.00    -0.480 OA
ATOM     20  H   UNL     1     -35.442  19.978   5.447  0.00  0.00    +0.295 HD
ENDBRANCH  18  19
ENDBRANCH  16  18
ENDBRANCH   5  16
TORSDOF 4
ENDMDL
MODEL 3
REMARK VINA RESULT:      -5.5      2.762      3.517
REMARK  Name = 198256
REMARK  4 active torsions:
REMARK  status: ('A' for Active; 'I' for Inactive)
REMARK    1  A    between atoms: C_4  and  C_10
REMARK    2  A    between atoms: C_5  and  C_16
REMARK    3  A    between atoms: C_16  and  C_18
REMARK    4  A    between atoms: C_18  and  O_19
REMARK                            x       y       z     vdW  Elec       q    Type
REMARK                         _______ _______ _______ _____ _____    ______ ____
ROOT
ATOM      1  S   UNL     1     -38.072  22.040   1.410  0.00  0.00    -0.061 S 
ATOM      2  N   UNL     1     -38.452  23.972   3.086  0.00  0.00    -0.385 NA
ATOM      3  N   UNL     1     -40.403  23.166   2.019  0.00  0.00    -0.328 N 
ATOM      4  C   UNL     1     -37.100  23.692   3.071  0.00  0.00    +0.122 C 
ATOM      5  C   UNL     1     -36.704  22.678   2.225  0.00  0.00    +0.119 C 
ATOM      6  C   UNL     1     -39.063  23.162   2.249  0.00  0.00    +0.204 C 
ATOM      7  H   UNL     1     -40.794  22.531   1.378  0.00  0.00    +0.145 HD
ATOM      8  H   UNL     1     -40.982  23.804   2.495  0.00  0.00    +0.145 HD
ENDROOT
BRANCH   4  10
ATOM      9 CL   UNL     1     -33.303  26.742   6.483  0.00  0.00    -0.082 Cl
ATOM     10  C   UNL     1     -36.183  24.429   3.894  0.00  0.00    +0.026 C 
ATOM     11  C   UNL     1     -35.756  25.697   3.502  0.00  0.00    +0.003 C 
ATOM     12  C   UNL     1     -35.717  23.875   5.087  0.00  0.00    +0.003 C 
ATOM     13  C   UNL     1     -34.866  26.413   4.302  0.00  0.00    +0.011 C 
ATOM     14  C   UNL     1     -34.827  24.590   5.888  0.00  0.00    +0.011 C 
ATOM     15  C   UNL     1     -34.402  25.860   5.496  0.00  0.00    +0.058 C 
ENDBRANCH   4  10
BRANCH   5  16
ATOM     16  C   UNL     1     -35.362  22.119   1.954  0.00  0.00    +0.128 C 
BRANCH  16  18
ATOM     17  O   UNL     1     -34.892  19.753   1.754  0.00  0.00    -0.250 OA
ATOM     18  C   UNL     1     -35.242  20.697   2.453  0.00  0.00    +0.315 C 
BRANCH  18  19
ATOM     19  O   UNL     1     -35.607  20.564   3.753  0.00  0.00    -0.480 OA
ATOM     20  H   UNL     1     -35.758  19.712   4.113  0.00  0.00    +0.295 HD
ENDBRANCH  18  19
ENDBRANCH  16  18
ENDBRANCH   5  16
TORSDOF 4
ENDMDL
MODEL 4
REMARK VINA RESULT:      -5.5      2.889      3.814
REMARK  Name = 198256
REMARK  4 active torsions:
REMARK  status: ('A' for Active; 'I' for Inactive)
REMARK    1  A    between atoms: C_4  and  C_10
REMARK    2  A    between atoms: C_5  and  C_16
REMARK    3  A    between atoms: C_16  and  C_18
REMARK    4  A    between atoms: C_18  and  O_19
REMARK                            x       y       z     vdW  Elec       q    Type
REMARK                         _______ _______ _______ _____ _____    ______ ____
ROOT
ATOM      1  S   UNL     1     -37.621  23.205   2.996  0.00  0.00    -0.061 S 
ATOM      2  N   UNL     1     -37.307  25.741   3.388  0.00  0.00    -0.385 NA
ATOM      3  N   UNL     1     -39.376  25.120   2.425  0.00  0.00    -0.328 N 
ATOM      4  C   UNL     1     -36.161  25.106   3.824  0.00  0.00    +0.122 C 
ATOM      5  C   UNL     1     -36.145  23.734   3.692  0.00  0.00    +0.119 C 
ATOM      6  C   UNL     1     -38.146  24.838   2.932  0.00  0.00    +0.204 C 
ATOM      7  H   UNL     1     -39.954  24.393   2.101  0.00  0.00    +0.145 HD
ATOM      8  H   UNL     1     -39.689  26.053   2.384  0.00  0.00    +0.145 HD
ENDROOT
BRANCH   4  10
ATOM      9 CL   UNL     1     -31.624  28.199   6.109  0.00  0.00    -0.082 Cl
ATOM     10  C   UNL     1     -35.065  25.853   4.375  0.00  0.00    +0.026 C 
ATOM     11  C   UNL     1     -34.316  26.698   3.558  0.00  0.00    +0.003 C 
ATOM     12  C   UNL     1     -34.750  25.732   5.729  0.00  0.00    +0.003 C 
ATOM     13  C   UNL     1     -33.252  27.424   4.094  0.00  0.00    +0.011 C 
ATOM     14  C   UNL     1     -33.687  26.458   6.265  0.00  0.00    +0.011 C 
ATOM     15  C   UNL     1     -32.937  27.304   5.448  0.00  0.00    +0.058 C 
ENDBRANCH   4  10
BRANCH   5  16
ATOM     16  C   UNL     1     -35.104  22.744   4.045  0.00  0.00    +0.128 C 
BRANCH  16  18
ATOM     17  O   UNL     1     -35.938  22.524   6.306  0.00  0.00    -0.250 OA
ATOM     18  C   UNL     1     -35.456  21.996   5.312  0.00  0.00    +0.315 C 
BRANCH  18  19
ATOM     19  O   UNL     1     -35.138  20.679   5.249  0.00  0.00    -0.480 OA
ATOM     20  H   UNL     1     -34.355  20.365   5.657  0.00  0.00    +0.295 HD
ENDBRANCH  18  19
ENDBRANCH  16  18
ENDBRANCH   5  16
TORSDOF 4
ENDMDL
MODEL 5
REMARK VINA RESULT:      -5.4      2.793      3.439
REMARK  Name = 198256
REMARK  4 active torsions:
REMARK  status: ('A' for Active; 'I' for Inactive)
REMARK    1  A    between atoms: C_4  and  C_10
REMARK    2  A    between atoms: C_5  and  C_16
REMARK    3  A    between atoms: C_16  and  C_18
REMARK    4  A    between atoms: C_18  and  O_19
REMARK                            x       y       z     vdW  Elec       q    Type
REMARK                         _______ _______ _______ _____ _____    ______ ____
ROOT
ATOM      1  S   UNL     1     -38.061  21.793   1.427  0.00  0.00    -0.061 S 
ATOM      2  N   UNL     1     -38.454  23.805   3.003  0.00  0.00    -0.385 NA
ATOM      3  N   UNL     1     -40.394  22.960   1.947  0.00  0.00    -0.328 N 
ATOM      4  C   UNL     1     -37.103  23.517   3.020  0.00  0.00    +0.122 C 
ATOM      5  C   UNL     1     -36.702  22.462   2.229  0.00  0.00    +0.119 C 
ATOM      6  C   UNL     1     -39.057  22.960   2.197  0.00  0.00    +0.204 C 
ATOM      7  H   UNL     1     -40.780  22.297   1.331  0.00  0.00    +0.145 HD
ATOM      8  H   UNL     1     -40.976  23.623   2.384  0.00  0.00    +0.145 HD
ENDROOT
BRANCH   4  10
ATOM      9 CL   UNL     1     -33.331  26.705   6.333  0.00  0.00    -0.082 Cl
ATOM     10  C   UNL     1     -36.193  24.287   3.821  0.00  0.00    +0.026 C 
ATOM     11  C   UNL     1     -35.830  23.840   5.091  0.00  0.00    +0.003 C 
ATOM     12  C   UNL     1     -35.670  25.483   3.328  0.00  0.00    +0.003 C 
ATOM     13  C   UNL     1     -34.945  24.587   5.867  0.00  0.00    +0.011 C 
ATOM     14  C   UNL     1     -34.785  26.231   4.104  0.00  0.00    +0.011 C 
ATOM     15  C   UNL     1     -34.422  25.783   5.374  0.00  0.00    +0.058 C 
ENDBRANCH   4  10
BRANCH   5  16
ATOM     16  C   UNL     1     -35.359  21.883   2.005  0.00  0.00    +0.128 C 
BRANCH  16  18
ATOM     17  O   UNL     1     -35.206  20.628   4.069  0.00  0.00    -0.250 OA
ATOM     18  C   UNL     1     -35.141  20.645   2.845  0.00  0.00    +0.315 C 
BRANCH  18  19
ATOM     19  O   UNL     1     -34.819  19.556   2.103  0.00  0.00    -0.480 OA
ATOM     20  H   UNL     1     -34.172  18.952   2.411  0.00  0.00    +0.295 HD
ENDBRANCH  18  19
ENDBRANCH  16  18
ENDBRANCH   5  16
TORSDOF 4
ENDMDL
MODEL 6
REMARK VINA RESULT:      -5.4      4.109      5.326
REMARK  Name = 198256
REMARK  4 active torsions:
REMARK  status: ('A' for Active; 'I' for Inactive)
REMARK    1  A    between atoms: C_4  and  C_10
REMARK    2  A    between atoms: C_5  and  C_16
REMARK    3  A    between atoms: C_16  and  C_18
REMARK    4  A    between atoms: C_18  and  O_19
REMARK                            x       y       z     vdW  Elec       q    Type
REMARK                         _______ _______ _______ _____ _____    ______ ____
ROOT
ATOM      1  S   UNL     1     -37.795  22.869   2.611  0.00  0.00    -0.061 S 
ATOM      2  N   UNL     1     -37.100  21.281   0.693  0.00  0.00    -0.385 NA
ATOM      3  N   UNL     1     -39.371  21.944   0.678  0.00  0.00    -0.328 N 
ATOM      4  C   UNL     1     -35.983  21.511   1.471  0.00  0.00    +0.122 C 
ATOM      5  C   UNL     1     -36.164  22.345   2.554  0.00  0.00    +0.119 C 
ATOM      6  C   UNL     1     -38.115  21.947   1.199  0.00  0.00    +0.204 C 
ATOM      7  H   UNL     1     -40.084  22.466   1.110  0.00  0.00    +0.145 HD
ATOM      8  H   UNL     1     -39.566  21.419  -0.132  0.00  0.00    +0.145 HD
ENDROOT
BRANCH   4  10
ATOM      9 CL   UNL     1     -30.757  19.004   0.142  0.00  0.00    -0.082 Cl
ATOM     10  C   UNL     1     -34.721  20.906   1.151  0.00  0.00    +0.026 C 
ATOM     11  C   UNL     1     -34.402  19.647   1.657  0.00  0.00    +0.003 C 
ATOM     12  C   UNL     1     -33.812  21.578   0.332  0.00  0.00    +0.003 C 
ATOM     13  C   UNL     1     -33.177  19.058   1.345  0.00  0.00    +0.011 C 
ATOM     14  C   UNL     1     -32.587  20.989   0.019  0.00  0.00    +0.011 C 
ATOM     15  C   UNL     1     -32.269  19.729   0.526  0.00  0.00    +0.058 C 
ENDBRANCH   4  10
BRANCH   5  16
ATOM     16  C   UNL     1     -35.209  22.804   3.586  0.00  0.00    +0.128 C 
BRANCH  16  18
ATOM     17  O   UNL     1     -35.965  22.942   5.881  0.00  0.00    -0.250 OA
ATOM     18  C   UNL     1     -35.561  22.255   4.951  0.00  0.00    +0.315 C 
BRANCH  18  19
ATOM     19  O   UNL     1     -35.338  20.921   5.054  0.00  0.00    -0.480 OA
ATOM     20  H   UNL     1     -35.946  20.378   5.516  0.00  0.00    +0.295 HD
ENDBRANCH  18  19
ENDBRANCH  16  18
ENDBRANCH   5  16
TORSDOF 4
ENDMDL
MODEL 7
REMARK VINA RESULT:      -5.4      1.355      1.989
REMARK  Name = 198256
REMARK  4 active torsions:
REMARK  status: ('A' for Active; 'I' for Inactive)
REMARK    1  A    between atoms: C_4  and  C_10
REMARK    2  A    between atoms: C_5  and  C_16
REMARK    3  A    between atoms: C_16  and  C_18
REMARK    4  A    between atoms: C_18  and  O_19
REMARK                            x       y       z     vdW  Elec       q    Type
REMARK                         _______ _______ _______ _____ _____    ______ ____
ROOT
ATOM      1  S   UNL     1     -38.316  23.352   0.991  0.00  0.00    -0.061 S 
ATOM      2  N   UNL     1     -37.252  22.627   3.233  0.00  0.00    -0.385 NA
ATOM      3  N   UNL     1     -38.646  21.012   2.213  0.00  0.00    -0.328 N 
ATOM      4  C   UNL     1     -36.821  23.911   2.961  0.00  0.00    +0.122 C 
ATOM      5  C   UNL     1     -37.292  24.470   1.792  0.00  0.00    +0.119 C 
ATOM      6  C   UNL     1     -38.045  22.231   2.263  0.00  0.00    +0.204 C 
ATOM      7  H   UNL     1     -39.228  20.781   1.455  0.00  0.00    +0.145 HD
ATOM      8  H   UNL     1     -38.497  20.360   2.936  0.00  0.00    +0.145 HD
ENDROOT
BRANCH   4  10
ATOM      9 CL   UNL     1     -33.165  26.771   6.679  0.00  0.00    -0.082 Cl
ATOM     10  C   UNL     1     -35.938  24.601   3.859  0.00  0.00    +0.026 C 
ATOM     11  C   UNL     1     -34.565  24.608   3.619  0.00  0.00    +0.003 C 
ATOM     12  C   UNL     1     -36.454  25.266   4.972  0.00  0.00    +0.003 C 
ATOM     13  C   UNL     1     -33.707  25.279   4.490  0.00  0.00    +0.011 C 
ATOM     14  C   UNL     1     -35.597  25.937   5.844  0.00  0.00    +0.011 C 
ATOM     15  C   UNL     1     -34.223  25.944   5.603  0.00  0.00    +0.058 C 
ENDBRANCH   4  10
BRANCH   5  16
ATOM     16  C   UNL     1     -37.046  25.799   1.193  0.00  0.00    +0.128 C 
BRANCH  16  18
ATOM     17  O   UNL     1     -38.610  27.564   0.646  0.00  0.00    -0.250 OA
ATOM     18  C   UNL     1     -38.192  26.749   1.460  0.00  0.00    +0.315 C 
BRANCH  18  19
ATOM     19  O   UNL     1     -38.686  26.636   2.719  0.00  0.00    -0.480 OA
ATOM     20  H   UNL     1     -38.565  27.332   3.334  0.00  0.00    +0.295 HD
ENDBRANCH  18  19
ENDBRANCH  16  18
ENDBRANCH   5  16
TORSDOF 4
ENDMDL
MODEL 8
REMARK VINA RESULT:      -5.3      2.149      2.700
REMARK  Name = 198256
REMARK  4 active torsions:
REMARK  status: ('A' for Active; 'I' for Inactive)
REMARK    1  A    between atoms: C_4  and  C_10
REMARK    2  A    between atoms: C_5  and  C_16
REMARK    3  A    between atoms: C_16  and  C_18
REMARK    4  A    between atoms: C_18  and  O_19
REMARK                            x       y       z     vdW  Elec       q    Type
REMARK                         _______ _______ _______ _____ _____    ______ ____
ROOT
ATOM      1  S   UNL     1     -37.284  20.240   0.939  0.00  0.00    -0.061 S 
ATOM      2  N   UNL     1     -35.021  20.678   2.110  0.00  0.00    -0.385 NA
ATOM      3  N   UNL     1     -35.094  18.743   0.751  0.00  0.00    -0.328 N 
ATOM      4  C   UNL     1     -35.884  21.692   2.476  0.00  0.00    +0.122 C 
ATOM      5  C   UNL     1     -37.153  21.625   1.942  0.00  0.00    +0.119 C 
ATOM      6  C   UNL     1     -35.651  19.855   1.302  0.00  0.00    +0.204 C 
ATOM      7  H   UNL     1     -35.624  18.171   0.153  0.00  0.00    +0.145 HD
ATOM      8  H   UNL     1     -34.157  18.512   0.951  0.00  0.00    +0.145 HD
ENDROOT
BRANCH   4  10
ATOM      9 CL   UNL     1     -34.134  26.034   6.143  0.00  0.00    -0.082 Cl
ATOM     10  C   UNL     1     -35.461  22.740   3.361  0.00  0.00    +0.026 C 
ATOM     11  C   UNL     1     -34.889  23.902   2.844  0.00  0.00    +0.003 C 
ATOM     12  C   UNL     1     -35.622  22.597   4.740  0.00  0.00    +0.003 C 
ATOM     13  C   UNL     1     -34.479  24.921   3.704  0.00  0.00    +0.011 C 
ATOM     14  C   UNL     1     -35.212  23.616   5.600  0.00  0.00    +0.011 C 
ATOM     15  C   UNL     1     -34.641  24.778   5.082  0.00  0.00    +0.058 C 
ENDBRANCH   4  10
BRANCH   5  16
ATOM     16  C   UNL     1     -38.318  22.521   2.112  0.00  0.00    +0.128 C 
BRANCH  16  18
ATOM     17  O   UNL     1     -40.146  22.158   0.568  0.00  0.00    -0.250 OA
ATOM     18  C   UNL     1     -39.593  21.871   1.623  0.00  0.00    +0.315 C 
BRANCH  18  19
ATOM     19  O   UNL     1     -40.091  20.964   2.500  0.00  0.00    -0.480 OA
ATOM     20  H   UNL     1     -40.824  20.432   2.260  0.00  0.00    +0.295 HD
ENDBRANCH  18  19
ENDBRANCH  16  18
ENDBRANCH   5  16
TORSDOF 4
ENDMDL
MODEL 9
REMARK VINA RESULT:      -5.1      4.956      6.433
REMARK  Name = 198256
REMARK  4 active torsions:
REMARK  status: ('A' for Active; 'I' for Inactive)
REMARK    1  A    between atoms: C_4  and  C_10
REMARK    2  A    between atoms: C_5  and  C_16
REMARK    3  A    between atoms: C_16  and  C_18
REMARK    4  A    between atoms: C_18  and  O_19
REMARK                            x       y       z     vdW  Elec       q    Type
REMARK                         _______ _______ _______ _____ _____    ______ ____
ROOT
ATOM      1  S   UNL     1     -37.659  21.392   1.472  0.00  0.00    -0.061 S 
ATOM      2  N   UNL     1     -35.331  21.534   2.589  0.00  0.00    -0.385 NA
ATOM      3  N   UNL     1     -37.058  22.700   3.708  0.00  0.00    -0.328 N 
ATOM      4  C   UNL     1     -35.204  20.760   1.452  0.00  0.00    +0.122 C 
ATOM      5  C   UNL     1     -36.355  20.571   0.719  0.00  0.00    +0.119 C 
ATOM      6  C   UNL     1     -36.583  21.922   2.699  0.00  0.00    +0.204 C 
ATOM      7  H   UNL     1     -38.008  22.953   3.729  0.00  0.00    +0.145 HD
ATOM      8  H   UNL     1     -36.450  23.010   4.419  0.00  0.00    +0.145 HD
ENDROOT
BRANCH   4  10
ATOM      9 CL   UNL     1     -29.954  18.431  -0.091  0.00  0.00    -0.082 Cl
ATOM     10  C   UNL     1     -33.936  20.197   1.079  0.00  0.00    +0.026 C 
ATOM     11  C   UNL     1     -33.075  20.909   0.246  0.00  0.00    +0.003 C 
ATOM     12  C   UNL     1     -33.566  18.937   1.551  0.00  0.00    +0.003 C 
ATOM     13  C   UNL     1     -31.843  20.364  -0.116  0.00  0.00    +0.011 C 
ATOM     14  C   UNL     1     -32.334  18.391   1.190  0.00  0.00    +0.011 C 
ATOM     15  C   UNL     1     -31.473  19.105   0.356  0.00  0.00    +0.058 C 
ENDBRANCH   4  10
BRANCH   5  16
ATOM     16  C   UNL     1     -36.588  19.815  -0.531  0.00  0.00    +0.128 C 
BRANCH  16  18
ATOM     17  O   UNL     1     -38.542  18.448  -0.944  0.00  0.00    -0.250 OA
ATOM     18  C   UNL     1     -37.515  18.641  -0.305  0.00  0.00    +0.315 C 
BRANCH  18  19
ATOM     19  O   UNL     1     -37.113  17.843   0.716  0.00  0.00    -0.480 OA
ATOM     20  H   UNL     1     -36.792  18.223   1.510  0.00  0.00    +0.295 HD
ENDBRANCH  18  19
ENDBRANCH  16  18
ENDBRANCH   5  16
TORSDOF 4
ENDMDL
