MODEL 1
REMARK VINA RESULT:      -6.5      0.000      0.000
REMARK  Name = 53321933
REMARK  8 active torsions:
REMARK  status: ('A' for Active; 'I' for Inactive)
REMARK    1  A    between atoms: N_1  and  S_13
REMARK    2  A    between atoms: C_2  and  C_7
REMARK    3  A    between atoms: C_2  and  C_19
REMARK    4  A    between atoms: S_13  and  C_16
REMARK    5  A    between atoms: C_16  and  C_17
REMARK    6  A    between atoms: C_19  and  N_22
REMARK    7  A    between atoms: C_23  and  C_26
REMARK    8  A    between atoms: C_27  and  N_32
REMARK                            x       y       z     vdW  Elec       q    Type
REMARK                         _______ _______ _______ _____ _____    ______ ____
ROOT
ATOM      1  N   UNL     1     -35.756  22.866   3.239  0.00  0.00    -0.159 NA
ATOM      2  C   UNL     1     -35.468  21.424   0.655  0.00  0.00    +0.038 C 
ATOM      3  C   UNL     1     -35.279  22.962   0.816  0.00  0.00    +0.025 C 
ATOM      4  C   UNL     1     -36.447  20.998   1.788  0.00  0.00    +0.025 C 
ATOM      5  C   UNL     1     -35.938  21.388   3.176  0.00  0.00    +0.096 C 
ATOM      6  C   UNL     1     -34.799  23.366   2.212  0.00  0.00    +0.096 C 
ENDROOT
BRANCH   2   7
ATOM      7  C   UNL     1     -34.158  20.606   0.658  0.00  0.00    -0.021 C 
ATOM      8  C   UNL     1     -34.099  19.388   1.336  0.00  0.00    -0.004 C 
ATOM      9  C   UNL     1     -33.035  21.084  -0.017  0.00  0.00    -0.004 C 
ATOM     10  C   UNL     1     -32.916  18.648   1.339  0.00  0.00    -0.000 C 
ATOM     11  C   UNL     1     -31.853  20.344  -0.013  0.00  0.00    -0.000 C 
ATOM     12  C   UNL     1     -31.794  19.127   0.665  0.00  0.00    -0.000 C 
ENDBRANCH   2   7
BRANCH   1  13
ATOM     13  S   UNL     1     -35.545  23.512   4.812  0.00  0.00    +0.044 S 
ATOM     14  O   UNL     1     -35.146  22.445   5.701  0.00  0.00    -0.157 OA
ATOM     15  O   UNL     1     -36.665  24.377   5.113  0.00  0.00    -0.157 OA
BRANCH  13  16
ATOM     16  C   UNL     1     -34.127  24.534   4.510  0.00  0.00    +0.169 C 
BRANCH  16  17
ATOM     17  C   UNL     1     -34.396  25.981   4.892  0.00  0.00    +0.027 C 
ATOM     18  C   UNL     1     -33.749  26.335   6.220  0.00  0.00    +0.002 C 
ENDBRANCH  16  17
ENDBRANCH  13  16
ENDBRANCH   1  13
BRANCH   2  19
ATOM     19  C   UNL     1     -36.149  21.171  -0.709  0.00  0.00    +0.076 C 
ATOM     20  C   UNL     1     -36.914  22.402  -1.170  0.00  0.00    +0.022 C 
BRANCH  19  22
ATOM     21  O   UNL     1     -35.943  18.736  -2.217  0.00  0.00    -0.270 OA
ATOM     22  N   UNL     1     -37.020  20.028  -0.621  0.00  0.00    -0.302 N 
ATOM     23  C   UNL     1     -36.842  18.889  -1.394  0.00  0.00    +0.248 C 
ATOM     24  H   UNL     1     -37.773  20.056   0.013  0.00  0.00    +0.150 HD
BRANCH  23  26
ATOM     25 CL   UNL     1     -39.585  19.286  -2.698  0.00  0.00    -0.082 Cl
ATOM     26  C   UNL     1     -37.842  17.807  -1.204  0.00  0.00    +0.077 C 
ATOM     27  C   UNL     1     -37.497  16.679  -0.459  0.00  0.00    +0.047 C 
ATOM     28  C   UNL     1     -39.114  17.910  -1.765  0.00  0.00    +0.063 C 
ATOM     29  C   UNL     1     -38.425  15.655  -0.275  0.00  0.00    +0.014 C 
ATOM     30  C   UNL     1     -40.043  16.886  -1.581  0.00  0.00    +0.012 C 
ATOM     31  C   UNL     1     -39.699  15.757  -0.836  0.00  0.00    +0.002 C 
BRANCH  27  32
ATOM     32  N   UNL     1     -36.213  16.551   0.120  0.00  0.00    -0.357 N 
ATOM     33  H   UNL     1     -35.553  17.274   0.017  0.00  0.00    +0.142 HD
ATOM     34  H   UNL     1     -35.980  15.739   0.624  0.00  0.00    +0.142 HD
ENDBRANCH  27  32
ENDBRANCH  23  26
ENDBRANCH  19  22
ENDBRANCH   2  19
TORSDOF 8
ENDMDL
MODEL 2
REMARK VINA RESULT:      -6.4      1.131      1.603
REMARK  Name = 53321933
REMARK  8 active torsions:
REMARK  status: ('A' for Active; 'I' for Inactive)
REMARK    1  A    between atoms: N_1  and  S_13
REMARK    2  A    between atoms: C_2  and  C_7
REMARK    3  A    between atoms: C_2  and  C_19
REMARK    4  A    between atoms: S_13  and  C_16
REMARK    5  A    between atoms: C_16  and  C_17
REMARK    6  A    between atoms: C_19  and  N_22
REMARK    7  A    between atoms: C_23  and  C_26
REMARK    8  A    between atoms: C_27  and  N_32
REMARK                            x       y       z     vdW  Elec       q    Type
REMARK                         _______ _______ _______ _____ _____    ______ ____
ROOT
ATOM      1  N   UNL     1     -35.668  23.077   3.261  0.00  0.00    -0.159 NA
ATOM      2  C   UNL     1     -35.465  21.575   0.703  0.00  0.00    +0.038 C 
ATOM      3  C   UNL     1     -35.199  23.105   0.836  0.00  0.00    +0.025 C 
ATOM      4  C   UNL     1     -36.458  21.219   1.849  0.00  0.00    +0.025 C 
ATOM      5  C   UNL     1     -35.923  21.609   3.227  0.00  0.00    +0.096 C 
ATOM      6  C   UNL     1     -34.693  23.510   2.222  0.00  0.00    +0.096 C 
ENDROOT
BRANCH   2   7
ATOM      7  C   UNL     1     -34.197  20.694   0.716  0.00  0.00    -0.021 C 
ATOM      8  C   UNL     1     -33.063  21.094   0.010  0.00  0.00    -0.004 C 
ATOM      9  C   UNL     1     -34.185  19.498   1.434  0.00  0.00    -0.004 C 
ATOM     10  C   UNL     1     -31.917  20.298   0.021  0.00  0.00    -0.000 C 
ATOM     11  C   UNL     1     -33.040  18.703   1.446  0.00  0.00    -0.000 C 
ATOM     12  C   UNL     1     -31.906  19.103   0.739  0.00  0.00    -0.000 C 
ENDBRANCH   2   7
BRANCH   1  13
ATOM     13  S   UNL     1     -35.417  23.740   4.822  0.00  0.00    +0.044 S 
ATOM     14  O   UNL     1     -34.055  24.214   4.911  0.00  0.00    -0.157 OA
ATOM     15  O   UNL     1     -35.977  22.838   5.804  0.00  0.00    -0.157 OA
BRANCH  13  16
ATOM     16  C   UNL     1     -36.484  25.153   4.703  0.00  0.00    +0.169 C 
BRANCH  16  17
ATOM     17  C   UNL     1     -37.629  24.902   3.736  0.00  0.00    +0.027 C 
ATOM     18  C   UNL     1     -37.686  25.966   2.653  0.00  0.00    +0.002 C 
ENDBRANCH  16  17
ENDBRANCH  13  16
ENDBRANCH   1  13
BRANCH   2  19
ATOM     19  C   UNL     1     -36.165  21.331  -0.653  0.00  0.00    +0.076 C 
ATOM     20  C   UNL     1     -36.972  22.550  -1.073  0.00  0.00    +0.022 C 
BRANCH  19  22
ATOM     21  O   UNL     1     -35.984  18.975  -2.283  0.00  0.00    -0.270 OA
ATOM     22  N   UNL     1     -37.003  20.163  -0.572  0.00  0.00    -0.302 N 
ATOM     23  C   UNL     1     -36.840  19.066  -1.407  0.00  0.00    +0.248 C 
ATOM     24  H   UNL     1     -37.720  20.142   0.102  0.00  0.00    +0.150 HD
BRANCH  23  26
ATOM     25 CL   UNL     1     -39.613  19.389  -2.668  0.00  0.00    -0.082 Cl
ATOM     26  C   UNL     1     -37.802  17.951  -1.215  0.00  0.00    +0.077 C 
ATOM     27  C   UNL     1     -37.411  16.827  -0.488  0.00  0.00    +0.047 C 
ATOM     28  C   UNL     1     -39.085  18.019  -1.757  0.00  0.00    +0.063 C 
ATOM     29  C   UNL     1     -38.302  15.771  -0.302  0.00  0.00    +0.014 C 
ATOM     30  C   UNL     1     -39.977  16.963  -1.571  0.00  0.00    +0.012 C 
ATOM     31  C   UNL     1     -39.587  15.838  -0.844  0.00  0.00    +0.002 C 
BRANCH  27  32
ATOM     32  N   UNL     1     -36.115  16.734   0.072  0.00  0.00    -0.357 N 
ATOM     33  H   UNL     1     -35.890  15.984   0.668  0.00  0.00    +0.142 HD
ATOM     34  H   UNL     1     -35.440  17.420  -0.135  0.00  0.00    +0.142 HD
ENDBRANCH  27  32
ENDBRANCH  23  26
ENDBRANCH  19  22
ENDBRANCH   2  19
TORSDOF 8
ENDMDL
MODEL 3
REMARK VINA RESULT:      -6.2      1.162      1.676
REMARK  Name = 53321933
REMARK  8 active torsions:
REMARK  status: ('A' for Active; 'I' for Inactive)
REMARK    1  A    between atoms: N_1  and  S_13
REMARK    2  A    between atoms: C_2  and  C_7
REMARK    3  A    between atoms: C_2  and  C_19
REMARK    4  A    between atoms: S_13  and  C_16
REMARK    5  A    between atoms: C_16  and  C_17
REMARK    6  A    between atoms: C_19  and  N_22
REMARK    7  A    between atoms: C_23  and  C_26
REMARK    8  A    between atoms: C_27  and  N_32
REMARK                            x       y       z     vdW  Elec       q    Type
REMARK                         _______ _______ _______ _____ _____    ______ ____
ROOT
ATOM      1  N   UNL     1     -36.211  23.603   2.282  0.00  0.00    -0.159 NA
ATOM      2  C   UNL     1     -35.780  21.668   0.066  0.00  0.00    +0.038 C 
ATOM      3  C   UNL     1     -35.529  23.201  -0.059  0.00  0.00    +0.025 C 
ATOM      4  C   UNL     1     -36.870  21.508   1.166  0.00  0.00    +0.025 C 
ATOM      5  C   UNL     1     -36.460  22.149   2.492  0.00  0.00    +0.096 C 
ATOM      6  C   UNL     1     -35.148  23.858   1.270  0.00  0.00    +0.096 C 
ENDROOT
BRANCH   2   7
ATOM      7  C   UNL     1     -34.517  20.826   0.348  0.00  0.00    -0.021 C 
ATOM      8  C   UNL     1     -33.300  21.178  -0.233  0.00  0.00    -0.004 C 
ATOM      9  C   UNL     1     -34.594  19.713   1.185  0.00  0.00    -0.004 C 
ATOM     10  C   UNL     1     -32.158  20.418   0.022  0.00  0.00    -0.000 C 
ATOM     11  C   UNL     1     -33.453  18.952   1.440  0.00  0.00    -0.000 C 
ATOM     12  C   UNL     1     -32.235  19.305   0.858  0.00  0.00    -0.000 C 
ENDBRANCH   2   7
BRANCH   1  13
ATOM     13  S   UNL     1     -36.101  24.541   3.713  0.00  0.00    +0.044 S 
ATOM     14  O   UNL     1     -37.320  24.376   4.471  0.00  0.00    -0.157 OA
ATOM     15  O   UNL     1     -35.586  25.849   3.371  0.00  0.00    -0.157 OA
BRANCH  13  16
ATOM     16  C   UNL     1     -34.813  23.643   4.539  0.00  0.00    +0.169 C 
BRANCH  16  17
ATOM     17  C   UNL     1     -35.255  23.186   5.920  0.00  0.00    +0.027 C 
ATOM     18  C   UNL     1     -35.225  21.672   6.042  0.00  0.00    +0.002 C 
ENDBRANCH  16  17
ENDBRANCH  13  16
ENDBRANCH   1  13
BRANCH   2  19
ATOM     19  C   UNL     1     -36.357  21.172  -1.280  0.00  0.00    +0.076 C 
ATOM     20  C   UNL     1     -37.134  22.278  -1.977  0.00  0.00    +0.022 C 
BRANCH  19  22
ATOM     21  O   UNL     1     -36.171  18.648  -2.634  0.00  0.00    -0.270 OA
ATOM     22  N   UNL     1     -37.188  20.017  -1.063  0.00  0.00    -0.302 N 
ATOM     23  C   UNL     1     -37.023  18.833  -1.769  0.00  0.00    +0.248 C 
ATOM     24  H   UNL     1     -37.903  20.069  -0.388  0.00  0.00    +0.150 HD
BRANCH  23  26
ATOM     25 CL   UNL     1     -39.804  19.000  -3.046  0.00  0.00    -0.082 Cl
ATOM     26  C   UNL     1     -37.979  17.743  -1.448  0.00  0.00    +0.077 C 
ATOM     27  C   UNL     1     -37.580  16.709  -0.601  0.00  0.00    +0.047 C 
ATOM     28  C   UNL     1     -39.265  17.743  -1.988  0.00  0.00    +0.063 C 
ATOM     29  C   UNL     1     -38.465  15.678  -0.293  0.00  0.00    +0.014 C 
ATOM     30  C   UNL     1     -40.151  16.712  -1.680  0.00  0.00    +0.012 C 
ATOM     31  C   UNL     1     -39.752  15.678  -0.832  0.00  0.00    +0.002 C 
BRANCH  27  32
ATOM     32  N   UNL     1     -36.281  16.686  -0.041  0.00  0.00    -0.357 N 
ATOM     33  H   UNL     1     -35.501  16.905  -0.599  0.00  0.00    +0.142 HD
ATOM     34  H   UNL     1     -36.159  16.449   0.907  0.00  0.00    +0.142 HD
ENDBRANCH  27  32
ENDBRANCH  23  26
ENDBRANCH  19  22
ENDBRANCH   2  19
TORSDOF 8
ENDMDL
MODEL 4
REMARK VINA RESULT:      -6.1      3.420      5.826
REMARK  Name = 53321933
REMARK  8 active torsions:
REMARK  status: ('A' for Active; 'I' for Inactive)
REMARK    1  A    between atoms: N_1  and  S_13
REMARK    2  A    between atoms: C_2  and  C_7
REMARK    3  A    between atoms: C_2  and  C_19
REMARK    4  A    between atoms: S_13  and  C_16
REMARK    5  A    between atoms: C_16  and  C_17
REMARK    6  A    between atoms: C_19  and  N_22
REMARK    7  A    between atoms: C_23  and  C_26
REMARK    8  A    between atoms: C_27  and  N_32
REMARK                            x       y       z     vdW  Elec       q    Type
REMARK                         _______ _______ _______ _____ _____    ______ ____
ROOT
ATOM      1  N   UNL     1     -33.383  26.358   4.420  0.00  0.00    -0.159 NA
ATOM      2  C   UNL     1     -35.496  24.356   3.809  0.00  0.00    +0.038 C 
ATOM      3  C   UNL     1     -35.240  24.942   5.230  0.00  0.00    +0.025 C 
ATOM      4  C   UNL     1     -34.129  24.438   3.067  0.00  0.00    +0.025 C 
ATOM      5  C   UNL     1     -33.571  25.861   3.027  0.00  0.00    +0.096 C 
ATOM      6  C   UNL     1     -34.652  26.355   5.201  0.00  0.00    +0.096 C 
ENDROOT
BRANCH   2   7
ATOM      7  C   UNL     1     -36.642  25.032   3.026  0.00  0.00    -0.021 C 
ATOM      8  C   UNL     1     -37.871  25.257   3.646  0.00  0.00    -0.004 C 
ATOM      9  C   UNL     1     -36.450  25.418   1.700  0.00  0.00    -0.004 C 
ATOM     10  C   UNL     1     -38.908  25.868   2.940  0.00  0.00    -0.000 C 
ATOM     11  C   UNL     1     -37.485  26.028   0.994  0.00  0.00    -0.000 C 
ATOM     12  C   UNL     1     -38.715  26.253   1.614  0.00  0.00    -0.000 C 
ENDBRANCH   2   7
BRANCH   1  13
ATOM     13  S   UNL     1     -32.434  27.777   4.570  0.00  0.00    +0.044 S 
ATOM     14  O   UNL     1     -33.243  28.916   4.202  0.00  0.00    -0.157 OA
ATOM     15  O   UNL     1     -31.140  27.535   3.970  0.00  0.00    -0.157 OA
BRANCH  13  16
ATOM     16  C   UNL     1     -32.228  27.795   6.331  0.00  0.00    +0.169 C 
BRANCH  16  17
ATOM     17  C   UNL     1     -31.838  29.177   6.830  0.00  0.00    +0.027 C 
ATOM     18  C   UNL     1     -30.333  29.381   6.782  0.00  0.00    +0.002 C 
ENDBRANCH  16  17
ENDBRANCH  13  16
ENDBRANCH   1  13
BRANCH   2  19
ATOM     19  C   UNL     1     -35.882  22.869   3.973  0.00  0.00    +0.076 C 
ATOM     20  C   UNL     1     -35.367  22.317   5.294  0.00  0.00    +0.022 C 
BRANCH  19  22
ATOM     21  O   UNL     1     -37.373  21.957   1.696  0.00  0.00    -0.270 OA
ATOM     22  N   UNL     1     -35.376  22.103   2.864  0.00  0.00    -0.302 N 
ATOM     23  C   UNL     1     -36.176  21.705   1.802  0.00  0.00    +0.248 C 
ATOM     24  H   UNL     1     -34.424  21.851   2.859  0.00  0.00    +0.150 HD
BRANCH  23  26
ATOM     25 CL   UNL     1     -34.047  23.114   0.108  0.00  0.00    -0.082 Cl
ATOM     26  C   UNL     1     -35.509  20.898   0.748  0.00  0.00    +0.077 C 
ATOM     27  C   UNL     1     -35.869  19.561   0.580  0.00  0.00    +0.047 C 
ATOM     28  C   UNL     1     -34.529  21.463  -0.066  0.00  0.00    +0.063 C 
ATOM     29  C   UNL     1     -35.250  18.789  -0.403  0.00  0.00    +0.014 C 
ATOM     30  C   UNL     1     -33.909  20.692  -1.050  0.00  0.00    +0.012 C 
ATOM     31  C   UNL     1     -34.269  19.355  -1.219  0.00  0.00    +0.002 C 
BRANCH  27  32
ATOM     32  N   UNL     1     -36.860  18.964   1.393  0.00  0.00    -0.357 N 
ATOM     33  H   UNL     1     -37.213  19.449   2.174  0.00  0.00    +0.142 HD
ATOM     34  H   UNL     1     -37.196  18.064   1.179  0.00  0.00    +0.142 HD
ENDBRANCH  27  32
ENDBRANCH  23  26
ENDBRANCH  19  22
ENDBRANCH   2  19
TORSDOF 8
ENDMDL
MODEL 5
REMARK VINA RESULT:      -6.0      5.549      9.571
REMARK  Name = 53321933
REMARK  8 active torsions:
REMARK  status: ('A' for Active; 'I' for Inactive)
REMARK    1  A    between atoms: N_1  and  S_13
REMARK    2  A    between atoms: C_2  and  C_7
REMARK    3  A    between atoms: C_2  and  C_19
REMARK    4  A    between atoms: S_13  and  C_16
REMARK    5  A    between atoms: C_16  and  C_17
REMARK    6  A    between atoms: C_19  and  N_22
REMARK    7  A    between atoms: C_23  and  C_26
REMARK    8  A    between atoms: C_27  and  N_32
REMARK                            x       y       z     vdW  Elec       q    Type
REMARK                         _______ _______ _______ _____ _____    ______ ____
ROOT
ATOM      1  N   UNL     1     -38.398  26.104   2.952  0.00  0.00    -0.159 NA
ATOM      2  C   UNL     1     -35.608  25.286   3.577  0.00  0.00    +0.038 C 
ATOM      3  C   UNL     1     -36.828  24.989   4.500  0.00  0.00    +0.025 C 
ATOM      4  C   UNL     1     -35.984  26.571   2.783  0.00  0.00    +0.025 C 
ATOM      5  C   UNL     1     -37.290  26.415   2.003  0.00  0.00    +0.096 C 
ATOM      6  C   UNL     1     -38.146  24.861   3.733  0.00  0.00    +0.096 C 
ENDROOT
BRANCH   2   7
ATOM      7  C   UNL     1     -35.190  24.117   2.659  0.00  0.00    -0.021 C 
ATOM      8  C   UNL     1     -35.564  22.812   2.978  0.00  0.00    -0.004 C 
ATOM      9  C   UNL     1     -34.440  24.366   1.510  0.00  0.00    -0.004 C 
ATOM     10  C   UNL     1     -35.188  21.755   2.149  0.00  0.00    -0.000 C 
ATOM     11  C   UNL     1     -34.063  23.310   0.681  0.00  0.00    -0.000 C 
ATOM     12  C   UNL     1     -34.437  22.004   1.001  0.00  0.00    -0.000 C 
ENDBRANCH   2   7
BRANCH   1  13
ATOM     13  S   UNL     1     -39.978  26.256   2.307  0.00  0.00    +0.044 S 
ATOM     14  O   UNL     1     -39.906  27.010   1.076  0.00  0.00    -0.157 OA
ATOM     15  O   UNL     1     -40.881  26.625   3.375  0.00  0.00    -0.157 OA
BRANCH  13  16
ATOM     16  C   UNL     1     -40.279  24.557   1.895  0.00  0.00    +0.169 C 
BRANCH  16  17
ATOM     17  C   UNL     1     -39.798  24.235   0.489  0.00  0.00    +0.027 C 
ATOM     18  C   UNL     1     -38.652  23.237   0.509  0.00  0.00    +0.002 C 
ENDBRANCH  16  17
ENDBRANCH  13  16
ENDBRANCH   1  13
BRANCH   2  19
ATOM     19  C   UNL     1     -34.395  25.600   4.481  0.00  0.00    +0.076 C 
ATOM     20  C   UNL     1     -34.696  25.255   5.932  0.00  0.00    +0.022 C 
BRANCH  19  22
ATOM     21  O   UNL     1     -31.952  26.625   3.375  0.00  0.00    -0.270 OA
ATOM     22  N   UNL     1     -34.026  26.985   4.348  0.00  0.00    -0.302 N 
ATOM     23  C   UNL     1     -32.817  27.388   3.798  0.00  0.00    +0.248 C 
ATOM     24  H   UNL     1     -34.656  27.674   4.660  0.00  0.00    +0.150 HD
BRANCH  23  26
ATOM     25 CL   UNL     1     -31.812  28.707   6.374  0.00  0.00    -0.082 Cl
ATOM     26  C   UNL     1     -32.575  28.853   3.755  0.00  0.00    +0.077 C 
ATOM     27  C   UNL     1     -32.806  29.551   2.570  0.00  0.00    +0.047 C 
ATOM     28  C   UNL     1     -32.117  29.530   4.885  0.00  0.00    +0.063 C 
ATOM     29  C   UNL     1     -32.581  30.926   2.514  0.00  0.00    +0.014 C 
ATOM     30  C   UNL     1     -31.891  30.905   4.830  0.00  0.00    +0.012 C 
ATOM     31  C   UNL     1     -32.123  31.604   3.645  0.00  0.00    +0.002 C 
BRANCH  27  32
ATOM     32  N   UNL     1     -33.270  28.887   1.411  0.00  0.00    -0.357 N 
ATOM     33  H   UNL     1     -33.486  27.927   1.447  0.00  0.00    +0.142 HD
ATOM     34  H   UNL     1     -33.377  29.385   0.568  0.00  0.00    +0.142 HD
ENDBRANCH  27  32
ENDBRANCH  23  26
ENDBRANCH  19  22
ENDBRANCH   2  19
TORSDOF 8
ENDMDL
MODEL 6
REMARK VINA RESULT:      -6.0      3.953      7.558
REMARK  Name = 53321933
REMARK  8 active torsions:
REMARK  status: ('A' for Active; 'I' for Inactive)
REMARK    1  A    between atoms: N_1  and  S_13
REMARK    2  A    between atoms: C_2  and  C_7
REMARK    3  A    between atoms: C_2  and  C_19
REMARK    4  A    between atoms: S_13  and  C_16
REMARK    5  A    between atoms: C_16  and  C_17
REMARK    6  A    between atoms: C_19  and  N_22
REMARK    7  A    between atoms: C_23  and  C_26
REMARK    8  A    between atoms: C_27  and  N_32
REMARK                            x       y       z     vdW  Elec       q    Type
REMARK                         _______ _______ _______ _____ _____    ______ ____
ROOT
ATOM      1  N   UNL     1     -34.649  20.790   0.648  0.00  0.00    -0.159 NA
ATOM      2  C   UNL     1     -36.678  22.148   2.346  0.00  0.00    +0.038 C 
ATOM      3  C   UNL     1     -36.724  20.634   1.980  0.00  0.00    +0.025 C 
ATOM      4  C   UNL     1     -35.910  22.839   1.181  0.00  0.00    +0.025 C 
ATOM      5  C   UNL     1     -34.519  22.242   0.963  0.00  0.00    +0.096 C 
ATOM      6  C   UNL     1     -35.339  20.033   1.730  0.00  0.00    +0.096 C 
ENDROOT
BRANCH   2   7
ATOM      7  C   UNL     1     -36.072  22.462   3.730  0.00  0.00    -0.021 C 
ATOM      8  C   UNL     1     -35.632  21.423   4.551  0.00  0.00    -0.004 C 
ATOM      9  C   UNL     1     -35.965  23.784   4.162  0.00  0.00    -0.004 C 
ATOM     10  C   UNL     1     -35.084  21.706   5.802  0.00  0.00    -0.000 C 
ATOM     11  C   UNL     1     -35.418  24.067   5.412  0.00  0.00    -0.000 C 
ATOM     12  C   UNL     1     -34.977  23.028   6.233  0.00  0.00    -0.000 C 
ENDBRANCH   2   7
BRANCH   1  13
ATOM     13  S   UNL     1     -33.236  20.049   0.021  0.00  0.00    +0.044 S 
ATOM     14  O   UNL     1     -32.155  21.008   0.055  0.00  0.00    -0.157 OA
ATOM     15  O   UNL     1     -33.585  19.335  -1.188  0.00  0.00    -0.157 OA
BRANCH  13  16
ATOM     16  C   UNL     1     -32.953  18.855   1.302  0.00  0.00    +0.169 C 
BRANCH  16  17
ATOM     17  C   UNL     1     -32.157  17.667   0.786  0.00  0.00    +0.027 C 
ATOM     18  C   UNL     1     -30.662  17.926   0.856  0.00  0.00    +0.002 C 
ENDBRANCH  16  17
ENDBRANCH  13  16
ENDBRANCH   1  13
BRANCH   2  19
ATOM     19  C   UNL     1     -38.131  22.675   2.363  0.00  0.00    +0.076 C 
ATOM     20  C   UNL     1     -39.090  21.638   1.799  0.00  0.00    +0.022 C 
BRANCH  19  22
ATOM     21  O   UNL     1     -39.229  25.158   3.297  0.00  0.00    -0.270 OA
ATOM     22  N   UNL     1     -38.216  23.909   1.626  0.00  0.00    -0.302 N 
ATOM     23  C   UNL     1     -38.766  25.065   2.163  0.00  0.00    +0.248 C 
ATOM     24  H   UNL     1     -37.871  23.933   0.704  0.00  0.00    +0.150 HD
BRANCH  23  26
ATOM     25 CL   UNL     1     -36.147  26.607   1.782  0.00  0.00    -0.082 Cl
ATOM     26  C   UNL     1     -38.805  26.248   1.266  0.00  0.00    +0.077 C 
ATOM     27  C   UNL     1     -40.004  26.597   0.645  0.00  0.00    +0.047 C 
ATOM     28  C   UNL     1     -37.656  27.004   1.039  0.00  0.00    +0.063 C 
ATOM     29  C   UNL     1     -40.054  27.704  -0.203  0.00  0.00    +0.014 C 
ATOM     30  C   UNL     1     -37.705  28.111   0.191  0.00  0.00    +0.012 C 
ATOM     31  C   UNL     1     -38.905  28.462  -0.430  0.00  0.00    +0.002 C 
BRANCH  27  32
ATOM     32  N   UNL     1     -41.182  25.846   0.859  0.00  0.00    -0.357 N 
ATOM     33  H   UNL     1     -41.461  25.170   0.200  0.00  0.00    +0.142 HD
ATOM     34  H   UNL     1     -41.724  26.000   1.666  0.00  0.00    +0.142 HD
ENDBRANCH  27  32
ENDBRANCH  23  26
ENDBRANCH  19  22
ENDBRANCH   2  19
TORSDOF 8
ENDMDL
MODEL 7
REMARK VINA RESULT:      -6.0      5.849      8.178
REMARK  Name = 53321933
REMARK  8 active torsions:
REMARK  status: ('A' for Active; 'I' for Inactive)
REMARK    1  A    between atoms: N_1  and  S_13
REMARK    2  A    between atoms: C_2  and  C_7
REMARK    3  A    between atoms: C_2  and  C_19
REMARK    4  A    between atoms: S_13  and  C_16
REMARK    5  A    between atoms: C_16  and  C_17
REMARK    6  A    between atoms: C_19  and  N_22
REMARK    7  A    between atoms: C_23  and  C_26
REMARK    8  A    between atoms: C_27  and  N_32
REMARK                            x       y       z     vdW  Elec       q    Type
REMARK                         _______ _______ _______ _____ _____    ______ ____
ROOT
ATOM      1  N   UNL     1     -41.916  26.436   2.293  0.00  0.00    -0.159 NA
ATOM      2  C   UNL     1     -39.494  24.993   1.347  0.00  0.00    +0.038 C 
ATOM      3  C   UNL     1     -40.870  24.953   0.616  0.00  0.00    +0.025 C 
ATOM      4  C   UNL     1     -39.821  25.262   2.846  0.00  0.00    +0.025 C 
ATOM      5  C   UNL     1     -40.633  26.542   3.045  0.00  0.00    +0.096 C 
ATOM      6  C   UNL     1     -41.704  26.217   0.834  0.00  0.00    +0.096 C 
ENDROOT
BRANCH   2   7
ATOM      7  C   UNL     1     -38.480  26.001   0.767  0.00  0.00    -0.021 C 
ATOM      8  C   UNL     1     -37.661  26.737   1.623  0.00  0.00    -0.004 C 
ATOM      9  C   UNL     1     -38.382  26.177  -0.613  0.00  0.00    -0.004 C 
ATOM     10  C   UNL     1     -36.744  27.649   1.099  0.00  0.00    -0.000 C 
ATOM     11  C   UNL     1     -37.466  27.088  -1.137  0.00  0.00    -0.000 C 
ATOM     12  C   UNL     1     -36.647  27.824  -0.281  0.00  0.00    -0.000 C 
ENDBRANCH   2   7
BRANCH   1  13
ATOM     13  S   UNL     1     -43.098  27.610   2.693  0.00  0.00    +0.044 S 
ATOM     14  O   UNL     1     -44.142  27.576   1.695  0.00  0.00    -0.157 OA
ATOM     15  O   UNL     1     -42.426  28.840   3.052  0.00  0.00    -0.157 OA
BRANCH  13  16
ATOM     16  C   UNL     1     -43.733  26.877   4.178  0.00  0.00    +0.169 C 
BRANCH  16  17
ATOM     17  C   UNL     1     -45.225  27.128   4.325  0.00  0.00    +0.027 C 
ATOM     18  C   UNL     1     -46.011  25.827   4.323  0.00  0.00    +0.002 C 
ENDBRANCH  16  17
ENDBRANCH  13  16
ENDBRANCH   1  13
BRANCH   2  19
ATOM     19  C   UNL     1     -38.852  23.592   1.225  0.00  0.00    +0.076 C 
ATOM     20  C   UNL     1     -39.908  22.534   0.946  0.00  0.00    +0.022 C 
BRANCH  19  22
ATOM     21  O   UNL     1     -35.996  23.552   1.519  0.00  0.00    -0.270 OA
ATOM     22  N   UNL     1     -38.115  23.281   2.421  0.00  0.00    -0.302 N 
ATOM     23  C   UNL     1     -36.728  23.287   2.469  0.00  0.00    +0.248 C 
ATOM     24  H   UNL     1     -38.616  23.054   3.239  0.00  0.00    +0.150 HD
BRANCH  23  26
ATOM     25 CL   UNL     1     -36.555  25.485   4.597  0.00  0.00    -0.082 Cl
ATOM     26  C   UNL     1     -36.118  22.917   3.773  0.00  0.00    +0.077 C 
ATOM     27  C   UNL     1     -35.662  21.614   3.970  0.00  0.00    +0.047 C 
ATOM     28  C   UNL     1     -36.001  23.859   4.794  0.00  0.00    +0.063 C 
ATOM     29  C   UNL     1     -35.090  21.252   5.189  0.00  0.00    +0.014 C 
ATOM     30  C   UNL     1     -35.429  23.498   6.014  0.00  0.00    +0.012 C 
ATOM     31  C   UNL     1     -34.972  22.194   6.212  0.00  0.00    +0.002 C 
BRANCH  27  32
ATOM     32  N   UNL     1     -35.769  20.641   2.950  0.00  0.00    -0.357 N 
ATOM     33  H   UNL     1     -34.956  20.265   2.542  0.00  0.00    +0.142 HD
ATOM     34  H   UNL     1     -36.657  20.341   2.648  0.00  0.00    +0.142 HD
ENDBRANCH  27  32
ENDBRANCH  23  26
ENDBRANCH  19  22
ENDBRANCH   2  19
TORSDOF 8
ENDMDL
MODEL 8
REMARK VINA RESULT:      -6.0      4.920      9.243
REMARK  Name = 53321933
REMARK  8 active torsions:
REMARK  status: ('A' for Active; 'I' for Inactive)
REMARK    1  A    between atoms: N_1  and  S_13
REMARK    2  A    between atoms: C_2  and  C_7
REMARK    3  A    between atoms: C_2  and  C_19
REMARK    4  A    between atoms: S_13  and  C_16
REMARK    5  A    between atoms: C_16  and  C_17
REMARK    6  A    between atoms: C_19  and  N_22
REMARK    7  A    between atoms: C_23  and  C_26
REMARK    8  A    between atoms: C_27  and  N_32
REMARK                            x       y       z     vdW  Elec       q    Type
REMARK                         _______ _______ _______ _____ _____    ______ ____
ROOT
ATOM      1  N   UNL     1     -38.325  25.753   2.381  0.00  0.00    -0.159 NA
ATOM      2  C   UNL     1     -35.626  24.838   3.229  0.00  0.00    +0.038 C 
ATOM      3  C   UNL     1     -36.834  24.998   4.200  0.00  0.00    +0.025 C 
ATOM      4  C   UNL     1     -35.883  25.844   2.068  0.00  0.00    +0.025 C 
ATOM      5  C   UNL     1     -37.228  25.611   1.381  0.00  0.00    +0.096 C 
ATOM      6  C   UNL     1     -38.188  24.797   3.515  0.00  0.00    +0.096 C 
ENDROOT
BRANCH   2   7
ATOM      7  C   UNL     1     -35.383  23.398   2.728  0.00  0.00    -0.021 C 
ATOM      8  C   UNL     1     -34.747  23.183   1.506  0.00  0.00    -0.004 C 
ATOM      9  C   UNL     1     -35.798  22.312   3.498  0.00  0.00    -0.004 C 
ATOM     10  C   UNL     1     -34.526  21.882   1.053  0.00  0.00    -0.000 C 
ATOM     11  C   UNL     1     -35.578  21.012   3.046  0.00  0.00    -0.000 C 
ATOM     12  C   UNL     1     -34.942  20.797   1.823  0.00  0.00    -0.000 C 
ENDBRANCH   2   7
BRANCH   1  13
ATOM     13  S   UNL     1     -39.902  25.886   1.723  0.00  0.00    +0.044 S 
ATOM     14  O   UNL     1     -39.793  26.177   0.311  0.00  0.00    -0.157 OA
ATOM     15  O   UNL     1     -40.707  26.698   2.609  0.00  0.00    -0.157 OA
BRANCH  13  16
ATOM     16  C   UNL     1     -40.424  24.199   1.898  0.00  0.00    +0.169 C 
BRANCH  16  17
ATOM     17  C   UNL     1     -39.961  23.351   0.724  0.00  0.00    +0.027 C 
ATOM     18  C   UNL     1     -39.148  22.155   1.189  0.00  0.00    +0.002 C 
ENDBRANCH  16  17
ENDBRANCH  13  16
ENDBRANCH   1  13
BRANCH   2  19
ATOM     19  C   UNL     1     -34.349  25.270   3.985  0.00  0.00    +0.076 C 
ATOM     20  C   UNL     1     -34.453  24.929   5.464  0.00  0.00    +0.022 C 
BRANCH  19  22
ATOM     21  O   UNL     1     -31.838  26.533   3.399  0.00  0.00    -0.270 OA
ATOM     22  N   UNL     1     -34.118  26.678   3.797  0.00  0.00    -0.302 N 
ATOM     23  C   UNL     1     -32.863  27.200   3.515  0.00  0.00    +0.248 C 
ATOM     24  H   UNL     1     -34.881  27.297   3.872  0.00  0.00    +0.150 HD
BRANCH  23  26
ATOM     25 CL   UNL     1     -33.492  28.372   0.755  0.00  0.00    -0.082 Cl
ATOM     26  C   UNL     1     -32.785  28.677   3.376  0.00  0.00    +0.077 C 
ATOM     27  C   UNL     1     -32.440  29.452   4.483  0.00  0.00    +0.047 C 
ATOM     28  C   UNL     1     -33.056  29.290   2.153  0.00  0.00    +0.063 C 
ATOM     29  C   UNL     1     -32.366  30.840   4.368  0.00  0.00    +0.014 C 
ATOM     30  C   UNL     1     -32.983  30.678   2.037  0.00  0.00    +0.012 C 
ATOM     31  C   UNL     1     -32.637  31.454   3.144  0.00  0.00    +0.002 C 
BRANCH  27  32
ATOM     32  N   UNL     1     -32.161  28.854   5.734  0.00  0.00    -0.357 N 
ATOM     33  H   UNL     1     -31.484  28.142   5.798  0.00  0.00    +0.142 HD
ATOM     34  H   UNL     1     -32.643  29.150   6.539  0.00  0.00    +0.142 HD
ENDBRANCH  27  32
ENDBRANCH  23  26
ENDBRANCH  19  22
ENDBRANCH   2  19
TORSDOF 8
ENDMDL
MODEL 9
REMARK VINA RESULT:      -6.0      5.414      9.659
REMARK  Name = 53321933
REMARK  8 active torsions:
REMARK  status: ('A' for Active; 'I' for Inactive)
REMARK    1  A    between atoms: N_1  and  S_13
REMARK    2  A    between atoms: C_2  and  C_7
REMARK    3  A    between atoms: C_2  and  C_19
REMARK    4  A    between atoms: S_13  and  C_16
REMARK    5  A    between atoms: C_16  and  C_17
REMARK    6  A    between atoms: C_19  and  N_22
REMARK    7  A    between atoms: C_23  and  C_26
REMARK    8  A    between atoms: C_27  and  N_32
REMARK                            x       y       z     vdW  Elec       q    Type
REMARK                         _______ _______ _______ _____ _____    ______ ____
ROOT
ATOM      1  N   UNL     1     -38.682  26.155   2.598  0.00  0.00    -0.159 NA
ATOM      2  C   UNL     1     -35.871  25.532   3.345  0.00  0.00    +0.038 C 
ATOM      3  C   UNL     1     -37.106  25.147   4.214  0.00  0.00    +0.025 C 
ATOM      4  C   UNL     1     -36.302  26.790   2.535  0.00  0.00    +0.025 C 
ATOM      5  C   UNL     1     -37.558  26.545   1.699  0.00  0.00    +0.096 C 
ATOM      6  C   UNL     1     -38.377  24.929   3.389  0.00  0.00    +0.096 C 
ENDROOT
BRANCH   2   7
ATOM      7  C   UNL     1     -35.333  24.399   2.446  0.00  0.00    -0.021 C 
ATOM      8  C   UNL     1     -35.645  23.071   2.737  0.00  0.00    -0.004 C 
ATOM      9  C   UNL     1     -34.535  24.701   1.343  0.00  0.00    -0.004 C 
ATOM     10  C   UNL     1     -35.159  22.045   1.925  0.00  0.00    -0.000 C 
ATOM     11  C   UNL     1     -34.048  23.677   0.532  0.00  0.00    -0.000 C 
ATOM     12  C   UNL     1     -34.360  22.349   0.823  0.00  0.00    -0.000 C 
ENDBRANCH   2   7
BRANCH   1  13
ATOM     13  S   UNL     1     -40.239  26.197   1.884  0.00  0.00    +0.044 S 
ATOM     14  O   UNL     1     -40.508  24.912   1.281  0.00  0.00    -0.157 OA
ATOM     15  O   UNL     1     -40.375  27.432   1.142  0.00  0.00    -0.157 OA
BRANCH  13  16
ATOM     16  C   UNL     1     -41.221  26.329   3.356  0.00  0.00    +0.169 C 
BRANCH  16  17
ATOM     17  C   UNL     1     -42.445  27.202   3.129  0.00  0.00    +0.027 C 
ATOM     18  C   UNL     1     -43.593  26.405   2.535  0.00  0.00    +0.002 C 
ENDBRANCH  16  17
ENDBRANCH  13  16
ENDBRANCH   1  13
BRANCH   2  19
ATOM     19  C   UNL     1     -34.724  25.928   4.302  0.00  0.00    +0.076 C 
ATOM     20  C   UNL     1     -35.146  25.760   5.753  0.00  0.00    +0.022 C 
BRANCH  19  22
ATOM     21  O   UNL     1     -32.054  26.825   3.746  0.00  0.00    -0.270 OA
ATOM     22  N   UNL     1     -34.309  27.281   4.040  0.00  0.00    -0.302 N 
ATOM     23  C   UNL     1     -32.988  27.622   3.780  0.00  0.00    +0.248 C 
ATOM     24  H   UNL     1     -34.989  27.993   4.047  0.00  0.00    +0.150 HD
BRANCH  23  26
ATOM     25 CL   UNL     1     -33.451  28.702   0.950  0.00  0.00    -0.082 Cl
ATOM     26  C   UNL     1     -32.718  29.066   3.557  0.00  0.00    +0.077 C 
ATOM     27  C   UNL     1     -32.279  29.853   4.621  0.00  0.00    +0.047 C 
ATOM     28  C   UNL     1     -32.904  29.636   2.298  0.00  0.00    +0.063 C 
ATOM     29  C   UNL     1     -32.024  31.210   4.426  0.00  0.00    +0.014 C 
ATOM     30  C   UNL     1     -32.649  30.993   2.102  0.00  0.00    +0.012 C 
ATOM     31  C   UNL     1     -32.209  31.781   3.167  0.00  0.00    +0.002 C 
BRANCH  27  32
ATOM     32  N   UNL     1     -32.083  29.298   5.907  0.00  0.00    -0.357 N 
ATOM     33  H   UNL     1     -31.213  28.906   6.146  0.00  0.00    +0.142 HD
ATOM     34  H   UNL     1     -32.818  29.303   6.562  0.00  0.00    +0.142 HD
ENDBRANCH  27  32
ENDBRANCH  23  26
ENDBRANCH  19  22
ENDBRANCH   2  19
TORSDOF 8
ENDMDL
